version 2
run factors_calibration_minions-221-20230303-19:02:44-26965
attr configname factors_calibration_minions
attr datetime 20230303-19:02:44
attr experiment factors_calibration_minions
attr inifile omnetpp.ini
attr iterationvars $0=15
attr iterationvarsf 15-
attr measurement $0=15
attr network Network
attr processid 26965
attr repetition 11
attr replication #11
attr resultdir results
attr runnumber 221
attr seedset 11
param *.minion.arrival_mean 20
param *.minion.service_mean 15
param *.boss.arrival_mean 20
param *.boss.service_mean 3
param *.player.recover_rate_x 100
param **.minion.arrival_distribution 0
param **.minion.service_distribution 0
param **.boss.arrival_distribution 0
param **.boss.service_distribution 0

vector 0 Network.player boss_jobs_number_stat:vector ETV
attr source signal_boss_jobs_number
vector 1 Network.player boss_jobs_queue_number_stat:vector ETV
attr source signal_boss_jobs_queue_number
vector 2 Network.player boss_defeated_stat:vector ETV
attr source signal_boss_defeated
vector 3 Network.player boss_response_time_stat:vector ETV
attr source signal_boss_response_time
vector 4 Network.player boss_waiting_time_stat:vector ETV
attr source signal_boss_waiting_time
vector 5 Network.player minion_jobs_number_stat:vector ETV
attr source signal_minion_jobs_number
vector 6 Network.player minion_jobs_queue_number_stat:vector ETV
attr source signal_minion_jobs_queue_number
vector 7 Network.player minion_waiting_time_stat:vector ETV
attr source signal_minion_waiting_time
vector 8 Network.player minion_recovered_stat:vector ETV
attr source signal_minion_recovered
vector 9 Network.player minion_defeated_stat:vector ETV
attr source signal_minion_defeated
vector 10 Network.player minion_response_time_stat:vector ETV
attr source signal_minion_response_time
vector 11 Network.player minion_throughput:vector ETV
attr source signal_minion_throughput
vector 12 Network.player boss_throughput:vector ETV
attr source signal_boss_throughput
0	95	350.810908640399	3
0	102	362.43827406384	1
0	106	372.457831806101	1
0	114	421.231036863725	1
0	116	422.258155636236	2
0	124	434.397689262197	1
0	127	439.610663971992	1
0	135	453.793526523054	1
0	140	457.822166656212	1
0	142	459.596779139852	2
0	150	490.031856445978	1
0	153	501.146565597212	1
0	156	507.998940490456	1
0	162	535.385086866618	1
0	165	536.647697750317	1
0	171	577.008063714078	1
0	180	625.155745667831	1
0	183	632.977105340681	1
0	190	682.961103942653	1
0	192	685.159062044213	2
0	196	688.41788609212	1
0	211	720.818567622802	1
0	220	742.34700746987	1
0	223	752.391989375619	1
0	226	755.897324484502	1
0	232	775.662088383508	1
0	239	790.080534832881	1
0	241	790.813576755962	2
0	245	807.051325263327	1
0	248	814.182191414584	1
0	251	819.651339178744	1
0	253	820.627860029246	2
0	267	860.996806993361	1
0	270	870.307832749627	1
0	274	874.759940419569	1
0	277	880.847424649465	1
0	282	893.070156380368	1
0	298	986.254666555407	1
0	314	1045.839946687533	1
0	323	1055.895288500736	1
0	329	1094.128034977528	1
0	332	1101.478109745127	1
0	336	1103.51526631821	2
0	340	1108.512747814944	3
0	345	1112.452693155669	3
0	353	1126.078054653729	1
0	360	1137.278937592869	1
0	362	1138.471287941422	2
0	366	1150.749150558914	1
0	370	1157.590509079489	2
0	374	1163.830009180747	1
0	380	1169.18630106408	1
0	385	1188.666672010308	1
0	395	1254.837442024195	1
0	398	1264.436041734011	1
0	404	1283.561317743566	1
0	407	1294.924141858317	1
0	410	1334.618986807489	1
0	413	1351.449230121806	1
0	415	1353.337317539997	2
0	419	1364.007868382867	1
0	422	1367.234470496	1
0	430	1407.623308105574	1
0	435	1429.953231197204	1
0	442	1445.290017857441	1
0	460	1522.546985036706	1
0	468	1564.732089783015	1
0	470	1565.20203831387	2
0	473	1567.158129871605	2
0	482	1614.815752662296	1
0	487	1641.723510214391	1
0	492	1642.919599835408	1
0	498	1672.309207478826	1
0	503	1700.493543879694	1
0	511	1725.771804747797	1
0	514	1727.107486985558	1
0	517	1741.765106934903	1
0	522	1747.672227176383	1
0	525	1750.165771003638	1
0	528	1753.882913231852	1
0	534	1785.856777205899	1
0	539	1790.198200156219	1
0	542	1801.790227424367	1
0	545	1804.043678835036	1
0	553	1816.226235181707	1
0	557	1830.93854574318	1
0	567	1884.186922687865	1
0	569	1884.312240102275	2
0	571	1884.679389480801	3
0	583	1915.950055390832	1
0	592	1947.126132806161	1
0	594	1950.112634598494	2
0	596	1951.560215154763	3
0	598	1953.826841268356	4
0	602	1975.34125048369	3
0	608	1986.569639472766	2
0	614	1989.237686142385	1
0	617	1994.180594181578	1
0	619	1996.175709749868	2
0	624	2032.315413499591	1
0	626	2032.713617515447	2
0	628	2032.831458324909	3
0	634	2050.075995185237	1
0	636	2053.286951205201	2
0	658	2166.547424019246	1
0	663	2190.516773128762	1
0	674	2238.342644924639	1
0	677	2241.536865042855	1
0	679	2242.466596596854	2
0	686	2283.392076793466	1
0	688	2283.943439539722	2
0	694	2298.37380560479	1
0	696	2304.187980098955	2
0	700	2315.248738444814	1
0	703	2320.865879407701	1
0	705	2321.248891173496	2
0	715	2341.447019352221	1
0	718	2355.084277993321	1
0	722	2379.095213703034	1
0	734	2437.703142205419	1
0	746	2475.022752058164	1
0	750	2483.50970015636	2
0	756	2493.644976029564	1
1	95	350.810908640399	2
1	96	356.218660380915	2
1	99	359.330324677701	1
1	100	360.840730880303	0
1	102	362.43827406384	0
1	103	364.044651780711	0
1	106	372.457831806101	0
1	107	373.555792740197	0
1	114	421.231036863725	0
1	116	422.258155636236	1
1	119	424.903879901151	1
1	120	425.690334947151	0
1	124	434.397689262197	0
1	125	435.247362846874	0
1	127	439.610663971992	0
1	128	442.629286042572	0
1	135	453.793526523054	0
1	136	454.680638742847	0
1	140	457.822166656212	0
1	142	459.596779139852	1
1	143	459.986859771783	1
1	144	460.059772754892	0
1	150	490.031856445978	0
1	151	491.56230264302	0
1	153	501.146565597212	0
1	154	501.458403328275	0
1	156	507.998940490456	0
1	157	509.311842301483	0
1	162	535.385086866618	0
1	163	536.456982703649	0
1	165	536.647697750317	0
1	166	540.961862986346	0
1	171	577.008063714078	0
1	172	580.080156630534	0
1	180	625.155745667831	0
1	181	625.314731056816	0
1	183	632.977105340681	0
1	184	634.143849564229	0
1	190	682.961103942653	0
1	192	685.159062044213	1
1	193	686.927430536044	1
1	194	687.54295147865	0
1	196	688.41788609212	0
1	197	692.825144600551	0
1	211	720.818567622802	0
1	212	728.292315493266	0
1	220	742.34700746987	0
1	221	743.366342145457	0
1	223	752.391989375619	0
1	224	753.339908130538	0
1	226	755.897324484502	0
1	227	759.478365974249	0
1	232	775.662088383508	0
1	233	776.620836529077	0
1	239	790.080534832881	0
1	241	790.813576755962	1
1	242	792.216928876446	1
1	243	801.481305959501	0
1	245	807.051325263327	0
1	246	811.969748877623	0
1	248	814.182191414584	0
1	249	814.590044308389	0
1	251	819.651339178744	0
1	253	820.627860029246	1
1	254	827.352635123806	1
1	257	831.47887463622	0
1	267	860.996806993361	0
1	268	862.359529853422	0
1	270	870.307832749627	0
1	271	870.32358791427	0
1	274	874.759940419569	0
1	275	876.920086032492	0
1	277	880.847424649465	0
1	280	886.677766979848	0
1	282	893.070156380368	0
1	283	897.342693874852	0
1	298	986.254666555407	0
1	301	989.826417129642	0
1	314	1045.839946687533	0
1	315	1046.253972838946	0
1	323	1055.895288500736	0
1	324	1058.311051060231	0
1	329	1094.128034977528	0
1	330	1096.50999612191	0
1	332	1101.478109745127	0
1	336	1103.51526631821	1
1	340	1108.512747814944	2
1	341	1109.689116485894	2
1	345	1112.452693155669	2
1	348	1115.999558616538	2
1	349	1118.15571387385	1
1	350	1120.126271509793	0
1	353	1126.078054653729	0
1	354	1126.664683803419	0
1	360	1137.278937592869	0
1	362	1138.471287941422	1
1	363	1144.491261531012	1
1	364	1146.800476698777	0
1	366	1150.749150558914	0
1	370	1157.590509079489	1
1	371	1157.826563293541	1
1	372	1158.868688924534	0
1	374	1163.830009180747	0
1	375	1163.91692196453	0
1	380	1169.18630106408	0
1	381	1169.218277021938	0
1	385	1188.666672010308	0
1	386	1190.473644280267	0
1	395	1254.837442024195	0
1	396	1261.294787979215	0
1	398	1264.436041734011	0
1	399	1265.713861669569	0
1	404	1283.561317743566	0
1	405	1286.766241966151	0
1	407	1294.924141858317	0
1	408	1300.172594496093	0
1	410	1334.618986807489	0
1	411	1343.174192867803	0
1	413	1351.449230121806	0
1	415	1353.337317539997	1
1	416	1357.006628044702	1
1	417	1361.105459783558	0
1	419	1364.007868382867	0
1	420	1365.304686132419	0
1	422	1367.234470496	0
1	423	1368.167160639113	0
1	430	1407.623308105574	0
1	433	1415.509935927296	0
1	435	1429.953231197204	0
1	436	1431.300837469636	0
1	442	1445.290017857441	0
1	443	1446.402052691325	0
1	460	1522.546985036706	0
1	465	1524.789186250763	0
1	468	1564.732089783015	0
1	470	1565.20203831387	1
1	471	1567.009665405149	1
1	473	1567.158129871605	1
1	474	1569.384493180708	1
1	475	1570.425517349655	0
1	482	1614.815752662296	0
1	483	1615.713682218352	0
1	487	1641.723510214391	0
1	490	1642.341286960722	0
1	492	1642.919599835408	0
1	493	1643.495393411498	0
1	498	1672.309207478826	0
1	501	1676.523020433925	0
1	503	1700.493543879694	0
1	504	1701.835736364788	0
1	511	1725.771804747797	0
1	512	1726.54863080772	0
1	514	1727.107486985558	0
1	515	1727.560591540316	0
1	517	1741.765106934903	0
1	520	1742.2593230734	0
1	522	1747.672227176383	0
1	523	1749.15058837968	0
1	525	1750.165771003638	0
1	526	1750.507803630171	0
1	528	1753.882913231852	0
1	529	1755.798255850735	0
1	534	1785.856777205899	0
1	535	1786.102859916614	0
1	539	1790.198200156219	0
1	540	1800.602801962386	0
1	542	1801.790227424367	0
1	543	1803.495681189545	0
1	545	1804.043678835036	0
1	546	1804.515631972997	0
1	553	1816.226235181707	0
1	554	1817.505380042537	0
1	557	1830.93854574318	0
1	558	1833.104758496183	0
1	567	1884.186922687865	0
1	569	1884.312240102275	1
1	571	1884.679389480801	2
1	572	1885.566554666526	2
1	573	1887.81667140646	1
1	576	1892.589139227382	0
1	583	1915.950055390832	0
1	584	1917.04263269882	0
1	592	1947.126132806161	0
1	594	1950.112634598494	1
1	596	1951.560215154763	2
1	598	1953.826841268356	3
1	599	1964.62950310363	3
1	600	1965.15140188504	2
1	602	1975.34125048369	2
1	605	1978.797058114502	2
1	606	1981.522855696905	1
1	608	1986.569639472766	1
1	609	1986.794174036218	1
1	610	1987.122710780611	0
1	614	1989.237686142385	0
1	615	1990.319899497849	0
1	617	1994.180594181578	0
1	619	1996.175709749868	1
1	620	1996.698347715831	1
1	621	2008.759425209892	0
1	624	2032.315413499591	0
1	626	2032.713617515447	1
1	628	2032.831458324909	2
1	629	2033.780191906252	2
1	630	2037.834332612482	1
1	631	2038.099915075934	0
1	634	2050.075995185237	0
1	636	2053.286951205201	1
1	637	2054.227350590557	1
1	640	2056.703954045688	0
1	658	2166.547424019246	0
1	659	2170.0566118399	0
1	663	2190.516773128762	0
1	664	2193.649756425967	0
1	674	2238.342644924639	0
1	675	2239.313447090803	0
1	677	2241.536865042855	0
1	679	2242.466596596854	1
1	682	2244.79040699281	1
1	683	2245.457452383368	0
1	686	2283.392076793466	0
1	688	2283.943439539722	1
1	689	2284.021436773644	1
1	692	2291.053271152452	0
1	694	2298.37380560479	0
1	696	2304.187980098955	1
1	697	2307.61826071808	1
1	698	2315.083187297685	0
1	700	2315.248738444814	0
1	701	2315.431252843134	0
1	703	2320.865879407701	0
1	705	2321.248891173496	1
1	706	2322.484327814314	1
1	707	2328.8502787798	0
1	715	2341.447019352221	0
1	716	2341.985681021687	0
1	718	2355.084277993321	0
1	719	2359.678351622561	0
1	722	2379.095213703034	0
1	723	2382.139332703699	0
1	734	2437.703142205419	0
1	737	2438.576114483554	0
1	746	2475.022752058164	0
1	750	2483.50970015636	1
1	751	2485.530382063122	1
1	754	2493.38599209731	0
1	756	2493.644976029564	0
1	757	2496.28766120513	0
2	96	356.218660380915	12
2	99	359.330324677701	13
2	100	360.840730880303	14
2	103	364.044651780711	15
2	107	373.555792740197	16
2	119	424.903879901151	17
2	120	425.690334947151	18
2	125	435.247362846874	19
2	128	442.629286042572	20
2	136	454.680638742847	21
2	143	459.986859771783	22
2	144	460.059772754892	23
2	151	491.56230264302	24
2	154	501.458403328275	25
2	157	509.311842301483	26
2	163	536.456982703649	27
2	166	540.961862986346	28
2	172	580.080156630534	29
2	181	625.314731056816	30
2	184	634.143849564229	31
2	193	686.927430536044	32
2	194	687.54295147865	33
2	197	692.825144600551	34
2	212	728.292315493266	35
2	221	743.366342145457	36
2	224	753.339908130538	37
2	227	759.478365974249	38
2	233	776.620836529077	39
2	242	792.216928876446	40
2	243	801.481305959501	41
2	246	811.969748877623	42
2	249	814.590044308389	43
2	254	827.352635123806	44
2	257	831.47887463622	45
2	268	862.359529853422	46
2	271	870.32358791427	47
2	275	876.920086032492	48
2	280	886.677766979848	49
2	283	897.342693874852	50
2	301	989.826417129642	51
2	315	1046.253972838946	52
2	324	1058.311051060231	53
2	330	1096.50999612191	54
2	341	1109.689116485894	55
2	348	1115.999558616538	56
2	349	1118.15571387385	57
2	350	1120.126271509793	58
2	354	1126.664683803419	59
2	363	1144.491261531012	60
2	364	1146.800476698777	61
2	371	1157.826563293541	62
2	372	1158.868688924534	63
2	375	1163.91692196453	64
2	381	1169.218277021938	65
2	386	1190.473644280267	66
2	396	1261.294787979215	67
2	399	1265.713861669569	68
2	405	1286.766241966151	69
2	408	1300.172594496093	70
2	411	1343.174192867803	71
2	416	1357.006628044702	72
2	417	1361.105459783558	73
2	420	1365.304686132419	74
2	423	1368.167160639113	75
2	433	1415.509935927296	76
2	436	1431.300837469636	77
2	443	1446.402052691325	78
2	465	1524.789186250763	79
2	471	1567.009665405149	80
2	474	1569.384493180708	81
2	475	1570.425517349655	82
2	483	1615.713682218352	83
2	490	1642.341286960722	84
2	493	1643.495393411498	85
2	501	1676.523020433925	86
2	504	1701.835736364788	87
2	512	1726.54863080772	88
2	515	1727.560591540316	89
2	520	1742.2593230734	90
2	523	1749.15058837968	91
2	526	1750.507803630171	92
2	529	1755.798255850735	93
2	535	1786.102859916614	94
2	540	1800.602801962386	95
2	543	1803.495681189545	96
2	546	1804.515631972997	97
2	554	1817.505380042537	98
2	558	1833.104758496183	99
2	572	1885.566554666526	100
2	573	1887.81667140646	101
2	576	1892.589139227382	102
2	584	1917.04263269882	103
2	599	1964.62950310363	104
2	600	1965.15140188504	105
2	605	1978.797058114502	106
2	606	1981.522855696905	107
2	609	1986.794174036218	108
2	610	1987.122710780611	109
2	615	1990.319899497849	110
2	620	1996.698347715831	111
2	621	2008.759425209892	112
2	629	2033.780191906252	113
2	630	2037.834332612482	114
2	631	2038.099915075934	115
2	637	2054.227350590557	116
2	640	2056.703954045688	117
2	659	2170.0566118399	118
2	664	2193.649756425967	119
2	675	2239.313447090803	120
2	682	2244.79040699281	121
2	683	2245.457452383368	122
2	689	2284.021436773644	123
2	692	2291.053271152452	124
2	697	2307.61826071808	125
2	698	2315.083187297685	126
2	701	2315.431252843134	127
2	706	2322.484327814314	128
2	707	2328.8502787798	129
2	716	2341.985681021687	130
2	719	2359.678351622561	131
2	723	2382.139332703699	132
2	737	2438.576114483554	133
2	751	2485.530382063122	134
2	754	2493.38599209731	135
2	757	2496.28766120513	136
3	96	356.218660380915	8.116246748182
3	99	359.330324677701	10.3516850035
3	100	360.840730880303	10.029822239904
3	103	364.044651780711	1.606377716871
3	107	373.555792740197	1.097960934096
3	119	424.903879901151	3.672843037426
3	120	425.690334947151	3.432179310915
3	125	435.247362846874	0.849673584677
3	128	442.629286042572	3.01862207058
3	136	454.680638742847	0.887112219793
3	143	459.986859771783	2.164693115571
3	144	460.059772754892	0.46299361504
3	151	491.56230264302	1.530446197042
3	154	501.458403328275	0.311837731063
3	157	509.311842301483	1.312901811027
3	163	536.456982703649	1.071895837031
3	166	540.961862986346	4.314165236029
3	172	580.080156630534	3.072092916456
3	181	625.314731056816	0.158985388985
3	184	634.143849564229	1.166744223548
3	193	686.927430536044	3.966326593391
3	194	687.54295147865	2.383889434437
3	197	692.825144600551	4.407258508431
3	212	728.292315493266	7.473747870464
3	221	743.366342145457	1.019334675587
3	224	753.339908130538	0.947918754919
3	227	759.478365974249	3.581041489747
3	233	776.620836529077	0.958748145569
3	242	792.216928876446	2.136394043565
3	243	801.481305959501	10.667729203539
3	246	811.969748877623	4.918423614296
3	249	814.590044308389	0.407852893805
3	254	827.352635123806	7.701295945062
3	257	831.47887463622	10.851014606974
3	268	862.359529853422	1.362722860061
3	271	870.32358791427	0.015755164643
3	275	876.920086032492	2.160145612923
3	280	886.677766979848	5.830342330383
3	283	897.342693874852	4.272537494484
3	301	989.826417129642	3.571750574235
3	315	1046.253972838946	0.414026151413
3	324	1058.311051060231	2.415762559495
3	330	1096.50999612191	2.381961144382
3	341	1109.689116485894	8.211006740767
3	348	1115.999558616538	12.484292298328
3	349	1118.15571387385	9.642966058906
3	350	1120.126271509793	7.673578354124
3	354	1126.664683803419	0.58662914969
3	363	1144.491261531012	7.212323938143
3	364	1146.800476698777	8.329188757355
3	371	1157.826563293541	7.077412734627
3	372	1158.868688924534	1.278179845045
3	375	1163.91692196453	0.086912783783
3	381	1169.218277021938	0.031975957858
3	386	1190.473644280267	1.806972269959
3	396	1261.294787979215	6.45734595502
3	399	1265.713861669569	1.277819935558
3	405	1286.766241966151	3.204924222585
3	408	1300.172594496093	5.248452637776
3	411	1343.174192867803	8.555206060314
3	416	1357.006628044702	5.557397922896
3	417	1361.105459783558	7.768142243561
3	420	1365.304686132419	1.296817749552
3	423	1368.167160639113	0.932690143113
3	433	1415.509935927296	7.886627821722
3	436	1431.300837469636	1.347606272432
3	443	1446.402052691325	1.112034833884
3	465	1524.789186250763	2.242201214057
3	471	1567.009665405149	2.277575622134
3	474	1569.384493180708	4.182454866838
3	475	1570.425517349655	3.26738747805
3	483	1615.713682218352	0.897929556056
3	490	1642.341286960722	0.617776746331
3	493	1643.495393411498	0.57579357609
3	501	1676.523020433925	4.213812955099
3	504	1701.835736364788	1.342192485094
3	512	1726.54863080772	0.776826059923
3	515	1727.560591540316	0.453104554758
3	520	1742.2593230734	0.494216138497
3	523	1749.15058837968	1.478361203297
3	526	1750.507803630171	0.342032626533
3	529	1755.798255850735	1.915342618883
3	535	1786.102859916614	0.246082710715
3	540	1800.602801962386	10.404601806167
3	543	1803.495681189545	1.705453765178
3	546	1804.515631972997	0.471953137961
3	554	1817.505380042537	1.27914486083
3	558	1833.104758496183	2.166212753003
3	572	1885.566554666526	1.379631978661
3	573	1887.81667140646	3.504431304185
3	576	1892.589139227382	7.909749746581
3	584	1917.04263269882	1.092577307988
3	599	1964.62950310363	17.503370297469
3	600	1965.15140188504	15.038767286546
3	605	1978.797058114502	27.236842959739
3	606	1981.522855696905	27.696014428549
3	609	1986.794174036218	11.452923552528
3	610	1987.122710780611	0.553071307845
3	615	1990.319899497849	1.082213355464
3	620	1996.698347715831	2.517753534253
3	621	2008.759425209892	12.583715460024
3	629	2033.780191906252	1.464778406661
3	630	2037.834332612482	5.120715097035
3	631	2038.099915075934	5.268456751025
3	637	2054.227350590557	4.15135540532
3	640	2056.703954045688	3.417002840487
3	659	2170.0566118399	3.509187820654
3	664	2193.649756425967	3.132983297205
3	675	2239.313447090803	0.970802166164
3	682	2244.79040699281	3.253541949955
3	683	2245.457452383368	2.990855786514
3	689	2284.021436773644	0.629359980178
3	692	2291.053271152452	7.10983161273
3	697	2307.61826071808	9.24445511329
3	698	2315.083187297685	10.89520719873
3	701	2315.431252843134	0.18251439832
3	706	2322.484327814314	1.618448406613
3	707	2328.8502787798	7.601387606304
3	716	2341.985681021687	0.538661669466
3	719	2359.678351622561	4.59407362924
3	723	2382.139332703699	3.044119000665
3	737	2438.576114483554	0.872972278135
3	751	2485.530382063122	10.507630004958
3	754	2493.38599209731	9.87629194095
3	757	2496.28766120513	2.642685175566
4	96	356.218660380915	7.240020706714
4	99	359.330324677701	8.519416037302
4	102	362.43827406384	0
4	106	372.457831806101	0
4	114	421.231036863725	0
4	119	424.903879901151	2.645724264915
4	124	434.397689262197	0
4	127	439.610663971992	0
4	135	453.793526523054	0
4	140	457.822166656212	0
4	143	459.986859771783	0.390080631931
4	150	490.031856445978	0
4	153	501.146565597212	0
4	156	507.998940490456	0
4	162	535.385086866618	0
4	165	536.647697750317	0
4	171	577.008063714078	0
4	180	625.155745667831	0
4	183	632.977105340681	0
4	190	682.961103942653	0
4	193	686.927430536044	1.768368491831
4	196	688.41788609212	0
4	211	720.818567622802	0
4	220	742.34700746987	0
4	223	752.391989375619	0
4	226	755.897324484502	0
4	232	775.662088383508	0
4	239	790.080534832881	0
4	242	792.216928876446	1.403352120484
4	245	807.051325263327	0
4	248	814.182191414584	0
4	251	819.651339178744	0
4	254	827.352635123806	6.72477509456
4	267	860.996806993361	0
4	270	870.307832749627	0
4	274	874.759940419569	0
4	277	880.847424649465	0
4	282	893.070156380368	0
4	298	986.254666555407	0
4	314	1045.839946687533	0
4	323	1055.895288500736	0
4	329	1094.128034977528	0
4	332	1101.478109745127	0
4	341	1109.689116485894	6.173850167684
4	348	1115.999558616538	7.486810801594
4	349	1118.15571387385	5.703020718181
4	353	1126.078054653729	0
4	360	1137.278937592869	0
4	363	1144.491261531012	6.01997358959
4	366	1150.749150558914	0
4	371	1157.826563293541	0.236054214052
4	374	1163.830009180747	0
4	380	1169.18630106408	0
4	385	1188.666672010308	0
4	395	1254.837442024195	0
4	398	1264.436041734011	0
4	404	1283.561317743566	0
4	407	1294.924141858317	0
4	410	1334.618986807489	0
4	413	1351.449230121806	0
4	416	1357.006628044702	3.669310504705
4	419	1364.007868382867	0
4	422	1367.234470496	0
4	430	1407.623308105574	0
4	435	1429.953231197204	0
4	442	1445.290017857441	0
4	460	1522.546985036706	0
4	468	1564.732089783015	0
4	471	1567.009665405149	1.807627091279
4	474	1569.384493180708	2.226363309103
4	482	1614.815752662296	0
4	487	1641.723510214391	0
4	492	1642.919599835408	0
4	498	1672.309207478826	0
4	503	1700.493543879694	0
4	511	1725.771804747797	0
4	514	1727.107486985558	0
4	517	1741.765106934903	0
4	522	1747.672227176383	0
4	525	1750.165771003638	0
4	528	1753.882913231852	0
4	534	1785.856777205899	0
4	539	1790.198200156219	0
4	542	1801.790227424367	0
4	545	1804.043678835036	0
4	553	1816.226235181707	0
4	557	1830.93854574318	0
4	567	1884.186922687865	0
4	572	1885.566554666526	1.254314564251
4	573	1887.81667140646	3.137281925659
4	583	1915.950055390832	0
4	592	1947.126132806161	0
4	599	1964.62950310363	14.516868505136
4	600	1965.15140188504	13.591186730277
4	605	1978.797058114502	24.970216846146
4	606	1981.522855696905	6.181605213215
4	609	1986.794174036218	0.224534563452
4	614	1989.237686142385	0
4	617	1994.180594181578	0
4	620	1996.698347715831	0.522637965963
4	624	2032.315413499591	0
4	629	2033.780191906252	1.066574390805
4	630	2037.834332612482	5.002874287573
4	634	2050.075995185237	0
4	637	2054.227350590557	0.940399385356
4	658	2166.547424019246	0
4	663	2190.516773128762	0
4	674	2238.342644924639	0
4	677	2241.536865042855	0
4	682	2244.79040699281	2.323810395956
4	686	2283.392076793466	0
4	689	2284.021436773644	0.077997233922
4	694	2298.37380560479	0
4	697	2307.61826071808	3.430280619125
4	700	2315.248738444814	0
4	703	2320.865879407701	0
4	706	2322.484327814314	1.235436640818
4	715	2341.447019352221	0
4	718	2355.084277993321	0
4	722	2379.095213703034	0
4	734	2437.703142205419	0
4	746	2475.022752058164	0
4	751	2485.530382063122	2.020681906762
4	756	2493.644976029564	0
5	98	359.003071054675	5
5	109	378.970502837802	5
5	111	391.169471374476	6
5	118	423.221166160287	6
5	122	434.381311076344	7
5	131	449.59413393297	7
5	133	452.002798069302	8
5	138	455.845230126606	9
5	146	460.760654709932	10
5	148	464.667801568133	11
5	160	527.819683845348	11
5	168	554.286447259523	12
5	175	611.703968100946	11
5	178	621.915186247234	11
5	186	664.626837990532	12
5	188	678.978026370229	13
5	200	699.770402799937	13
5	202	700.607388617466	14
5	204	705.418901232367	15
5	208	718.275479158457	14
5	214	738.533274854219	14
5	216	738.750825634387	15
5	218	741.747438690889	16
5	230	774.049440807661	16
5	235	786.325223749095	17
5	237	789.358852411015	18
5	256	830.766615603469	19
5	261	837.744276580365	18
5	263	843.724538534436	19
5	279	882.260143065254	17
5	285	904.12375021985	18
5	288	936.311796093955	18
5	294	976.019797614316	15
5	296	985.800728474048	16
5	300	989.024020966272	17
5	309	1025.550521954014	12
5	312	1042.104673704057	12
5	318	1051.086508261607	12
5	321	1054.553473355181	12
5	334	1102.325333824134	10
5	338	1106.121804560602	11
5	343	1111.312846825878	12
5	347	1113.509656661772	13
5	356	1126.74035772644	13
5	358	1131.276803673429	14
5	368	1152.751557346989	15
5	377	1164.897894994988	16
5	383	1169.766449288594	16
5	388	1201.419926127676	17
5	402	1281.702833692386	12
5	426	1375.523236468425	12
5	428	1377.455862657941	13
5	432	1410.152741444483	14
5	438	1431.896018401005	15
5	440	1441.373533690761	16
5	445	1447.598183137013	17
5	448	1462.100743388035	17
5	451	1476.430381469665	17
5	453	1477.64447604901	18
5	455	1488.136574473577	19
5	458	1512.969769244725	19
5	462	1522.946770444658	20
5	464	1524.452188551836	21
5	478	1599.449152650376	20
5	489	1642.294494026135	17
5	495	1647.602845010542	18
5	500	1673.499609092381	18
5	506	1706.157806384642	19
5	519	1741.996941399128	17
5	531	1761.661467847906	18
5	537	1786.434870389285	18
5	550	1813.337733993823	17
5	560	1837.246581146819	16
5	562	1838.496698959812	17
5	575	1891.711295452115	15
5	578	1893.376222976262	16
5	586	1936.062246616181	14
5	588	1940.304813438702	15
5	590	1942.300600864968	16
5	604	1976.786867995165	17
5	612	1988.98124736565	18
5	639	2054.250451223253	17
5	642	2067.824431952267	18
5	645	2086.6169128732	18
5	647	2088.924535254629	19
5	649	2091.265696360181	20
5	651	2094.60413824651	21
5	653	2095.675718974717	22
5	661	2178.737279416636	20
5	666	2200.142223796436	21
5	668	2206.479228288156	22
5	681	2243.966645415123	19
5	691	2289.456685654084	19
5	711	2334.274585335703	18
5	713	2337.862732968669	19
5	728	2417.264288671462	16
5	731	2420.103817230247	16
5	736	2438.517821804166	16
5	740	2446.153381351841	16
5	744	2468.901182745237	15
5	748	2476.247887159422	16
5	753	2485.857740589476	17
5	759	2496.823278525822	18
6	98	359.003071054675	4
6	104	367.74630426796	4
6	109	378.970502837802	4
6	111	391.169471374476	5
6	112	414.471515578882	5
6	118	423.221166160287	5
6	122	434.381311076344	6
6	129	448.345783329162	6
6	131	449.59413393297	6
6	133	452.002798069302	7
6	138	455.845230126606	8
6	146	460.760654709932	9
6	148	464.667801568133	10
6	158	526.153673310609	10
6	160	527.819683845348	10
6	168	554.286447259523	11
6	169	554.829479382614	11
6	173	607.238823872874	10
6	175	611.703968100946	10
6	176	621.685411794458	10
6	178	621.915186247234	10
6	186	664.626837990532	11
6	188	678.978026370229	12
6	198	697.808375567043	12
6	200	699.770402799937	12
6	202	700.607388617466	13
6	204	705.418901232367	14
6	205	705.817972812715	14
6	206	715.347261653106	13
6	208	718.275479158457	13
6	209	719.47803277116	13
6	214	738.533274854219	13
6	216	738.750825634387	14
6	218	741.747438690889	15
6	228	771.744997269049	15
6	230	774.049440807661	15
6	235	786.325223749095	16
6	237	789.358852411015	17
6	256	830.766615603469	18
6	258	831.556174588539	18
6	259	836.68692524098	17
6	261	837.744276580365	17
6	263	843.724538534436	18
6	264	851.970048673613	18
6	265	857.368904057898	17
6	272	872.113128375138	16
6	279	882.260143065254	16
6	285	904.12375021985	17
6	286	935.720956468756	17
6	288	936.311796093955	17
6	289	951.576061683734	17
6	290	955.437327906465	16
6	291	958.49185828771	15
6	292	961.476045323154	14
6	294	976.019797614316	14
6	296	985.800728474048	15
6	300	989.024020966272	16
6	302	993.578242674858	16
6	303	999.349186664956	15
6	304	1009.116381324417	14
6	305	1010.058185705564	13
6	306	1014.229274729157	12
6	307	1023.689240035003	11
6	309	1025.550521954014	11
6	310	1030.638801235341	11
6	312	1042.104673704057	11
6	316	1049.963758189643	11
6	318	1051.086508261607	11
6	319	1054.40944646014	11
6	321	1054.553473355181	11
6	325	1065.675967565934	11
6	326	1065.932457369317	10
6	327	1091.560844976433	9
6	334	1102.325333824134	9
6	338	1106.121804560602	10
6	343	1111.312846825878	11
6	347	1113.509656661772	12
6	351	1121.288249694131	12
6	356	1126.74035772644	12
6	358	1131.276803673429	13
6	368	1152.751557346989	14
6	377	1164.897894994988	15
6	378	1167.738294603416	15
6	383	1169.766449288594	15
6	388	1201.419926127676	16
6	389	1203.840994255839	16
6	390	1206.517331834173	15
6	391	1224.898929727428	14
6	392	1248.171576049739	13
6	393	1249.929116536221	12
6	400	1279.495924487559	11
6	402	1281.702833692386	11
6	424	1372.079146141911	11
6	426	1375.523236468425	11
6	428	1377.455862657941	12
6	432	1410.152741444483	13
6	438	1431.896018401005	14
6	440	1441.373533690761	15
6	445	1447.598183137013	16
6	446	1452.872807497531	16
6	448	1462.100743388035	16
6	449	1465.203862029182	16
6	451	1476.430381469665	16
6	453	1477.64447604901	17
6	455	1488.136574473577	18
6	456	1500.300332898802	18
6	458	1512.969769244725	18
6	462	1522.946770444658	19
6	464	1524.452188551836	20
6	466	1561.234042733318	20
6	476	1577.183259778008	19
6	478	1599.449152650376	19
6	479	1600.137179628829	19
6	480	1604.453019174954	18
6	484	1630.731897171155	17
6	485	1639.911986879485	16
6	489	1642.294494026135	16
6	495	1647.602845010542	17
6	496	1655.722834405846	17
6	500	1673.499609092381	17
6	506	1706.157806384642	18
6	507	1706.190022272358	18
6	508	1713.486130832554	17
6	509	1715.238205791163	16
6	519	1741.996941399128	16
6	531	1761.661467847906	17
6	532	1763.597294054016	17
6	537	1786.434870389285	17
6	547	1806.708808937218	17
6	548	1806.733854997551	16
6	550	1813.337733993823	16
6	551	1815.74692988273	16
6	555	1817.810745634858	15
6	560	1837.246581146819	15
6	562	1838.496698959812	16
6	563	1852.543035746792	16
6	564	1882.256132813517	15
6	565	1883.739172816511	14
6	575	1891.711295452115	14
6	578	1893.376222976262	15
6	579	1897.971594765455	15
6	580	1911.178301291462	14
6	581	1914.159112148682	13
6	586	1936.062246616181	13
6	588	1940.304813438702	14
6	590	1942.300600864968	15
6	604	1976.786867995165	16
6	612	1988.98124736565	17
6	622	2012.579976303745	17
6	632	2049.332374752114	16
6	639	2054.250451223253	16
6	642	2067.824431952267	17
6	643	2077.011601347104	17
6	645	2086.6169128732	17
6	647	2088.924535254629	18
6	649	2091.265696360181	19
6	651	2094.60413824651	20
6	653	2095.675718974717	21
6	654	2100.385239317882	21
6	655	2110.659487737623	20
6	656	2112.609960932165	19
6	661	2178.737279416636	19
6	666	2200.142223796436	20
6	668	2206.479228288156	21
6	669	2222.705254152201	21
6	670	2227.361242905482	20
6	671	2228.400501660986	19
6	672	2233.484148321964	18
6	681	2243.966645415123	18
6	684	2263.704271118075	18
6	691	2289.456685654084	18
6	708	2331.684433086927	18
6	709	2332.546650516711	17
6	711	2334.274585335703	17
6	713	2337.862732968669	18
6	720	2376.142504710628	18
6	724	2389.524175203081	17
6	725	2393.940883956522	16
6	726	2414.785721932298	15
6	728	2417.264288671462	15
6	729	2418.366388863939	15
6	731	2420.103817230247	15
6	732	2422.707968158651	15
6	736	2438.517821804166	15
6	738	2440.004088832638	15
6	740	2446.153381351841	15
6	741	2449.396794276776	15
6	742	2459.832946071205	14
6	744	2468.901182745237	14
6	748	2476.247887159422	15
6	753	2485.857740589476	16
6	759	2496.823278525822	17
7	100	360.840730880303	71.146915507896
7	103	364.044651780711	69.6839541865
7	104	367.74630426796	45.018847133654
7	107	373.555792740197	25.453379107464
7	112	414.471515578882	55.468444524207
7	120	425.690334947151	63.252060883311
7	125	435.247362846874	62.789531040773
7	128	442.629286042572	63.65878320477
7	129	448.345783329162	57.176311954686
7	136	454.680638742847	33.449601879122
7	144	460.059772754892	36.838606594605
7	151	491.56230264302	57.180991566676
7	154	501.458403328275	67.060714066078
7	157	509.311842301483	69.701178329491
7	158	526.153673310609	76.559539377639
7	163	536.456982703649	84.454184634347
7	166	540.961862986346	87.168336463292
7	169	554.829479382614	98.984249256008
7	172	580.080156630534	122.25798997432
7	173	607.238823872874	146.47816916294
7	176	621.685411794458	157.01761022632
7	181	625.314731056816	135.28287461084
7	184	634.143849564229	132.99728396702
7	194	687.54295147865	179.54401098819
7	197	692.825144600551	165.0054607552
7	198	697.808375567043	162.42328870042
7	205	705.817972812715	169.1702750624
7	206	715.347261653106	161.06081439358
7	209	719.47803277116	142.46996905708
7	212	728.292315493266	116.58834739232
7	221	743.366342145457	121.45115589822
7	224	753.339908130538	128.18416246271
7	227	759.478365974249	126.50126063357
7	228	771.744997269049	107.11815927852
7	233	776.620836529077	97.642810158848
7	243	801.481305959501	118.52020201685
7	246	811.969748877623	123.5518627855
7	249	814.590044308389	114.81964150845
7	257	831.47887463622	130.87148601875
7	258	831.556174588539	126.13727335617
7	259	836.68692524098	118.41144608252
7	264	851.970048673613	131.15148105081
7	265	857.368904057898	118.83562920368
7	268	862.359529853422	123.60870421903
7	271	870.32358791427	128.57614922338
7	272	872.113128375138	129.76612090527
7	275	876.920086032492	124.52809665687
7	280	886.677766979848	130.78044249535
7	283	897.342693874852	123.29325306719
7	286	935.720956468756	160.05886808525
7	289	951.576061683734	165.25083793464
7	290	955.437327906465	166.07847549545
7	291	958.49185828771	168.41132345483
7	292	961.476045323154	154.42472005983
7	301	989.826417129642	175.64422571506
7	302	993.578242674858	173.92690349611
7	303	999.349186664956	168.58257106149
7	304	1009.116381324417	171.37210474405
7	305	1010.058185705564	166.33364717113
7	306	1014.229274729157	153.2324677358
7	307	1023.689240035003	153.38140728538
7	310	1030.638801235341	155.87886081577
7	315	1046.253972838946	165.40654818948
7	316	1049.963758189643	167.70361512439
7	319	1054.40944646014	161.33929007977
7	324	1058.311051060231	154.18730084038
7	325	1065.675967565934	129.36417147198
7	326	1065.932457369317	89.912659755001
7	327	1091.560844976433	105.76011650239
7	330	1096.50999612191	110.2553295665
7	350	1120.126271509793	131.10225054352
7	351	1121.288249694131	95.737727740117
7	354	1126.664683803419	84.560010099362
7	364	1146.800476698777	100.96053001124
7	372	1158.868688924534	107.78218066293
7	375	1163.91692196453	109.36344860935
7	378	1167.738294603416	111.84300610268
7	381	1169.218277021938	75.09024204441
7	386	1190.473644280267	88.99553453514
7	389	1203.840994255839	101.51566043171
7	390	1206.517331834173	100.39552727357
7	391	1224.898929727428	113.58608290155
7	392	1248.171576049739	134.66191938797
7	393	1249.929116536221	123.85106188249
7	396	1261.294787979215	134.55443025278
7	399	1265.713861669569	134.43705799614
7	400	1279.495924487559	142.21698689469
7	405	1286.766241966151	136.01709140724
7	408	1300.172594496093	147.4210371491
7	411	1343.174192867803	179.34418368706
7	417	1361.105459783558	196.20756478857
7	420	1365.304686132419	196.11838506834
7	423	1368.167160639113	198.40071135052
7	424	1372.079146141911	183.4124741316
7	433	1415.509935927296	214.09000979962
7	436	1431.300837469636	176.46339544544
7	443	1446.402052691325	181.96601095731
7	446	1452.872807497531	171.16997380514
7	449	1465.203862029182	181.64254428562
7	456	1500.300332898802	205.37619104048
7	465	1524.789186250763	190.17019944327
7	466	1561.234042733318	209.78481261151
7	475	1570.425517349655	206.41764896679
7	476	1577.183259778008	209.94878928201
7	479	1600.137179628829	224.6139431604
7	480	1604.453019174954	226.99715651701
7	483	1615.713682218352	208.09037411278
7	484	1630.731897171155	220.57915572667
7	485	1639.911986879485	209.95875568228
7	490	1642.341286960722	210.44526855972
7	493	1643.495393411498	202.12185972074
7	496	1655.722834405846	210.4328165484
7	501	1676.523020433925	228.92483729691
7	504	1701.835736364788	239.73499297675
7	507	1706.190022272358	229.75964080269
7	508	1713.486130832554	235.84165478354
7	509	1715.238205791163	227.10163131759
7	512	1726.54863080772	213.578861563
7	515	1727.560591540316	205.01360650361
7	520	1742.2593230734	219.31255262874
7	523	1749.15058837968	224.69839982784
7	526	1750.507803630171	185.77571384716
7	529	1755.798255850735	156.34910320036
7	532	1763.597294054016	148.78154139172
7	535	1786.102859916614	144.37934970222
7	540	1800.602801962386	158.30830793625
7	543	1803.495681189545	160.57608135414
7	546	1804.515631972997	156.91278696245
7	547	1806.708808937218	134.39960145839
7	548	1806.733854997551	133.23424590517
7	551	1815.74692988273	115.25338600304
7	554	1817.505380042537	111.34757365789
7	555	1817.810745634858	92.038940887061
7	558	1833.104758496183	105.99727151062
7	563	1852.543035746792	110.77792881189
7	564	1882.256132813517	140.25919141439
7	565	1883.739172816511	136.06694564013
7	576	1892.589139227382	142.42336822374
7	579	1897.971594765455	144.0886815336
7	580	1911.178301291462	149.51683344356
7	581	1914.159112148682	128.30233494278
7	584	1917.04263269882	130.60776230953
7	610	1987.122710780611	196.92451062439
7	615	1990.319899497849	188.52967207348
7	621	2008.759425209892	204.71574637486
7	622	2012.579976303745	199.24224230992
7	631	2038.099915075934	221.87367989423
7	632	2049.332374752114	218.39382900893
7	640	2056.703954045688	219.45737289887
7	643	2077.011601347104	238.51490238729
7	654	2100.385239317882	216.19831663002
7	655	2110.659487737623	218.94819228551
7	656	2112.609960932165	219.2337379559
7	659	2170.0566118399	254.10655644907
7	664	2193.649756425967	257.58750980979
7	669	2222.705254152201	282.4004407135
7	670	2227.361242905482	285.06064204051
7	671	2228.400501660986	281.27436885483
7	672	2233.484148321964	256.6972803268
7	675	2239.313447090803	250.33219972515
7	683	2245.457452383368	256.21976624098
7	684	2263.704271118075	269.5236769365
7	692	2291.053271152452	258.73785765286
7	698	2315.083187297685	265.00719211245
7	701	2315.431252843134	261.18080161988
7	707	2328.8502787798	261.02584682753
7	708	2331.684433086927	245.06752021373
7	709	2332.546650516711	243.62211526208
7	716	2341.985681021687	250.71998466151
7	719	2359.678351622561	265.07421337605
7	720	2376.142504710628	280.46678573591
7	723	2382.139332703699	215.59190868445
7	724	2389.524175203081	210.78689578645
7	725	2393.940883956522	203.42411082776
7	726	2414.785721932298	214.64349813586
7	729	2418.366388863939	211.88716057578
7	732	2422.707968158651	184.36532323401
7	737	2438.576114483554	197.0392494407
7	738	2440.004088832638	196.03744341751
7	741	2449.396794276776	166.00471748331
7	742	2459.832946071205	170.37626041712
7	754	2493.38599209731	195.01218649252
7	757	2496.28766120513	181.03892276032
8	102	362.43827406384	11
8	106	372.457831806101	12
8	114	421.231036863725	13
8	124	434.397689262197	14
8	127	439.610663971992	15
8	135	453.793526523054	16
8	140	457.822166656212	17
8	150	490.031856445978	18
8	153	501.146565597212	19
8	156	507.998940490456	20
8	162	535.385086866618	21
8	165	536.647697750317	22
8	171	577.008063714078	23
8	180	625.155745667831	24
8	183	632.977105340681	25
8	190	682.961103942653	26
8	196	688.41788609212	27
8	211	720.818567622802	28
8	220	742.34700746987	29
8	223	752.391989375619	30
8	226	755.897324484502	31
8	232	775.662088383508	32
8	239	790.080534832881	33
8	245	807.051325263327	34
8	248	814.182191414584	35
8	251	819.651339178744	36
8	267	860.996806993361	37
8	270	870.307832749627	38
8	274	874.759940419569	39
8	277	880.847424649465	40
8	282	893.070156380368	41
8	298	986.254666555407	42
8	314	1045.839946687533	43
8	323	1055.895288500736	44
8	329	1094.128034977528	45
8	332	1101.478109745127	46
8	353	1126.078054653729	47
8	360	1137.278937592869	48
8	366	1150.749150558914	49
8	374	1163.830009180747	50
8	380	1169.18630106408	51
8	385	1188.666672010308	52
8	395	1254.837442024195	53
8	398	1264.436041734011	54
8	404	1283.561317743566	55
8	407	1294.924141858317	56
8	410	1334.618986807489	57
8	413	1351.449230121806	58
8	419	1364.007868382867	59
8	422	1367.234470496	60
8	430	1407.623308105574	61
8	435	1429.953231197204	62
8	442	1445.290017857441	63
8	460	1522.546985036706	64
8	468	1564.732089783015	65
8	482	1614.815752662296	66
8	487	1641.723510214391	67
8	492	1642.919599835408	68
8	498	1672.309207478826	69
8	503	1700.493543879694	70
8	511	1725.771804747797	71
8	514	1727.107486985558	72
8	517	1741.765106934903	73
8	522	1747.672227176383	74
8	525	1750.165771003638	75
8	528	1753.882913231852	76
8	534	1785.856777205899	77
8	539	1790.198200156219	78
8	542	1801.790227424367	79
8	545	1804.043678835036	80
8	553	1816.226235181707	81
8	557	1830.93854574318	82
8	567	1884.186922687865	83
8	583	1915.950055390832	84
8	592	1947.126132806161	85
8	614	1989.237686142385	86
8	617	1994.180594181578	87
8	624	2032.315413499591	88
8	634	2050.075995185237	89
8	658	2166.547424019246	90
8	663	2190.516773128762	91
8	674	2238.342644924639	92
8	677	2241.536865042855	93
8	686	2283.392076793466	94
8	694	2298.37380560479	95
8	700	2315.248738444814	96
8	703	2320.865879407701	97
8	715	2341.447019352221	98
8	718	2355.084277993321	99
8	722	2379.095213703034	100
8	734	2437.703142205419	101
8	746	2475.022752058164	102
8	756	2493.644976029564	103
9	104	367.74630426796	17
9	112	414.471515578882	18
9	129	448.345783329162	19
9	158	526.153673310609	20
9	169	554.829479382614	21
9	173	607.238823872874	22
9	176	621.685411794458	23
9	198	697.808375567043	24
9	205	705.817972812715	25
9	206	715.347261653106	26
9	209	719.47803277116	27
9	228	771.744997269049	28
9	258	831.556174588539	29
9	259	836.68692524098	30
9	264	851.970048673613	31
9	265	857.368904057898	32
9	272	872.113128375138	33
9	286	935.720956468756	34
9	289	951.576061683734	35
9	290	955.437327906465	36
9	291	958.49185828771	37
9	292	961.476045323154	38
9	302	993.578242674858	39
9	303	999.349186664956	40
9	304	1009.116381324417	41
9	305	1010.058185705564	42
9	306	1014.229274729157	43
9	307	1023.689240035003	44
9	310	1030.638801235341	45
9	316	1049.963758189643	46
9	319	1054.40944646014	47
9	325	1065.675967565934	48
9	326	1065.932457369317	49
9	327	1091.560844976433	50
9	351	1121.288249694131	51
9	378	1167.738294603416	52
9	389	1203.840994255839	53
9	390	1206.517331834173	54
9	391	1224.898929727428	55
9	392	1248.171576049739	56
9	393	1249.929116536221	57
9	400	1279.495924487559	58
9	424	1372.079146141911	59
9	446	1452.872807497531	60
9	449	1465.203862029182	61
9	456	1500.300332898802	62
9	466	1561.234042733318	63
9	476	1577.183259778008	64
9	479	1600.137179628829	65
9	480	1604.453019174954	66
9	484	1630.731897171155	67
9	485	1639.911986879485	68
9	496	1655.722834405846	69
9	507	1706.190022272358	70
9	508	1713.486130832554	71
9	509	1715.238205791163	72
9	532	1763.597294054016	73
9	547	1806.708808937218	74
9	548	1806.733854997551	75
9	551	1815.74692988273	76
9	555	1817.810745634858	77
9	563	1852.543035746792	78
9	564	1882.256132813517	79
9	565	1883.739172816511	80
9	579	1897.971594765455	81
9	580	1911.178301291462	82
9	581	1914.159112148682	83
9	622	2012.579976303745	84
9	632	2049.332374752114	85
9	643	2077.011601347104	86
9	654	2100.385239317882	87
9	655	2110.659487737623	88
9	656	2112.609960932165	89
9	669	2222.705254152201	90
9	670	2227.361242905482	91
9	671	2228.400501660986	92
9	672	2233.484148321964	93
9	684	2263.704271118075	94
9	708	2331.684433086927	95
9	709	2332.546650516711	96
9	720	2376.142504710628	97
9	724	2389.524175203081	98
9	725	2393.940883956522	99
9	726	2414.785721932298	100
9	729	2418.366388863939	101
9	732	2422.707968158651	102
9	738	2440.004088832638	103
9	741	2449.396794276776	104
9	742	2459.832946071205	105
10	104	367.74630426796	73.385606673749
10	112	414.471515578882	66.369101946149
10	129	448.345783329162	69.37528049136
10	158	526.153673310609	86.543009338617
10	169	554.829479382614	101.03595285956
10	173	607.238823872874	149.41665721666
10	176	621.685411794458	160.92475708453
10	198	697.808375567043	169.9886917217
10	205	705.817972812715	170.4328859461
10	206	715.347261653106	178.69956390279
10	209	719.47803277116	165.19158551164
10	228	771.744997269049	138.76789192837
10	258	831.556174588539	130.94878597107
10	259	836.68692524098	131.26802400861
10	264	851.970048673613	133.69456951516
10	265	857.368904057898	136.5503364351
10	272	872.113128375138	130.36568968425
10	286	935.720956468756	161.67151566109
10	289	951.576061683734	175.91397330023
10	290	955.437327906465	169.11210415737
10	291	958.49185828771	169.13300587669
10	292	961.476045323154	171.39551049027
10	302	993.578242674858	179.39605126027
10	303	999.349186664956	179.69784748621
10	304	1009.116381324417	178.34976572095
10	305	1010.058185705564	172.3139091252
10	306	1014.229274729157	170.50473619472
10	307	1023.689240035003	162.69243304164
10	310	1030.638801235341	160.33096848571
10	316	1049.963758189643	169.11633354018
10	319	1054.40944646014	172.14930339489
10	325	1065.675967565934	161.55221734608
10	326	1065.932457369317	129.62066127536
10	327	1091.560844976433	115.54104736212
10	351	1121.288249694131	132.26422872786
10	378	1167.738294603416	113.18482124823
10	389	1203.840994255839	102.36288451071
10	390	1206.517331834173	104.19199801004
10	391	1224.898929727428	118.77712516683
10	392	1248.171576049739	136.85872922386
10	393	1249.929116536221	136.41945987445
10	400	1279.495924487559	148.21912081413
10	424	1372.079146141911	202.31269685332
10	446	1452.872807497531	188.43676576352
10	449	1465.203862029182	183.5010283368
10	456	1500.300332898802	216.73901515524
10	466	1561.234042733318	226.61505592583
10	476	1577.183259778008	213.17539139514
10	479	1600.137179628829	232.90270913283
10	480	1604.453019174954	228.92978270653
10	484	1630.731897171155	223.10858906558
10	485	1639.911986879485	229.759245435
10	496	1655.722834405846	214.34930071509
10	507	1706.190022272358	244.08927888432
10	508	1713.486130832554	237.05574936289
10	509	1715.238205791163	237.59372974215
10	532	1763.597294054016	164.14814140364
10	547	1806.708808937218	159.10596392668
10	548	1806.733854997551	134.42464751873
10	551	1815.74692988273	142.24732079035
10	555	1817.810745634858	111.65293925022
10	563	1852.543035746792	125.43554876123
10	564	1882.256132813517	140.49102587861
10	565	1883.739172816511	141.74223141738
10	579	1897.971594765455	147.80582376182
10	580	1911.178301291462	157.29538805961
10	581	1914.159112148682	152.49764430078
10	622	2012.579976303745	208.53629746871
10	632	2049.332374752114	233.10613957041
10	643	2077.011601347104	239.76502020028
10	654	2100.385239317882	261.88854035807
10	655	2110.659487737623	226.47256504976
10	656	2112.609960932165	220.89866548005
10	669	2222.705254152201	286.64300753602
10	670	2227.361242905482	287.05642946678
10	671	2228.400501660986	286.09990079602
10	672	2233.484148321964	286.3580155158
10	684	2263.704271118075	274.46658497569
10	708	2331.684433086927	263.86000113466
10	709	2332.546650516711	245.92973764351
10	720	2376.142504710628	281.53836646412
10	724	2389.524175203081	222.97675118384
10	725	2393.940883956522	215.20360453989
10	726	2414.785721932298	224.26894880354
10	729	2418.366388863939	218.2241650675
10	732	2422.707968158651	216.22873987049
10	738	2440.004088832638	198.46722378978
10	741	2449.396794276776	205.43014886165
10	742	2459.832946071205	176.44086927774
11	760	2500	0.042
12	760	2500	0.0544

