version 2
run factors_calibration_minions-211-20230303-19:02:42-26915
attr configname factors_calibration_minions
attr datetime 20230303-19:02:42
attr experiment factors_calibration_minions
attr inifile omnetpp.ini
attr iterationvars $0=15
attr iterationvarsf 15-
attr measurement $0=15
attr network Network
attr processid 26915
attr repetition 1
attr replication #1
attr resultdir results
attr runnumber 211
attr seedset 1
param *.minion.arrival_mean 20
param *.minion.service_mean 15
param *.boss.arrival_mean 20
param *.boss.service_mean 3
param *.player.recover_rate_x 100
param **.minion.arrival_distribution 0
param **.minion.service_distribution 0
param **.boss.arrival_distribution 0
param **.boss.service_distribution 0

vector 0 Network.player minion_defeated_stat:vector ETV
attr source signal_minion_defeated
vector 1 Network.player minion_jobs_queue_number_stat:vector ETV
attr source signal_minion_jobs_queue_number
vector 2 Network.player minion_response_time_stat:vector ETV
attr source signal_minion_response_time
vector 3 Network.player minion_waiting_time_stat:vector ETV
attr source signal_minion_waiting_time
vector 4 Network.player boss_jobs_number_stat:vector ETV
attr source signal_boss_jobs_number
vector 5 Network.player boss_jobs_queue_number_stat:vector ETV
attr source signal_boss_jobs_queue_number
vector 6 Network.player minion_recovered_stat:vector ETV
attr source signal_minion_recovered
vector 7 Network.player boss_waiting_time_stat:vector ETV
attr source signal_boss_waiting_time
vector 8 Network.player boss_defeated_stat:vector ETV
attr source signal_boss_defeated
vector 9 Network.player boss_response_time_stat:vector ETV
attr source signal_boss_response_time
vector 10 Network.player minion_jobs_number_stat:vector ETV
attr source signal_minion_jobs_number
vector 11 Network.player minion_throughput:vector ETV
attr source signal_minion_throughput
vector 12 Network.player boss_throughput:vector ETV
attr source signal_boss_throughput
0	85	364.561769314072	7
0	86	365.973479809003	8
0	90	377.252200031745	9
0	91	384.833220618777	10
0	117	488.194731021127	11
0	136	526.979598558482	12
0	137	530.314911337219	13
0	138	537.012643537492	14
0	142	551.310179586308	15
0	143	554.428854788835	16
0	153	574.412210351052	17
0	156	599.188131863612	18
0	164	668.726111279891	19
0	165	684.450270172099	20
0	166	704.566660666424	21
0	176	738.597557231765	22
0	182	748.533675651613	23
0	188	760.317905704188	24
0	207	829.569501445424	25
0	208	831.33269783794	26
0	214	852.655807121976	27
0	215	857.460672660309	28
0	219	866.439481589433	29
0	220	869.8647394107	30
0	221	877.887288955413	31
0	222	879.789377439374	32
0	223	885.055734500114	33
0	235	923.665491622352	34
0	241	948.299098442953	35
0	252	979.429632090913	36
0	253	992.436349175305	37
0	254	993.063724380806	38
0	265	1024.594184024973	39
0	269	1042.935664362422	40
0	275	1059.438114125	41
0	276	1059.658435541945	42
0	283	1098.141342998412	43
0	287	1103.505863553655	44
0	290	1107.063462120859	45
0	291	1108.533659642254	46
0	303	1151.218161021611	47
0	314	1184.933772366499	48
0	323	1195.613741819733	49
0	337	1216.691107012174	50
0	351	1291.408952030657	51
0	356	1317.598899175113	52
0	357	1329.959260484038	53
0	358	1358.185297492313	54
0	366	1402.389790003259	55
0	370	1407.689171034596	56
0	379	1449.734676279328	57
0	388	1493.059094416049	58
0	389	1502.793227756949	59
0	402	1537.632361912279	60
0	427	1609.568969120675	61
0	432	1627.620743813014	62
0	433	1629.468252946661	63
0	445	1672.94471231563	64
0	446	1687.3062802571	65
0	447	1687.654282434905	66
0	460	1720.201953563875	67
0	467	1740.170487634634	68
0	480	1767.036441870401	69
0	490	1798.135749237368	70
0	506	1846.978809851301	71
0	509	1851.477105379863	72
0	531	1910.946855596906	73
0	532	1913.57109686538	74
0	533	1916.445085236003	75
0	534	1932.788212592279	76
0	537	1963.447370155013	77
0	538	1966.790125394317	78
0	552	2007.29144798991	79
0	555	2023.214768432861	80
0	558	2036.064368624882	81
0	559	2045.573069700424	82
0	574	2085.585769827432	83
0	587	2120.870867370887	84
0	594	2146.7501529147	85
0	606	2167.271321390016	86
0	607	2172.519052032853	87
0	608	2184.379013317054	88
0	612	2215.367611874011	89
0	625	2261.862659640949	90
0	634	2280.756802008079	91
0	635	2281.19995762334	92
0	645	2304.416137858471	93
0	646	2310.003410838637	94
0	647	2311.775940559959	95
0	653	2319.153913216253	96
0	659	2347.109209325722	97
0	665	2361.471308231381	98
0	666	2369.78847264941	99
0	683	2414.015150173399	100
0	692	2434.560753545818	101
0	696	2450.511610770369	102
0	701	2475.957820802609	103
1	85	364.561769314072	5
1	86	365.973479809003	4
1	90	377.252200031745	3
1	91	384.833220618777	2
1	96	413.522371152632	2
1	100	418.607469929404	3
1	102	418.732464849942	4
1	105	442.706879885872	5
1	109	448.540209506301	6
1	117	488.194731021127	6
1	121	495.237938981881	6
1	127	506.649151814765	7
1	135	526.695009608897	8
1	136	526.979598558482	8
1	137	530.314911337219	7
1	138	537.012643537492	6
1	142	551.310179586308	5
1	143	554.428854788835	4
1	145	556.921545147073	4
1	147	557.024995231927	5
1	149	561.430076623054	6
1	153	574.412210351052	6
1	155	578.419383728595	6
1	156	599.188131863612	6
1	158	618.173883259001	6
1	160	627.146440730139	7
1	164	668.726111279891	7
1	165	684.450270172099	6
1	166	704.566660666424	5
1	168	709.114303711362	5
1	173	727.647789662424	6
1	175	731.226549265627	7
1	176	738.597557231765	7
1	178	741.170467744144	7
1	182	748.533675651613	7
1	187	759.36342179745	7
1	188	760.317905704188	7
1	195	792.784130399205	7
1	197	792.964664658513	8
1	200	811.92676134101	9
1	202	821.700585556025	10
1	204	827.898424355067	11
1	206	828.801720355674	12
1	207	829.569501445424	12
1	208	831.33269783794	11
1	213	849.453395225709	11
1	214	852.655807121976	11
1	215	857.460672660309	10
1	219	866.439481589433	9
1	220	869.8647394107	8
1	221	877.887288955413	7
1	222	879.789377439374	6
1	223	885.055734500114	5
1	232	912.223735443153	5
1	235	923.665491622352	5
1	240	945.550473709987	5
1	241	948.299098442953	5
1	243	957.009695240854	5
1	245	957.393856042021	6
1	252	979.429632090913	6
1	253	992.436349175305	5
1	254	993.063724380806	4
1	262	1016.903551711534	4
1	264	1017.715416334546	5
1	265	1024.594184024973	5
1	269	1042.935664362422	4
1	271	1048.5796187363	4
1	275	1059.438114125	4
1	276	1059.658435541945	3
1	283	1098.141342998412	2
1	287	1103.505863553655	1
1	289	1106.589458768386	1
1	290	1107.063462120859	1
1	291	1108.533659642254	0
1	302	1146.830993700598	0
1	303	1151.218161021611	0
1	305	1158.655416038477	0
1	307	1162.458428614436	1
1	309	1174.103018508379	2
1	311	1175.661137730965	3
1	313	1177.020495786142	4
1	314	1184.933772366499	4
1	322	1195.383481296702	4
1	323	1195.613741819733	4
1	325	1199.251808479429	4
1	329	1202.929596594843	5
1	337	1216.691107012174	5
1	339	1243.110414576503	5
1	344	1269.549044090867	6
1	351	1291.408952030657	6
1	353	1306.646623235685	6
1	355	1317.146596902355	7
1	356	1317.598899175113	7
1	357	1329.959260484038	6
1	358	1358.185297492313	5
1	360	1368.992824389582	5
1	362	1384.004487247193	6
1	366	1402.389790003259	6
1	370	1407.689171034596	5
1	375	1424.856109532767	5
1	379	1449.734676279328	5
1	384	1480.330804288638	5
1	388	1493.059094416049	5
1	389	1502.793227756949	4
1	394	1516.398140667754	4
1	396	1531.148321179496	5
1	401	1537.196712708701	6
1	402	1537.632361912279	6
1	404	1539.486832128788	6
1	406	1540.215095603573	7
1	408	1543.659908195743	8
1	410	1548.855090836086	9
1	415	1564.613157882811	10
1	417	1569.357514391458	11
1	419	1584.221248419707	12
1	421	1588.207850390552	13
1	426	1608.508550099433	14
1	427	1609.568969120675	14
1	429	1616.107895829412	14
1	431	1626.374318612026	15
1	432	1627.620743813014	15
1	433	1629.468252946661	14
1	435	1631.89040593195	14
1	440	1652.875715133112	15
1	442	1662.287581075118	16
1	444	1672.401026363119	17
1	445	1672.94471231563	17
1	446	1687.3062802571	16
1	447	1687.654282434905	15
1	451	1692.430591548377	15
1	457	1711.98945284709	16
1	459	1717.03658851845	17
1	460	1720.201953563875	17
1	467	1740.170487634634	16
1	472	1746.205716445087	16
1	474	1749.193153545876	17
1	476	1753.137161333183	18
1	480	1767.036441870401	18
1	482	1770.344680014507	18
1	484	1779.763185669275	19
1	489	1788.430409225503	20
1	490	1798.135749237368	20
1	492	1802.394932810685	20
1	497	1815.007785580813	21
1	502	1838.217565917945	22
1	506	1846.978809851301	22
1	508	1847.104794240978	22
1	509	1851.477105379863	22
1	511	1852.956801266764	22
1	513	1854.693445740317	23
1	520	1870.875422529317	24
1	523	1876.706804448741	25
1	528	1896.319701848825	26
1	530	1897.291021031516	27
1	531	1910.946855596906	27
1	532	1913.57109686538	26
1	533	1916.445085236003	25
1	534	1932.788212592279	24
1	536	1942.462607517821	24
1	537	1963.447370155013	24
1	538	1966.790125394317	23
1	545	1995.478995505452	23
1	548	2004.494111595623	24
1	552	2007.29144798991	24
1	554	2009.881561273762	24
1	555	2023.214768432861	24
1	557	2030.179326202476	24
1	558	2036.064368624882	24
1	559	2045.573069700424	23
1	564	2063.489434418954	23
1	568	2067.739600734677	24
1	570	2070.43725622838	25
1	573	2084.212158737342	26
1	574	2085.585769827432	26
1	576	2085.786668380702	26
1	578	2089.815420196444	27
1	583	2112.956454157344	28
1	587	2120.870867370887	28
1	594	2146.7501529147	27
1	605	2163.07081783849	27
1	606	2167.271321390016	27
1	607	2172.519052032853	26
1	608	2184.379013317054	25
1	612	2215.367611874011	24
1	614	2221.848039315651	24
1	619	2233.154452505848	25
1	621	2240.740854875321	26
1	625	2261.862659640949	26
1	630	2276.202133075111	26
1	634	2280.756802008079	26
1	635	2281.19995762334	25
1	645	2304.416137858471	24
1	646	2310.003410838637	23
1	647	2311.775940559959	22
1	652	2317.995538751649	22
1	653	2319.153913216253	22
1	655	2328.77922820628	22
1	659	2347.109209325722	22
1	661	2352.736763654774	22
1	665	2361.471308231381	22
1	666	2369.78847264941	21
1	674	2399.744472508327	21
1	679	2408.55719356416	22
1	683	2414.015150173399	22
1	685	2418.935196691193	22
1	692	2434.560753545818	22
1	696	2450.511610770369	21
1	698	2465.923719224845	21
1	700	2473.968361178586	22
1	701	2475.957820802609	22
1	706	2483.41390848375	22
2	85	364.561769314072	36.030649722188
2	86	365.973479809003	35.194913521932
2	90	377.252200031745	40.549445769939
2	91	384.833220618777	46.134908505392
2	117	488.194731021127	69.587261091723
2	136	526.979598558482	56.432728451257
2	137	530.314911337219	49.882915497063
2	138	537.012643537492	41.982913428499
2	142	551.310179586308	50.796612110936
2	143	554.428854788835	47.77970297407
2	153	574.412210351052	53.2199730481
2	156	599.188131863612	72.493122254715
2	164	668.726111279891	111.80456613282
2	165	684.450270172099	127.42527494017
2	166	704.566660666424	143.13658404337
2	176	738.597557231765	160.17817350317
2	182	748.533675651613	121.38723492147
2	188	760.317905704188	51.203601992826
2	207	829.569501445424	98.342952179797
2	208	831.33269783794	90.162230093796
2	214	852.655807121976	96.196871214828
2	215	857.460672660309	98.097250862859
2	219	866.439481589433	76.623691999007
2	220	869.8647394107	77.080609011495
2	221	877.887288955413	84.9226242969
2	222	879.789377439374	67.862616098364
2	223	885.055734500114	63.355148944089
2	235	923.665491622352	92.057011462507
2	241	948.299098442953	84.329025033778
2	252	979.429632090913	68.484853964249
2	253	992.436349175305	80.212613732152
2	254	993.063724380806	58.591639848378
2	265	1024.594184024973	67.200327982952
2	269	1042.935664362422	47.494639712132
2	275	1059.438114125	42.534562413466
2	276	1059.658435541945	41.943019207399
2	283	1098.141342998412	48.031097011965
2	287	1103.505863553655	17.011687773279
2	290	1107.063462120859	4.997936122249
2	291	1108.533659642254	1.944200873868
2	303	1151.218161021611	4.387167321013
2	314	1184.933772366499	26.278356328022
2	323	1195.613741819733	19.952604088768
2	337	1216.691107012174	21.307625715472
2	351	1291.408952030657	84.216857961145
2	356	1317.598899175113	105.51560092851
2	357	1329.959260484038	86.848845907535
2	358	1358.185297492313	111.17484236941
2	366	1402.389790003259	130.11366345778
2	370	1407.689171034596	101.04254779891
2	379	1449.734676279328	65.730189032135
2	388	1493.059094416049	83.743167932044
2	389	1502.793227756949	77.937118224182
2	402	1537.632361912279	57.301557623641
2	427	1609.568969120675	93.170828452921
2	432	1627.620743813014	96.472422633518
2	433	1629.468252946661	96.239730080523
2	445	1672.94471231563	133.45788018684
2	446	1687.3062802571	147.09118465353
2	447	1687.654282434905	143.99437423916
2	460	1720.201953563875	161.70377622533
2	467	1740.170487634634	155.94923921493
2	480	1767.036441870401	158.52789177097
2	490	1798.135749237368	171.76143062534
2	506	1846.978809851301	184.69122877618
2	509	1851.477105379863	179.07607901674
2	531	1910.946855596906	193.91026707846
2	532	1913.57109686538	181.82633103844
2	533	1916.445085236003	178.84953305912
2	534	1932.788212592279	187.8886849058
2	537	1963.447370155013	217.24165370993
2	538	1966.790125394317	217.59697184844
2	552	2007.29144798991	227.52826232064
2	555	2023.214768432861	240.65686187117
2	558	2036.064368624882	247.63395939938
2	559	2045.573069700424	243.17813688974
2	574	2085.585769827432	265.75156258563
2	587	2120.870867370887	273.76607312991
2	594	2146.7501529147	292.05670717438
2	606	2167.271321390016	290.56451694127
2	607	2172.519052032853	279.06591791687
2	608	2184.379013317054	288.05931146823
2	612	2215.367611874011	272.90500435619
2	625	2261.862659640949	266.3836641355
2	634	2280.756802008079	270.87524073432
2	635	2281.19995762334	251.02063142086
2	645	2304.416137858471	236.67653712379
2	646	2310.003410838637	239.56615461026
2	647	2311.775940559959	227.56378182262
2	653	2319.153913216253	229.33849301981
2	659	2347.109209325722	234.15275516838
2	665	2361.471308231381	237.60884425076
2	666	2369.78847264941	221.43713709919
2	683	2414.015150173399	192.16711085775
2	692	2434.560753545818	193.8198986705
2	696	2450.511610770369	180.04405084668
2	701	2475.957820802609	199.7556877275
3	85	364.561769314072	33.783203027001
3	86	365.973479809003	30.325705040904
3	89	371.453991932918	34.751237671112
3	90	377.252200031745	38.55388791836
3	91	384.833220618777	34.942688876466
3	94	406.509408367232	37.13415304996
3	103	419.199768774409	14.941194688274
3	110	450.012806512096	36.490435359464
3	113	475.431800350563	59.643124258762
3	116	481.637188722957	63.029718793553
3	117	488.194731021127	69.462266171185
3	122	496.468394841038	53.761514955166
3	125	502.010961826064	58.091285812989
3	130	518.013932491858	69.473722985557
3	133	524.557853269264	54.010983162039
3	136	526.979598558482	46.547602718326
3	137	530.314911337219	35.285181228226
3	138	537.012643537492	41.774704555611
3	141	542.944647879731	42.431080404359
3	142	551.310179586308	44.661027771543
3	143	554.428854788835	36.6195543651
3	152	571.043053795795	49.850816492843
3	153	574.412210351052	47.717200742155
3	156	599.188131863612	57.263129633958
3	163	667.463296369619	110.54175122255
3	164	668.726111279891	111.70111604796
3	165	684.450270172099	123.02019354905
3	166	704.566660666424	136.87073512697
3	171	712.91945025928	134.50006653068
3	176	738.597557231765	120.42367397276
3	181	744.366899363176	117.22045863304
3	182	748.533675651613	88.280697511575
3	185	757.732755564277	48.618451852915
3	188	760.317905704188	50.951275603262
3	191	768.925511069627	41.277721407203
3	198	797.773417104746	66.546867839119
3	207	829.569501445424	88.39903370128
3	208	831.33269783794	87.685848873336
3	211	839.638397418263	83.179461511115
3	214	852.655807121976	93.292385324526
3	215	857.460672660309	90.340280235093
3	218	864.883881781364	75.068092190938
3	219	866.439481589433	73.655351190228
3	220	869.8647394107	76.900074752187
3	221	877.887288955413	65.960527614403
3	222	879.789377439374	58.088791883349
3	223	885.055734500114	57.157310145047
3	226	898.763823659672	69.962103303998
3	234	917.865819862814	86.257339702969
3	235	923.665491622352	74.212096396643
3	238	935.354771149308	71.384697740133
3	241	948.299098442953	49.610918152014
3	251	974.546634909819	63.601856783155
3	252	979.429632090913	67.20589664776
3	253	992.436349175305	57.964264642877
3	254	993.063724380806	47.513250670819
3	257	996.226299239699	39.216603998845
3	260	1004.849872448906	47.456016406885
3	265	1024.594184024973	64.759889691208
3	268	1033.328625319383	37.887600669093
3	269	1042.935664362422	38.659465065925
3	274	1054.803116338813	37.899564627279
3	275	1059.438114125	41.722697790454
3	276	1059.658435541945	28.715282942377
3	279	1082.00286563172	33.42324689542
3	282	1094.818156598268	44.707910611821
3	283	1098.141342998412	23.333399611305
3	286	1102.494261275702	16.000085495326
3	287	1103.505863553655	1.440337555045
3	290	1107.063462120859	0.474003352473
3	302	1146.830993700598	0
3	305	1158.655416038477	0
3	314	1184.933772366499	22.475343752063
3	317	1191.061744849831	16.958726341452
3	320	1193.278589000761	17.617451269796
3	323	1195.613741819733	18.593246033591
3	330	1205.593921488627	18.695982057795
3	333	1207.836711200975	15.885171980436
3	336	1213.975240286854	18.591758990152
3	337	1216.691107012174	17.439298532745
3	342	1247.328116999044	45.051226252352
3	347	1272.963796627685	70.034200032842
3	350	1286.585822862833	79.393728793321
3	351	1291.408952030657	79.325653784059
3	356	1317.598899175113	74.48848459861
3	357	1329.959260484038	82.948805361135
3	358	1358.185297492313	88.636253401446
3	365	1389.656941549723	117.38081500425
3	366	1402.389790003259	117.78099816477
3	369	1406.265463698241	99.618840462556
3	370	1407.689171034596	90.542574132241
3	373	1410.713410070056	41.720585680474
3	378	1449.365573672711	65.361086425518
3	379	1449.734676279328	62.102277018425
3	382	1464.502118136665	61.090104412469
3	387	1490.77268134196	81.456754857955
3	388	1493.059094416049	68.202984883282
3	389	1502.793227756949	62.490702596912
3	392	1509.128839058297	46.573544323224
3	399	1534.199548034283	53.868743745645
3	402	1537.632361912279	48.146295009936
3	413	1563.957135881483	56.19489716365
3	424	1592.245247723026	75.847107055272
3	427	1609.568969120675	78.420647941179
3	432	1627.620743813014	94.392220946876
3	433	1629.468252946661	92.27154023796
3	438	1650.265856508141	110.77902437935
3	445	1672.94471231563	132.72961671206
3	446	1687.3062802571	143.64637206136
3	447	1687.654282434905	138.79919159882
3	455	1699.232988008306	140.73481066976
3	460	1720.201953563875	155.58879568106
3	463	1732.338571097943	162.98105670648
3	466	1740.145834835104	155.9245864154
3	467	1740.170487634634	151.96263724408
3	470	1745.361484873141	154.89074965109
3	479	1756.167722226921	147.65917212749
3	480	1767.036441870401	150.92854604099
3	487	1782.819512702863	156.44519409084
3	490	1798.135749237368	166.24534330542
3	495	1811.815639240773	165.94122108483
3	500	1822.211354219427	169.33563908631
3	505	1846.892536308663	184.60495523354
3	506	1846.978809851301	174.57778348818
3	509	1851.477105379863	162.87882809629
3	516	1859.385538718464	166.95494717009
3	521	1871.906157042771	159.91670419568
3	526	1894.449999957821	177.41341143937
3	531	1910.946855596906	179.20208976996
3	532	1913.57109686538	175.9755446885
3	533	1916.445085236003	171.54555754952
3	534	1932.788212592279	186.58249614719
3	537	1963.447370155013	214.25421660914
3	538	1966.790125394317	213.65296406113
3	541	1985.740955082631	230.54232777901
3	546	2001.054447721081	230.70976770657
3	551	2007.25819793647	227.49501226719
3	552	2007.29144798991	224.73354142822
3	555	2023.214768432861	234.78435920736
3	558	2036.064368624882	233.6694358142
3	559	2045.573069700424	235.56648856418
3	562	2059.53329112798	244.52550554717
3	571	2071.002935086909	251.16872784511
3	574	2085.585769827432	247.36820390949
3	581	2095.168364960419	249.58195528693
3	586	2119.870644779736	272.76585053876
3	587	2120.870867370887	267.91406610412
3	593	2143.823680152849	289.13023441253
3	594	2146.7501529147	288.47871513197
3	597	2153.084717257694	284.3921306266
3	600	2159.110690936988	288.23526840767
3	603	2161.003843097098	284.29703864836
3	606	2167.271321390016	273.81818727403
3	607	2172.519052032853	276.19935018403
3	608	2184.379013317054	287.08799228554
3	611	2193.266667039405	250.80405952158
3	612	2215.367611874011	231.01443544831
3	617	2229.082890631169	235.64311999701
3	624	2258.600111903432	263.12111639798
3	625	2261.862659640949	257.36854804533
3	628	2272.570826693135	267.15615237769
3	633	2278.812883829058	268.9313225553
3	634	2280.756802008079	250.5774758056
3	635	2281.19995762334	223.37066535499
3	638	2295.284871649293	231.79543723034
3	641	2299.577905987632	232.38663507871
3	644	2303.058637530282	235.31903679561
3	645	2304.416137858471	233.97888163009
3	646	2310.003410838637	225.79125210129
3	647	2311.775940559959	225.98927217926
3	650	2314.813759146036	224.99833894959
3	653	2319.153913216253	225.61330853265
3	658	2346.145745930588	233.18929177324
3	659	2347.109209325722	228.83671416267
3	664	2355.007310128843	231.14484614822
3	665	2361.471308231381	213.11997268116
3	666	2369.78847264941	211.27478726449
3	669	2373.986515515717	214.24427967432
3	672	2398.972736326885	235.90191848839
3	677	2408.002677672189	218.79016956475
3	682	2409.184274958822	187.33623564317
3	683	2414.015150173399	186.00373792681
3	688	2420.705112037529	187.55065953168
3	691	2430.718227613615	189.97737273829
3	692	2434.560753545818	177.60712788767
3	695	2448.000071701585	177.53251177789
3	696	2450.511610770369	174.30947769526
3	701	2475.957820802609	198.81268614523
3	704	2482.850411278459	190.49410632374
4	88	369.375255317272	1
4	93	404.258574086135	1
4	98	415.788676091801	1
4	107	443.919676013075	1
4	112	470.546870107225	1
4	115	480.431995840156	1
4	119	495.029730108993	1
4	124	500.513567475372	1
4	129	517.809300423735	1
4	132	521.192237302952	1
4	140	541.925002229654	1
4	151	567.695925539455	1
4	162	660.252978140038	1
4	170	709.366630100926	1
4	180	743.646848964604	1
4	184	756.458935907148	1
4	190	767.120392425216	1
4	193	789.815789590426	1
4	210	831.608480159845	1
4	217	863.970073409175	1
4	225	898.688180290939	1
4	228	910.944778126664	1
4	230	912.065066633432	2
4	237	934.472084532428	1
4	247	959.834294333765	1
4	249	963.034023953894	2
4	256	995.44102465029	1
4	259	1004.276199296497	1
4	267	1030.943152599568	1
4	273	1050.110245986447	1
4	278	1074.807943387107	1
4	281	1086.494175780376	1
4	285	1102.06552599861	1
4	293	1119.223715317434	1
4	296	1121.890324746436	1
4	298	1123.663479696237	2
4	316	1186.897939430832	1
4	319	1191.951539220539	1
4	327	1202.276890746692	1
4	332	1207.192094069512	1
4	335	1212.083298246598	1
4	341	1247.010455122903	1
4	346	1272.276126545475	1
4	349	1284.608791838486	1
4	364	1387.632399260903	1
4	368	1403.412013724196	1
4	372	1409.315926484005	1
4	377	1440.302525160037	1
4	381	1462.555294735073	1
4	386	1489.486066902343	1
4	391	1507.762238717833	1
4	398	1533.228522866138	1
4	412	1558.498177338543	1
4	423	1590.470735222049	1
4	437	1645.874418155944	1
4	449	1688.598277283569	1
4	453	1697.269698461538	2
4	462	1731.744765826945	1
4	465	1737.595552176882	1
4	469	1744.899527686484	1
4	478	1755.198627303625	1
4	486	1782.557906561692	1
4	494	1810.00658113624	1
4	499	1819.834207241802	1
4	504	1845.586409673488	1
4	515	1858.271437782732	1
4	518	1868.692586631094	1
4	525	1893.453134115984	1
4	540	1984.3531764257	1
4	543	1993.439770634155	1
4	550	2005.414674315447	1
4	561	2057.829292268349	1
4	566	2067.19127090892	1
4	580	2093.540604683601	1
4	585	2118.272495163052	1
4	589	2123.862463980623	1
4	591	2125.583614538701	2
4	596	2148.351335550223	1
4	599	2158.513685384924	1
4	602	2159.742235841395	1
4	610	2189.21250810744	1
4	616	2228.011412246586	1
4	623	2256.953625658148	1
4	627	2270.467559923692	1
4	632	2277.145134657383	1
4	637	2292.356304954715	1
4	640	2296.559424856657	1
4	643	2299.848805152245	1
4	649	2312.593632662147	1
4	657	2345.24593224152	1
4	663	2353.399464487008	1
4	668	2372.427930054302	1
4	671	2398.96845263205	1
4	676	2404.701489116181	1
4	681	2408.893875339512	1
4	687	2418.968326914021	1
4	690	2427.010862944216	1
4	694	2443.433928593672	1
4	703	2480.621220096792	1
4	708	2496.852317827315	1
5	88	369.375255317272	0
5	89	371.453991932918	0
5	93	404.258574086135	0
5	94	406.509408367232	0
5	98	415.788676091801	0
5	103	419.199768774409	0
5	107	443.919676013075	0
5	110	450.012806512096	0
5	112	470.546870107225	0
5	113	475.431800350563	0
5	115	480.431995840156	0
5	116	481.637188722957	0
5	119	495.029730108993	0
5	122	496.468394841038	0
5	124	500.513567475372	0
5	125	502.010961826064	0
5	129	517.809300423735	0
5	130	518.013932491858	0
5	132	521.192237302952	0
5	133	524.557853269264	0
5	140	541.925002229654	0
5	141	542.944647879731	0
5	151	567.695925539455	0
5	152	571.043053795795	0
5	162	660.252978140038	0
5	163	667.463296369619	0
5	170	709.366630100926	0
5	171	712.91945025928	0
5	180	743.646848964604	0
5	181	744.366899363176	0
5	184	756.458935907148	0
5	185	757.732755564277	0
5	190	767.120392425216	0
5	191	768.925511069627	0
5	193	789.815789590426	0
5	198	797.773417104746	0
5	210	831.608480159845	0
5	211	839.638397418263	0
5	217	863.970073409175	0
5	218	864.883881781364	0
5	225	898.688180290939	0
5	226	898.763823659672	0
5	228	910.944778126664	0
5	230	912.065066633432	1
5	233	915.112827925889	1
5	234	917.865819862814	0
5	237	934.472084532428	0
5	238	935.354771149308	0
5	247	959.834294333765	0
5	249	963.034023953894	1
5	250	968.829270877321	1
5	251	974.546634909819	0
5	256	995.44102465029	0
5	257	996.226299239699	0
5	259	1004.276199296497	0
5	260	1004.849872448906	0
5	267	1030.943152599568	0
5	268	1033.328625319383	0
5	273	1050.110245986447	0
5	274	1054.803116338813	0
5	278	1074.807943387107	0
5	279	1082.00286563172	0
5	281	1086.494175780376	0
5	282	1094.818156598268	0
5	285	1102.06552599861	0
5	286	1102.494261275702	0
5	293	1119.223715317434	0
5	294	1121.010828402232	0
5	296	1121.890324746436	0
5	298	1123.663479696237	1
5	299	1124.113637066932	1
5	300	1125.570327126604	0
5	316	1186.897939430832	0
5	317	1191.061744849831	0
5	319	1191.951539220539	0
5	320	1193.278589000761	0
5	327	1202.276890746692	0
5	330	1205.593921488627	0
5	332	1207.192094069512	0
5	333	1207.836711200975	0
5	335	1212.083298246598	0
5	336	1213.975240286854	0
5	341	1247.010455122903	0
5	342	1247.328116999044	0
5	346	1272.276126545475	0
5	347	1272.963796627685	0
5	349	1284.608791838486	0
5	350	1286.585822862833	0
5	364	1387.632399260903	0
5	365	1389.656941549723	0
5	368	1403.412013724196	0
5	369	1406.265463698241	0
5	372	1409.315926484005	0
5	373	1410.713410070056	0
5	377	1440.302525160037	0
5	378	1449.365573672711	0
5	381	1462.555294735073	0
5	382	1464.502118136665	0
5	386	1489.486066902343	0
5	387	1490.77268134196	0
5	391	1507.762238717833	0
5	392	1509.128839058297	0
5	398	1533.228522866138	0
5	399	1534.199548034283	0
5	412	1558.498177338543	0
5	413	1563.957135881483	0
5	423	1590.470735222049	0
5	424	1592.245247723026	0
5	437	1645.874418155944	0
5	438	1650.265856508141	0
5	449	1688.598277283569	0
5	453	1697.269698461538	1
5	454	1698.102378314375	1
5	455	1699.232988008306	0
5	462	1731.744765826945	0
5	463	1732.338571097943	0
5	465	1737.595552176882	0
5	466	1740.145834835104	0
5	469	1744.899527686484	0
5	470	1745.361484873141	0
5	478	1755.198627303625	0
5	479	1756.167722226921	0
5	486	1782.557906561692	0
5	487	1782.819512702863	0
5	494	1810.00658113624	0
5	495	1811.815639240773	0
5	499	1819.834207241802	0
5	500	1822.211354219427	0
5	504	1845.586409673488	0
5	505	1846.892536308663	0
5	515	1858.271437782732	0
5	516	1859.385538718464	0
5	518	1868.692586631094	0
5	521	1871.906157042771	0
5	525	1893.453134115984	0
5	526	1894.449999957821	0
5	540	1984.3531764257	0
5	541	1985.740955082631	0
5	543	1993.439770634155	0
5	546	2001.054447721081	0
5	550	2005.414674315447	0
5	551	2007.25819793647	0
5	561	2057.829292268349	0
5	562	2059.53329112798	0
5	566	2067.19127090892	0
5	571	2071.002935086909	0
5	580	2093.540604683601	0
5	581	2095.168364960419	0
5	585	2118.272495163052	0
5	586	2119.870644779736	0
5	589	2123.862463980623	0
5	591	2125.583614538701	1
5	592	2136.716759719314	1
5	593	2143.823680152849	0
5	596	2148.351335550223	0
5	597	2153.084717257694	0
5	599	2158.513685384924	0
5	600	2159.110690936988	0
5	602	2159.742235841395	0
5	603	2161.003843097098	0
5	610	2189.21250810744	0
5	611	2193.266667039405	0
5	616	2228.011412246586	0
5	617	2229.082890631169	0
5	623	2256.953625658148	0
5	624	2258.600111903432	0
5	627	2270.467559923692	0
5	628	2272.570826693135	0
5	632	2277.145134657383	0
5	633	2278.812883829058	0
5	637	2292.356304954715	0
5	638	2295.284871649293	0
5	640	2296.559424856657	0
5	641	2299.577905987632	0
5	643	2299.848805152245	0
5	644	2303.058637530282	0
5	649	2312.593632662147	0
5	650	2314.813759146036	0
5	657	2345.24593224152	0
5	658	2346.145745930588	0
5	663	2353.399464487008	0
5	664	2355.007310128843	0
5	668	2372.427930054302	0
5	669	2373.986515515717	0
5	671	2398.96845263205	0
5	672	2398.972736326885	0
5	676	2404.701489116181	0
5	677	2408.002677672189	0
5	681	2408.893875339512	0
5	682	2409.184274958822	0
5	687	2418.968326914021	0
5	688	2420.705112037529	0
5	690	2427.010862944216	0
5	691	2430.718227613615	0
5	694	2443.433928593672	0
5	695	2448.000071701585	0
5	703	2480.621220096792	0
5	704	2482.850411278459	0
5	708	2496.852317827315	0
6	88	369.375255317272	10
6	93	404.258574086135	11
6	98	415.788676091801	12
6	107	443.919676013075	13
6	112	470.546870107225	14
6	115	480.431995840156	15
6	119	495.029730108993	16
6	124	500.513567475372	17
6	129	517.809300423735	18
6	132	521.192237302952	19
6	140	541.925002229654	20
6	151	567.695925539455	21
6	162	660.252978140038	22
6	170	709.366630100926	23
6	180	743.646848964604	24
6	184	756.458935907148	25
6	190	767.120392425216	26
6	193	789.815789590426	27
6	210	831.608480159845	28
6	217	863.970073409175	29
6	225	898.688180290939	30
6	228	910.944778126664	31
6	237	934.472084532428	32
6	247	959.834294333765	33
6	256	995.44102465029	34
6	259	1004.276199296497	35
6	267	1030.943152599568	36
6	273	1050.110245986447	37
6	278	1074.807943387107	38
6	281	1086.494175780376	39
6	285	1102.06552599861	40
6	316	1186.897939430832	41
6	319	1191.951539220539	42
6	327	1202.276890746692	43
6	332	1207.192094069512	44
6	335	1212.083298246598	45
6	341	1247.010455122903	46
6	346	1272.276126545475	47
6	349	1284.608791838486	48
6	364	1387.632399260903	49
6	368	1403.412013724196	50
6	372	1409.315926484005	51
6	377	1440.302525160037	52
6	381	1462.555294735073	53
6	386	1489.486066902343	54
6	391	1507.762238717833	55
6	398	1533.228522866138	56
6	412	1558.498177338543	57
6	423	1590.470735222049	58
6	437	1645.874418155944	59
6	449	1688.598277283569	60
6	462	1731.744765826945	61
6	465	1737.595552176882	62
6	469	1744.899527686484	63
6	478	1755.198627303625	64
6	486	1782.557906561692	65
6	494	1810.00658113624	66
6	499	1819.834207241802	67
6	504	1845.586409673488	68
6	515	1858.271437782732	69
6	518	1868.692586631094	70
6	525	1893.453134115984	71
6	540	1984.3531764257	72
6	543	1993.439770634155	73
6	550	2005.414674315447	74
6	561	2057.829292268349	75
6	566	2067.19127090892	76
6	580	2093.540604683601	77
6	585	2118.272495163052	78
6	589	2123.862463980623	79
6	596	2148.351335550223	80
6	599	2158.513685384924	81
6	602	2159.742235841395	82
6	610	2189.21250810744	83
6	616	2228.011412246586	84
6	623	2256.953625658148	85
6	627	2270.467559923692	86
6	632	2277.145134657383	87
6	637	2292.356304954715	88
6	640	2296.559424856657	89
6	643	2299.848805152245	90
6	649	2312.593632662147	91
6	657	2345.24593224152	92
6	663	2353.399464487008	93
6	668	2372.427930054302	94
6	671	2398.96845263205	95
6	676	2404.701489116181	96
6	681	2408.893875339512	97
6	687	2418.968326914021	98
6	690	2427.010862944216	99
6	694	2443.433928593672	100
6	703	2480.621220096792	101
6	708	2496.852317827315	102
7	88	369.375255317272	0
7	93	404.258574086135	0
7	98	415.788676091801	0
7	107	443.919676013075	0
7	112	470.546870107225	0
7	115	480.431995840156	0
7	119	495.029730108993	0
7	124	500.513567475372	0
7	129	517.809300423735	0
7	132	521.192237302952	0
7	140	541.925002229654	0
7	151	567.695925539455	0
7	162	660.252978140038	0
7	170	709.366630100926	0
7	180	743.646848964604	0
7	184	756.458935907148	0
7	190	767.120392425216	0
7	193	789.815789590426	0
7	210	831.608480159845	0
7	217	863.970073409175	0
7	225	898.688180290939	0
7	228	910.944778126664	0
7	233	915.112827925889	3.047761292457
7	237	934.472084532428	0
7	247	959.834294333765	0
7	250	968.829270877321	5.795246923427
7	256	995.44102465029	0
7	259	1004.276199296497	0
7	267	1030.943152599568	0
7	273	1050.110245986447	0
7	278	1074.807943387107	0
7	281	1086.494175780376	0
7	285	1102.06552599861	0
7	293	1119.223715317434	0
7	296	1121.890324746436	0
7	299	1124.113637066932	0.450157370695
7	316	1186.897939430832	0
7	319	1191.951539220539	0
7	327	1202.276890746692	0
7	332	1207.192094069512	0
7	335	1212.083298246598	0
7	341	1247.010455122903	0
7	346	1272.276126545475	0
7	349	1284.608791838486	0
7	364	1387.632399260903	0
7	368	1403.412013724196	0
7	372	1409.315926484005	0
7	377	1440.302525160037	0
7	381	1462.555294735073	0
7	386	1489.486066902343	0
7	391	1507.762238717833	0
7	398	1533.228522866138	0
7	412	1558.498177338543	0
7	423	1590.470735222049	0
7	437	1645.874418155944	0
7	449	1688.598277283569	0
7	454	1698.102378314375	0.832679852837
7	462	1731.744765826945	0
7	465	1737.595552176882	0
7	469	1744.899527686484	0
7	478	1755.198627303625	0
7	486	1782.557906561692	0
7	494	1810.00658113624	0
7	499	1819.834207241802	0
7	504	1845.586409673488	0
7	515	1858.271437782732	0
7	518	1868.692586631094	0
7	525	1893.453134115984	0
7	540	1984.3531764257	0
7	543	1993.439770634155	0
7	550	2005.414674315447	0
7	561	2057.829292268349	0
7	566	2067.19127090892	0
7	580	2093.540604683601	0
7	585	2118.272495163052	0
7	589	2123.862463980623	0
7	592	2136.716759719314	11.133145180613
7	596	2148.351335550223	0
7	599	2158.513685384924	0
7	602	2159.742235841395	0
7	610	2189.21250810744	0
7	616	2228.011412246586	0
7	623	2256.953625658148	0
7	627	2270.467559923692	0
7	632	2277.145134657383	0
7	637	2292.356304954715	0
7	640	2296.559424856657	0
7	643	2299.848805152245	0
7	649	2312.593632662147	0
7	657	2345.24593224152	0
7	663	2353.399464487008	0
7	668	2372.427930054302	0
7	671	2398.96845263205	0
7	676	2404.701489116181	0
7	681	2408.893875339512	0
7	687	2418.968326914021	0
7	690	2427.010862944216	0
7	694	2443.433928593672	0
7	703	2480.621220096792	0
7	708	2496.852317827315	0
8	89	371.453991932918	19
8	94	406.509408367232	20
8	103	419.199768774409	21
8	110	450.012806512096	22
8	113	475.431800350563	23
8	116	481.637188722957	24
8	122	496.468394841038	25
8	125	502.010961826064	26
8	130	518.013932491858	27
8	133	524.557853269264	28
8	141	542.944647879731	29
8	152	571.043053795795	30
8	163	667.463296369619	31
8	171	712.91945025928	32
8	181	744.366899363176	33
8	185	757.732755564277	34
8	191	768.925511069627	35
8	198	797.773417104746	36
8	211	839.638397418263	37
8	218	864.883881781364	38
8	226	898.763823659672	39
8	233	915.112827925889	40
8	234	917.865819862814	41
8	238	935.354771149308	42
8	250	968.829270877321	43
8	251	974.546634909819	44
8	257	996.226299239699	45
8	260	1004.849872448906	46
8	268	1033.328625319383	47
8	274	1054.803116338813	48
8	279	1082.00286563172	49
8	282	1094.818156598268	50
8	286	1102.494261275702	51
8	294	1121.010828402232	52
8	299	1124.113637066932	53
8	300	1125.570327126604	54
8	317	1191.061744849831	55
8	320	1193.278589000761	56
8	330	1205.593921488627	57
8	333	1207.836711200975	58
8	336	1213.975240286854	59
8	342	1247.328116999044	60
8	347	1272.963796627685	61
8	350	1286.585822862833	62
8	365	1389.656941549723	63
8	369	1406.265463698241	64
8	373	1410.713410070056	65
8	378	1449.365573672711	66
8	382	1464.502118136665	67
8	387	1490.77268134196	68
8	392	1509.128839058297	69
8	399	1534.199548034283	70
8	413	1563.957135881483	71
8	424	1592.245247723026	72
8	438	1650.265856508141	73
8	454	1698.102378314375	74
8	455	1699.232988008306	75
8	463	1732.338571097943	76
8	466	1740.145834835104	77
8	470	1745.361484873141	78
8	479	1756.167722226921	79
8	487	1782.819512702863	80
8	495	1811.815639240773	81
8	500	1822.211354219427	82
8	505	1846.892536308663	83
8	516	1859.385538718464	84
8	521	1871.906157042771	85
8	526	1894.449999957821	86
8	541	1985.740955082631	87
8	546	2001.054447721081	88
8	551	2007.25819793647	89
8	562	2059.53329112798	90
8	571	2071.002935086909	91
8	581	2095.168364960419	92
8	586	2119.870644779736	93
8	592	2136.716759719314	94
8	593	2143.823680152849	95
8	597	2153.084717257694	96
8	600	2159.110690936988	97
8	603	2161.003843097098	98
8	611	2193.266667039405	99
8	617	2229.082890631169	100
8	624	2258.600111903432	101
8	628	2272.570826693135	102
8	633	2278.812883829058	103
8	638	2295.284871649293	104
8	641	2299.577905987632	105
8	644	2303.058637530282	106
8	650	2314.813759146036	107
8	658	2346.145745930588	108
8	664	2355.007310128843	109
8	669	2373.986515515717	110
8	672	2398.972736326885	111
8	677	2408.002677672189	112
8	682	2409.184274958822	113
8	688	2420.705112037529	114
8	691	2430.718227613615	115
8	695	2448.000071701585	116
8	704	2482.850411278459	117
9	89	371.453991932918	2.078736615646
9	94	406.509408367232	2.250834281097
9	103	419.199768774409	3.411092682608
9	110	450.012806512096	6.093130499021
9	113	475.431800350563	4.884930243338
9	116	481.637188722957	1.205192882801
9	122	496.468394841038	1.438664732045
9	125	502.010961826064	1.497394350692
9	130	518.013932491858	0.204632068123
9	133	524.557853269264	3.365615966312
9	141	542.944647879731	1.019645650077
9	152	571.043053795795	3.34712825634
9	163	667.463296369619	7.210318229581
9	171	712.91945025928	3.552820158354
9	181	744.366899363176	0.720050398572
9	185	757.732755564277	1.273819657129
9	191	768.925511069627	1.805118644411
9	198	797.773417104746	7.95762751432
9	211	839.638397418263	8.029917258418
9	218	864.883881781364	0.913808372189
9	226	898.763823659672	0.075643368733
9	233	915.112827925889	4.168049799225
9	234	917.865819862814	5.800753229382
9	238	935.354771149308	0.88268661688
9	250	968.829270877321	8.994976543556
9	251	974.546634909819	11.512610955925
9	257	996.226299239699	0.785274589409
9	260	1004.849872448906	0.573673152409
9	268	1033.328625319383	2.385472719815
9	274	1054.803116338813	4.692870352366
9	279	1082.00286563172	7.194922244613
9	282	1094.818156598268	8.323980817892
9	286	1102.494261275702	0.428735277092
9	294	1121.010828402232	1.787113084798
9	299	1124.113637066932	2.223312320496
9	300	1125.570327126604	1.906847430367
9	317	1191.061744849831	4.163805418999
9	320	1193.278589000761	1.327049780222
9	330	1205.593921488627	3.317030741935
9	333	1207.836711200975	0.644617131463
9	336	1213.975240286854	1.891942040256
9	342	1247.328116999044	0.317661876141
9	347	1272.963796627685	0.68767008221
9	350	1286.585822862833	1.977031024347
9	365	1389.656941549723	2.02454228882
9	369	1406.265463698241	2.853449974045
9	373	1410.713410070056	1.397483586051
9	378	1449.365573672711	9.063048512674
9	382	1464.502118136665	1.946823401592
9	387	1490.77268134196	1.286614439617
9	392	1509.128839058297	1.366600340464
9	399	1534.199548034283	0.971025168145
9	413	1563.957135881483	5.45895854294
9	424	1592.245247723026	1.774512500977
9	438	1650.265856508141	4.391438352197
9	454	1698.102378314375	9.504101030806
9	455	1699.232988008306	1.963289546768
9	463	1732.338571097943	0.593805270998
9	466	1740.145834835104	2.550282658222
9	470	1745.361484873141	0.461957186657
9	479	1756.167722226921	0.969094923296
9	487	1782.819512702863	0.261606141171
9	495	1811.815639240773	1.809058104533
9	500	1822.211354219427	2.377146977625
9	505	1846.892536308663	1.306126635175
9	516	1859.385538718464	1.114100935732
9	521	1871.906157042771	3.213570411677
9	526	1894.449999957821	0.996865841837
9	541	1985.740955082631	1.387778656931
9	546	2001.054447721081	7.614677086926
9	551	2007.25819793647	1.843523621023
9	562	2059.53329112798	1.703998859631
9	571	2071.002935086909	3.811664177989
9	581	2095.168364960419	1.627760276818
9	586	2119.870644779736	1.598149616684
9	592	2136.716759719314	12.854295738691
9	593	2143.823680152849	18.240065614148
9	597	2153.084717257694	4.733381707471
9	600	2159.110690936988	0.597005552064
9	603	2161.003843097098	1.261607255703
9	611	2193.266667039405	4.054158931965
9	617	2229.082890631169	1.071478384583
9	624	2258.600111903432	1.646486245284
9	628	2272.570826693135	2.103266769443
9	633	2278.812883829058	1.667749171675
9	638	2295.284871649293	2.928566694578
9	641	2299.577905987632	3.018481130975
9	644	2303.058637530282	3.209832378037
9	650	2314.813759146036	2.220126483889
9	658	2346.145745930588	0.899813689068
9	664	2355.007310128843	1.607845641835
9	669	2373.986515515717	1.558585461415
9	672	2398.972736326885	0.004283694835
9	677	2408.002677672189	3.301188556008
9	682	2409.184274958822	0.29039961931
9	688	2420.705112037529	1.736785123508
9	691	2430.718227613615	3.707364669399
9	695	2448.000071701585	4.566143107913
9	704	2482.850411278459	2.229191181667
10	96	413.522371152632	3
10	100	418.607469929404	4
10	102	418.732464849942	5
10	105	442.706879885872	6
10	109	448.540209506301	7
10	121	495.237938981881	7
10	127	506.649151814765	8
10	135	526.695009608897	9
10	145	556.921545147073	5
10	147	557.024995231927	6
10	149	561.430076623054	7
10	155	578.419383728595	7
10	158	618.173883259001	7
10	160	627.146440730139	8
10	168	709.114303711362	6
10	173	727.647789662424	7
10	175	731.226549265627	8
10	178	741.170467744144	8
10	187	759.36342179745	8
10	195	792.784130399205	8
10	197	792.964664658513	9
10	200	811.92676134101	10
10	202	821.700585556025	11
10	204	827.898424355067	12
10	206	828.801720355674	13
10	213	849.453395225709	12
10	232	912.223735443153	6
10	240	945.550473709987	6
10	243	957.009695240854	6
10	245	957.393856042021	7
10	262	1016.903551711534	5
10	264	1017.715416334546	6
10	271	1048.5796187363	5
10	289	1106.589458768386	2
10	302	1146.830993700598	1
10	305	1158.655416038477	1
10	307	1162.458428614436	2
10	309	1174.103018508379	3
10	311	1175.661137730965	4
10	313	1177.020495786142	5
10	322	1195.383481296702	5
10	325	1199.251808479429	5
10	329	1202.929596594843	6
10	339	1243.110414576503	6
10	344	1269.549044090867	7
10	353	1306.646623235685	7
10	355	1317.146596902355	8
10	360	1368.992824389582	6
10	362	1384.004487247193	7
10	375	1424.856109532767	6
10	384	1480.330804288638	6
10	394	1516.398140667754	5
10	396	1531.148321179496	6
10	401	1537.196712708701	7
10	404	1539.486832128788	7
10	406	1540.215095603573	8
10	408	1543.659908195743	9
10	410	1548.855090836086	10
10	415	1564.613157882811	11
10	417	1569.357514391458	12
10	419	1584.221248419707	13
10	421	1588.207850390552	14
10	426	1608.508550099433	15
10	429	1616.107895829412	15
10	431	1626.374318612026	16
10	435	1631.89040593195	15
10	440	1652.875715133112	16
10	442	1662.287581075118	17
10	444	1672.401026363119	18
10	451	1692.430591548377	16
10	457	1711.98945284709	17
10	459	1717.03658851845	18
10	472	1746.205716445087	17
10	474	1749.193153545876	18
10	476	1753.137161333183	19
10	482	1770.344680014507	19
10	484	1779.763185669275	20
10	489	1788.430409225503	21
10	492	1802.394932810685	21
10	497	1815.007785580813	22
10	502	1838.217565917945	23
10	508	1847.104794240978	23
10	511	1852.956801266764	23
10	513	1854.693445740317	24
10	520	1870.875422529317	25
10	523	1876.706804448741	26
10	528	1896.319701848825	27
10	530	1897.291021031516	28
10	536	1942.462607517821	25
10	545	1995.478995505452	24
10	548	2004.494111595623	25
10	554	2009.881561273762	25
10	557	2030.179326202476	25
10	564	2063.489434418954	24
10	568	2067.739600734677	25
10	570	2070.43725622838	26
10	573	2084.212158737342	27
10	576	2085.786668380702	27
10	578	2089.815420196444	28
10	583	2112.956454157344	29
10	605	2163.07081783849	28
10	614	2221.848039315651	25
10	619	2233.154452505848	26
10	621	2240.740854875321	27
10	630	2276.202133075111	27
10	652	2317.995538751649	23
10	655	2328.77922820628	23
10	661	2352.736763654774	23
10	674	2399.744472508327	22
10	679	2408.55719356416	23
10	685	2418.935196691193	23
10	698	2465.923719224845	22
10	700	2473.968361178586	23
10	706	2483.41390848375	23
11	709	2500	0.0412
12	709	2500	0.0468

