file 38389 1677866546                                           
version 2
run factors_calibration_minions-135-20230303-19:02:26-26532
attr configname factors_calibration_minions
attr datetime 20230303-19:02:26
attr experiment factors_calibration_minions
attr inifile omnetpp.ini
attr iterationvars $0=7
attr iterationvarsf 7-
attr measurement $0=7
attr network Network
attr processid 26532
attr repetition 15
attr replication #15
attr resultdir results
attr runnumber 135
attr seedset 15
param *.minion.arrival_mean 20
param *.minion.service_mean 7
param *.boss.arrival_mean 20
param *.boss.service_mean 3
param *.player.recover_rate_x 100
param **.minion.arrival_distribution 0
param **.minion.service_distribution 0
param **.boss.arrival_distribution 0
param **.boss.service_distribution 0

vector 0 Network.player minion_jobs_number_stat:vector ETV
attr source signal_minion_jobs_number
vector 1 Network.player minion_jobs_queue_number_stat:vector ETV
attr source signal_minion_jobs_queue_number
vector 2 Network.player minion_defeated_stat:vector ETV
attr source signal_minion_defeated
vector 3 Network.player minion_response_time_stat:vector ETV
attr source signal_minion_response_time
vector 4 Network.player minion_waiting_time_stat:vector ETV
attr source signal_minion_waiting_time
vector 5 Network.player boss_jobs_number_stat:vector ETV
attr source signal_boss_jobs_number
vector 6 Network.player boss_jobs_queue_number_stat:vector ETV
attr source signal_boss_jobs_queue_number
vector 7 Network.player boss_waiting_time_stat:vector ETV
attr source signal_boss_waiting_time
vector 8 Network.player boss_defeated_stat:vector ETV
attr source signal_boss_defeated
vector 9 Network.player boss_response_time_stat:vector ETV
attr source signal_boss_response_time
vector 10 Network.player minion_recovered_stat:vector ETV
attr source signal_minion_recovered
vector 11 Network.player minion_throughput:vector ETV
attr source signal_minion_throughput
vector 12 Network.player boss_throughput:vector ETV
attr source signal_boss_throughput
0	1975 2272 118 713 352.515911808299 2466.431946207917 89 1 5 149 317
1	4247 4568 118 714 352.515911808299 2468.618324800738 179 0 4 120 216
2	8815 2394 119 714 354.299335591245 2468.618324800738 90 18 107 5625 412305
3	11209 3497 119 714 354.299335591245 2468.618324800738 90 0.072794140225 36.133229988604 960.55106856027 15922.279126373
4	14706 4068 119 713 354.299335591245 2466.431946207917 117 0 31.975607984103 603.5674742951 8107.4657839517
5	18774 2812 122 709 390.19208526962 2439.323409864084 110 1 4 143 227
6	21586 5630 122 710 390.19208526962 2443.32940188304 220 0 3 66 102
7	27216 3150 122 709 390.19208526962 2439.323409864084 110 0 16.842579928416 103.43002461414 1075.6313149781
8	30366 2960 123 710 390.469919187415 2443.32940188304 110 22 131 8415 754655
9	33326 4252 123 710 390.469919187415 2443.32940188304 110 0.007749474045 21.152022117739 545.2365511839 5005.9866052942
10	37578 772 130 709 407.439532221909 2439.323409864084 28 13 40 742 21490
11	38350 19 715 715 2500 2500 1 0.0428 0.0428 0.0428 0.00183184
12	38369 19 715 715 2500 2500 1 0.0524 0.0524 0.0524 0.00274576

