file 42975 1677866520                                           
version 2
run factors_calibration_minions-9-20230303-19:02:00-25899
attr configname factors_calibration_minions
attr datetime 20230303-19:02:00
attr experiment factors_calibration_minions
attr inifile omnetpp.ini
attr iterationvars $0=1
attr iterationvarsf 1-
attr measurement $0=1
attr network Network
attr processid 25899
attr repetition 9
attr replication #9
attr resultdir results
attr runnumber 9
attr seedset 9
param *.minion.arrival_mean 20
param *.minion.service_mean 1
param *.boss.arrival_mean 20
param *.boss.service_mean 3
param *.player.recover_rate_x 100
param **.minion.arrival_distribution 0
param **.minion.service_distribution 0
param **.boss.arrival_distribution 0
param **.boss.service_distribution 0

vector 0 Network.player boss_defeated_stat:vector ETV
attr source signal_boss_defeated
vector 1 Network.player boss_jobs_queue_number_stat:vector ETV
attr source signal_boss_jobs_queue_number
vector 2 Network.player boss_response_time_stat:vector ETV
attr source signal_boss_response_time
vector 3 Network.player minion_jobs_number_stat:vector ETV
attr source signal_minion_jobs_number
vector 4 Network.player minion_jobs_queue_number_stat:vector ETV
attr source signal_minion_jobs_queue_number
vector 5 Network.player minion_waiting_time_stat:vector ETV
attr source signal_minion_waiting_time
vector 6 Network.player minion_defeated_stat:vector ETV
attr source signal_minion_defeated
vector 7 Network.player minion_response_time_stat:vector ETV
attr source signal_minion_response_time
vector 8 Network.player boss_jobs_number_stat:vector ETV
attr source signal_boss_jobs_number
vector 9 Network.player boss_waiting_time_stat:vector ETV
attr source signal_boss_waiting_time
vector 10 Network.player minion_recovered_stat:vector ETV
attr source signal_minion_recovered
vector 11 Network.player minion_throughput:vector ETV
attr source signal_minion_throughput
vector 12 Network.player boss_throughput:vector ETV
attr source signal_boss_throughput
0	1968 3099 78 795 351.051979988309 2488.156434710886 116 10 125 7830 658590
1	5067 5890 78 795 351.051979988309 2488.156434710886 231 0 2 36 40
2	10957 4456 78 795 351.051979988309 2488.156434710886 116 0.113806902719 15.895938599485 391.22906681165 2326.4832133793
3	15413 3169 80 791 358.816528523987 2475.875971855604 124 1 4 142 188
4	18582 6335 80 792 358.816528523987 2476.926913342697 248 0 3 36 56
5	24917 3708 80 791 358.816528523987 2475.875971855604 129 0 15.591256798388 141.55914814739 1260.6368235646
6	28625 3331 81 792 359.147785092746 2476.926913342697 124 17 140 9734 922994
7	31956 4764 81 792 359.147785092746 2476.926913342697 124 0.003610399262 15.61290011553 242.90147963592 1360.0468225916
8	36720 2933 83 794 366.90674060042 2481.626538504285 115 1 3 133 171
9	39653 3153 83 794 366.90674060042 2481.626538504285 115 0 5.555199780396 47.507598670667 180.43924596389
10	42806 133 176 673 662.438482297379 2146.629260054248 5 2 6 20 90
11	42939 18 796 796 2500 2500 1 0.056 0.056 0.056 0.003136
12	42957 17 796 796 2500 2500 1 0.05 0.05 0.05 0.0025

