file 39652 1677866522                                           
version 2
run factors_calibration_minions-17-20230303-19:02:02-25939
attr configname factors_calibration_minions
attr datetime 20230303-19:02:02
attr experiment factors_calibration_minions
attr inifile omnetpp.ini
attr iterationvars $0=1
attr iterationvarsf 1-
attr measurement $0=1
attr network Network
attr processid 25939
attr repetition 17
attr replication #17
attr resultdir results
attr runnumber 17
attr seedset 17
param *.minion.arrival_mean 20
param *.minion.service_mean 1
param *.boss.arrival_mean 20
param *.boss.service_mean 3
param *.player.recover_rate_x 100
param **.minion.arrival_distribution 0
param **.minion.service_distribution 0
param **.boss.arrival_distribution 0
param **.boss.service_distribution 0

vector 0 Network.player boss_jobs_number_stat:vector ETV
attr source signal_boss_jobs_number
vector 1 Network.player boss_jobs_queue_number_stat:vector ETV
attr source signal_boss_jobs_queue_number
vector 2 Network.player boss_waiting_time_stat:vector ETV
attr source signal_boss_waiting_time
vector 3 Network.player boss_defeated_stat:vector ETV
attr source signal_boss_defeated
vector 4 Network.player boss_response_time_stat:vector ETV
attr source signal_boss_response_time
vector 5 Network.player minion_jobs_number_stat:vector ETV
attr source signal_minion_jobs_number
vector 6 Network.player minion_jobs_queue_number_stat:vector ETV
attr source signal_minion_jobs_queue_number
vector 7 Network.player minion_waiting_time_stat:vector ETV
attr source signal_minion_waiting_time
vector 8 Network.player minion_defeated_stat:vector ETV
attr source signal_minion_defeated
vector 9 Network.player minion_response_time_stat:vector ETV
attr source signal_minion_response_time
vector 10 Network.player minion_recovered_stat:vector ETV
attr source signal_minion_recovered
vector 11 Network.player minion_throughput:vector ETV
attr source signal_minion_throughput
vector 12 Network.player boss_throughput:vector ETV
attr source signal_boss_throughput
0	1973 3019 125 779 350.171511211393 2489.726720628059 118 1 4 143 205
1	4992 6045 125 780 350.171511211393 2491.173831126041 236 0 3 50 74
2	11037 3279 125 779 350.171511211393 2489.726720628059 118 0 16.739015415473 83.616253879698 681.92132667052
3	14316 3183 126 780 351.339169525214 2491.173831126041 118 21 138 9381 882699
4	17499 4561 126 780 351.339169525214 2491.173831126041 118 0.00355470147 18.841132065602 412.99959960837 3096.8189061861
5	22060 2586 137 761 380.583190273584 2396.07272581899 101 1 3 108 124
6	24646 5166 137 762 380.583190273584 2398.220958964733 202 0 2 14 18
7	29812 3051 137 761 380.583190273584 2396.07272581899 107 0 8.070465208093 66.840223892112 363.99036261037
8	32863 2704 138 762 380.602767734636 2398.220958964733 101 22 122 7272 609434
9	35567 3886 138 762 380.602767734636 2398.220958964733 101 0.001194502667 8.164965293935 126.57627654934 424.16424340707
10	39453 160 157 670 422.146072715288 2149.699629152779 6 1 6 21 91
11	39613 19 781 781 2500 2500 1 0.0488 0.0488 0.0488 0.00238144
12	39632 19 781 781 2500 2500 1 0.0552 0.0552 0.0552 0.00304704

