version 2
run theoretical_model-13-20230312-12:07:52-10133
attr configname theoretical_model
attr datetime 20230312-12:07:52
attr experiment theoretical_model
attr inifile omnetpp.ini
attr iterationvars ""
attr iterationvarsf ""
attr measurement ""
attr network Network
attr processid 10133
attr repetition 13
attr replication #13
attr resultdir results
attr runnumber 13
attr seedset 13
param *.minion.arrival_distribution 0
param *.minion.service_distribution 0
param *.minion.arrival_mean 0
param *.minion.service_mean 0
param *.boss.arrival_distribution 0
param *.boss.service_distribution 0
param *.boss.arrival_mean 1
param *.boss.service_mean 0.8

vector 0 Network.player minion_jobs_number_stat:vector ETV
attr source signal_minion_jobs_number
vector 1 Network.player minion_jobs_queue_number_stat:vector ETV
attr source signal_minion_jobs_queue_number
vector 2 Network.player minion_recovered_stat:vector ETV
attr source signal_minion_recovered
vector 3 Network.player minion_defeated_stat:vector ETV
attr source signal_minion_defeated
vector 4 Network.player boss_jobs_number_stat:vector ETV
attr source signal_boss_jobs_number
vector 5 Network.player boss_jobs_queue_number_stat:vector ETV
attr source signal_boss_jobs_queue_number
vector 6 Network.player boss_defeated_stat:vector ETV
attr source signal_boss_defeated
vector 7 Network.player boss_waiting_time_stat:vector ETV
attr source signal_boss_waiting_time
vector 8 Network.player boss_response_time_stat:vector ETV
attr source signal_boss_response_time
vector 9 Network.player minion_throughput:vector ETV
attr source signal_minion_throughput
vector 10 Network.player boss_throughput:vector ETV
attr source signal_boss_throughput
0	0	0	0
1	0	0	0
2	0	0	0
3	0	0	0
4	0	0	0
4	2	0.545042689329	1
4	5	0.760631504896	1
4	7	1.211993176102	2
4	9	1.2145130387	3
4	11	1.418928910033	4
4	15	6.18749645711	3
4	17	6.91789436345	4
4	19	7.187448773333	5
4	21	7.196091466059	6
4	23	7.440752430794	7
4	29	10.912464781216	4
4	31	11.190629322058	5
4	35	12.806997467184	4
4	37	13.394552471895	5
4	42	14.810531024729	3
4	44	15.500115546593	4
4	50	16.613286206937	1
4	53	17.092735633851	1
4	55	17.122841309247	2
4	57	17.544065658616	3
4	60	18.040925976754	3
4	62	18.076582165429	4
4	64	18.595429949295	5
4	66	18.846550907575	6
4	68	19.056816503358	7
4	75	21.453672815482	3
4	80	22.910843152887	1
4	83	24.251969169176	1
4	86	25.210966865686	1
4	88	25.671064789847	2
4	92	28.278464022478	1
4	95	31.323601556461	1
4	98	31.716827923405	1
4	100	31.909637115166	2
4	102	32.20153386339	3
4	104	32.207248160409	4
4	106	33.480992421302	5
4	108	34.670483448822	6
4	116	40.465546095901	1
4	118	41.3690479178	2
4	120	41.737033977455	3
4	123	42.908329739288	3
4	125	43.097055775104	4
4	127	44.182794271089	5
4	130	44.375632361295	5
4	134	45.195277626832	4
4	136	45.374196883709	5
4	143	49.520672750128	1
4	146	50.400184146174	1
4	149	51.020897485371	1
4	152	51.662468964943	1
4	155	52.673510335393	1
4	158	53.291099226676	1
4	160	53.630748022787	2
4	162	53.8988287995	3
4	167	55.242932950762	1
4	170	57.182384202563	1
4	172	57.961757052251	2
4	174	58.598323113264	3
4	177	59.834342934698	3
4	179	59.890472575458	4
4	181	60.065743850845	5
4	187	65.065005473137	2
4	189	65.834867097724	3
4	191	66.052471506369	4
4	194	66.362003915217	4
4	197	67.608622864537	4
4	203	70.988041191239	1
4	206	72.6829823196	1
4	209	76.953688338379	1
4	211	77.590563449947	2
4	215	78.734002599856	1
4	218	79.036576577475	1
4	220	79.189337589931	2
4	222	79.77026212944	3
4	224	80.721215861992	4
4	226	80.956157426921	5
4	229	81.442302208811	5
4	234	82.082674446277	3
4	237	82.311432459226	3
4	239	82.574594674448	4
4	242	82.822194291451	4
4	244	82.99794978591	5
4	246	84.325943485211	6
4	248	84.570645443339	7
4	252	86.141380013702	6
4	254	86.316585521667	7
4	260	88.369629411099	4
4	264	91.306625514166	3
4	267	91.861635033263	3
4	269	92.833812548201	4
4	271	92.868999666038	5
4	273	94.173842959863	6
4	275	94.270156976641	7
4	279	96.358366714484	6
4	282	96.442926892279	6
4	286	99.284646177957	5
4	292	101.756422616744	2
4	294	101.885332224252	3
4	296	102.173647842648	4
4	301	104.316884518535	2
4	304	104.877270676746	2
4	306	104.978305207865	3
4	310	105.766007479712	2
4	314	107.292708064813	1
4	317	108.284076470785	1
4	319	109.355462530846	2
4	323	111.07274127577	1
4	326	113.211840779594	1
4	329	113.593727933819	1
4	332	114.653911823619	1
4	335	116.824781092048	1
4	337	116.867404420274	2
4	339	117.612735381374	3
4	342	118.60898691755	3
4	347	120.726781894343	1
4	350	121.96832255643	1
4	352	122.028631679184	2
4	356	122.635084557472	1
4	358	122.788675032623	2
4	361	123.902385724189	2
4	363	124.52308459714	3
4	365	126.117338744748	4
4	368	127.223048351116	4
4	370	127.44082816086	5
4	377	133.738492695235	1
4	379	133.923886430349	2
4	381	134.783040642762	3
4	383	134.792353803086	4
4	385	135.06966267372	5
4	389	136.456046833269	4
4	391	136.492072626354	5
4	395	138.159957494664	4
4	399	139.083638810683	3
4	401	139.131907979478	4
4	407	142.038469726026	1
4	409	142.1154109383	2
4	412	142.477583800568	2
4	414	144.132681328721	3
4	419	145.55821028233	1
4	422	146.990954715125	1
4	425	147.048496608923	1
4	427	148.535816214272	2
4	429	149.125210070251	3
4	431	149.582336420372	4
4	437	151.898307005891	1
4	440	152.456743923059	1
4	443	154.71558311634	1
4	445	155.828878609048	2
4	447	155.946537349213	3
4	449	156.14134200093	4
4	451	158.355621707298	5
4	453	159.284596425645	6
4	455	159.738333815018	7
4	458	160.246518819913	7
4	461	160.607297365851	7
4	465	162.359677819881	6
4	469	164.37352252203	5
4	474	165.620019764611	3
4	477	166.348507200005	3
4	479	166.386577021327	4
4	483	168.148966811896	3
4	485	168.6739416534	4
4	489	169.982572800888	3
4	492	170.620647226253	3
4	495	172.190193080684	3
4	500	172.520645782809	1
4	503	172.722086062578	1
4	505	172.94737524761	2
4	507	173.087817467536	3
4	509	173.224964979081	4
4	512	174.443189210228	4
4	515	174.691183742884	4
4	521	177.904577020508	1
4	523	177.906748458781	2
4	526	177.977583182205	2
4	528	178.20439758558	3
4	530	178.244529202313	4
4	534	179.432257951668	3
4	539	181.498654882255	1
4	542	182.382508187374	1
4	545	184.274382414165	1
4	548	189.031943038508	1
4	550	190.665995227151	2
4	552	190.977303016389	3
4	554	191.774656919401	4
4	557	192.273887976366	4
4	559	192.527151034062	5
4	561	194.064972754338	6
4	565	194.997091395957	5
4	569	196.254666589032	4
4	571	196.756812797811	5
4	573	197.021616387326	6
4	577	197.829604007687	5
4	580	198.1642239884	5
4	582	198.673052782315	6
4	584	198.994466621996	7
4	586	199.211693112567	8
4	588	199.351668326105	9
4	595	203.866513837931	5
4	599	204.646021010886	4
4	603	205.268795694087	3
4	607	208.46437589526	2
4	610	209.380407283006	2
4	614	210.091535937863	1
4	617	210.644452875895	1
4	619	210.740790109894	2
4	622	212.989016413354	2
4	625	214.061101608517	2
4	627	214.78963204078	3
4	629	215.4929101596	4
4	631	216.178108659265	5
4	633	216.593170741296	6
4	638	217.307829335765	4
4	640	218.268605758412	5
4	642	218.583319628954	6
4	647	220.669708389594	4
4	650	221.006560153223	4
4	654	222.753376107125	3
4	659	225.568304601965	1
4	661	225.816280999776	2
4	664	228.463161549351	2
4	666	228.718599529366	3
4	671	230.577841039098	1
4	673	231.524903311838	2
4	675	231.797753216455	3
4	680	232.789250359756	1
4	682	232.889666849914	2
4	684	233.041927483042	3
4	686	233.11184233024	4
4	692	235.301996179085	1
4	694	237.867780381392	2
4	697	238.91055130018	2
4	700	239.898934184738	2
4	702	240.33199994951	3
4	705	240.700126745119	3
4	710	242.832253063254	1
4	712	242.949099072362	2
4	714	243.027849619262	3
4	717	243.374576864053	3
4	719	243.982769277004	4
4	721	246.486301043656	5
4	728	250.659006645916	1
4	731	251.154438104853	1
4	733	251.220197557327	2
4	737	252.268760541517	1
4	739	252.669515445544	2
4	741	252.938596372302	3
4	746	256.888811362543	1
4	749	258.136253022498	1
4	751	258.433906417407	2
4	754	259.645005227854	2
4	757	260.616664846045	2
4	759	260.810662463892	3
4	764	262.047141626954	1
4	766	262.176404206294	2
4	768	262.194413088097	3
4	770	262.421059280554	4
4	772	262.440808962651	5
4	774	262.541390817412	6
4	776	262.898960148778	7
4	778	263.141164254079	8
4	781	264.951162490535	8
4	785	265.630586239841	7
4	789	268.556106761013	6
4	791	270.074653102419	7
4	796	272.266020479934	5
4	798	272.370939699473	6
4	805	274.671054875521	2
4	807	275.245789468657	3
4	809	275.760101996161	4
4	813	277.180893215565	3
4	816	280.033314219451	3
4	821	283.169303388392	1
4	823	283.54035547294	2
4	825	284.819112582235	3
4	827	286.105546382447	4
4	831	287.095168930394	3
4	833	287.693664058403	4
4	837	289.456920542676	3
4	841	290.189721826441	2
4	845	290.702408867675	1
4	847	290.969399836468	2
4	849	291.401105269469	3
4	851	291.454787650447	4
4	854	292.315855972962	4
4	856	292.348072858298	5
4	859	292.739831135259	5
4	866	295.183660911827	1
4	868	295.311127582383	2
4	871	295.435793198505	2
4	873	296.016958824086	3
4	876	296.401082417358	3
4	881	299.994771853384	1
4	883	300.644897649823	2
4	887	301.028114050162	1
4	889	301.057779690228	2
4	891	301.112512566599	3
4	893	301.241690311356	4
4	899	304.750794718559	1
4	902	307.649122769748	1
4	905	310.68526578442	1
4	907	311.747713249365	2
4	911	315.21963566851	1
4	914	316.698044133439	1
4	916	316.785912925386	2
4	918	317.895328946708	3
4	921	321.648372088937	3
4	923	321.973568346982	4
4	925	322.347283046763	5
4	928	322.727114426642	5
4	933	324.069606447787	3
4	935	324.626101665135	4
4	941	325.70620328995	1
4	944	330.196885149999	1
4	946	330.622687437389	2
4	950	331.24192928014	1
4	953	332.82337953878	1
4	955	333.202969957735	2
4	959	334.366777129455	1
4	962	335.984617053794	1
4	965	340.409602099892	1
4	967	340.600776982466	2
4	970	342.339808772781	2
4	974	343.285559108192	1
4	977	344.719835147623	1
4	980	346.102492205525	1
4	982	346.614664933751	2
4	986	347.21797592175	1
4	989	347.65252399589	1
4	992	348.792692532425	1
4	995	349.429644960847	1
4	998	351.022852847594	1
4	1001	352.775468463534	1
4	1004	353.044619536479	1
4	1007	354.922125527945	1
4	1009	356.455377104681	2
4	1013	358.53357682667	1
4	1015	359.355393900223	2
4	1018	360.407794450664	2
4	1022	361.228177139176	1
4	1025	362.708267343989	1
4	1028	363.14146407011	1
4	1031	366.421074586059	1
4	1034	368.668456477528	1
4	1036	368.964730825321	2
4	1038	369.404853004473	3
4	1040	370.786508781675	4
4	1042	370.930293055335	5
4	1044	370.946502007526	6
4	1047	371.207266876284	6
4	1049	371.326798333078	7
4	1051	372.318590807992	8
4	1054	372.933247373107	8
4	1057	373.586410964631	8
4	1061	374.574917660367	7
4	1064	375.657994085883	7
4	1067	376.327896499374	7
4	1070	376.683666342137	7
4	1073	377.374678900672	7
4	1075	378.046495087205	8
4	1077	379.251813422656	9
4	1083	380.476474684731	6
4	1087	380.736694008965	5
4	1090	380.967850971068	5
4	1092	381.259394513632	6
4	1094	381.712239068868	7
4	1098	382.823430708628	6
4	1100	384.169677088884	7
4	1103	385.02163772548	7
4	1106	386.310262417762	7
4	1108	386.383432019986	8
4	1111	387.093864945757	8
4	1114	388.006149904069	8
4	1117	389.752478113174	8
4	1121	391.34396281419	7
4	1123	391.466045919207	8
4	1125	391.504484732345	9
4	1130	392.388175327554	7
4	1133	392.875712258641	7
4	1135	392.957861305437	8
4	1139	394.087704653847	7
4	1142	395.183726955584	7
4	1147	396.371822792123	5
4	1153	397.306361229358	2
4	1156	397.995628814411	2
4	1158	398.466885039734	3
4	1162	400.596042049878	2
4	1166	401.325060668483	1
4	1168	401.550568751923	2
4	1170	402.052842775797	3
4	1172	403.497691205314	4
4	1174	403.634349708191	5
4	1179	404.751529694485	3
4	1183	405.464594775558	2
4	1186	405.912137560254	2
4	1189	406.079942484564	2
4	1192	406.928073018626	2
4	1194	407.158806478568	3
4	1196	407.304938631695	4
4	1200	407.830925532082	3
4	1203	407.920895014542	3
4	1207	409.062273487846	2
4	1210	409.510677777641	2
4	1213	410.467345628276	2
4	1215	410.687159242659	3
4	1218	411.341348903288	3
4	1220	411.878491115201	4
4	1222	412.065744754791	5
4	1224	412.230472475892	6
4	1226	412.477617040466	7
4	1228	412.635026937242	8
4	1230	413.252722497283	9
4	1233	414.07613947585	9
4	1235	414.227539884239	10
4	1237	414.830142555866	11
4	1241	416.313853107614	10
4	1247	417.302265762538	7
4	1249	417.439743612707	8
4	1256	420.798617700649	4
4	1258	422.06592678332	5
4	1260	422.297729893315	6
4	1262	423.39705750724	7
4	1265	423.54290372713	7
4	1269	425.765457936878	6
4	1274	426.324552558886	4
4	1278	427.581886930343	3
4	1281	427.915908702461	3
4	1284	429.105570223714	3
4	1286	429.170381456893	4
4	1288	429.28114914711	5
4	1293	430.618522270506	3
4	1295	430.639696249097	4
4	1299	431.104354494915	3
4	1303	432.719240817592	2
4	1307	436.132314363876	1
4	1309	436.496451553016	2
4	1313	437.953463144464	1
4	1316	440.332522191668	1
4	1319	443.948290487598	1
4	1322	444.933310281767	1
4	1325	445.859192284757	1
4	1328	446.770371693326	1
4	1331	448.06627875175	1
4	1334	448.460384435425	1
4	1336	448.699359093397	2
4	1338	449.769697488996	3
4	1340	450.27162505726	4
4	1343	450.867143347539	4
4	1345	451.583185199386	5
4	1352	453.873008926616	1
4	1355	455.307010972428	1
4	1358	458.309331647141	1
4	1361	460.598283520474	1
4	1364	461.250935851088	1
4	1367	462.076860633054	1
4	1370	462.541057615472	1
4	1373	463.623482594737	1
4	1375	463.857064334322	2
4	1378	464.941653870296	2
4	1381	465.705691858192	2
4	1384	466.842313534147	2
4	1388	469.619607090602	1
4	1391	470.204838896615	1
4	1393	470.314355011794	2
4	1396	470.661582517394	2
4	1398	470.81939733215	3
4	1401	471.578027542326	3
4	1405	472.584568799272	2
4	1408	472.896207448221	2
4	1410	473.465541398974	3
4	1413	473.907358323189	3
4	1415	474.54170397041	4
4	1418	475.112570853837	4
4	1420	475.521313993558	5
4	1422	475.576684115964	6
4	1426	476.750287410573	5
4	1428	477.574290263404	6
4	1430	477.818985444843	7
4	1434	478.361257437546	6
4	1437	478.596253305682	6
4	1440	479.567135955818	6
4	1444	479.986191122705	5
4	1446	480.853440253463	6
4	1449	481.030233678273	6
4	1456	484.892539409977	2
4	1458	485.045105660416	3
4	1463	485.968820188022	1
4	1466	487.777428979987	1
4	1469	490.256167954165	1
4	1471	490.741411412367	2
4	1473	490.83538400991	3
4	1475	491.677326335231	4
4	1477	492.246196656651	5
4	1479	492.276440199594	6
4	1481	492.678321303833	7
4	1485	493.884046890557	6
4	1488	495.094491716388	6
4	1490	495.482609557216	7
4	1496	498.016506192332	4
4	1499	499.081477556445	4
4	1504	501.206150069909	2
4	1506	501.554702617359	3
4	1510	502.160775179568	2
4	1513	502.342417226878	2
4	1517	503.760726601676	1
4	1520	504.550940375714	1
4	1523	505.532013809094	1
4	1526	506.179143865521	1
4	1528	506.70231659466	2
4	1530	506.822937280882	3
4	1532	508.06880342153	4
4	1535	509.234381489363	4
4	1537	509.256221807419	5
4	1539	509.897022472158	6
4	1544	512.182522249735	4
4	1546	512.699951987318	5
4	1549	513.731730852228	5
4	1551	514.088402795383	6
4	1554	514.495234575067	6
4	1557	514.733863349747	6
4	1562	519.575243359726	4
4	1564	519.925043834161	5
4	1567	521.052181365357	5
4	1569	522.059315984321	6
4	1572	523.246148579374	6
4	1576	524.330779305751	5
4	1581	527.050391206826	3
4	1583	527.10233092155	4
4	1585	527.755762642332	5
4	1588	527.879728088254	5
4	1590	527.926097212788	6
4	1592	528.365598187853	7
4	1595	528.422679294636	7
4	1598	529.225972342187	7
4	1601	529.691416456469	7
4	1604	530.967640713319	7
4	1608	533.207137160593	6
4	1610	533.621684538853	7
4	1615	536.37322763491	5
4	1620	537.095962961774	3
4	1623	538.135548556385	3
4	1625	538.97527250327	4
4	1627	539.065456459429	5
4	1629	541.273540544168	6
4	1634	542.546092796466	4
4	1636	542.698584532659	5
4	1641	543.423343008233	3
4	1645	544.563299087297	2
4	1647	545.366896481856	3
4	1652	547.951946804126	1
4	1655	550.289932166787	1
4	1658	550.966534602263	1
4	1660	550.970641285093	2
4	1664	551.386831286046	1
4	1667	551.690352789518	1
4	1670	551.880155310566	1
4	1673	553.557857129166	1
4	1676	556.286819236955	1
4	1678	556.57690224097	2
4	1680	556.995314934601	3
4	1682	557.214800769068	4
4	1685	558.361572234886	4
4	1691	561.477857017914	1
4	1694	561.939000121223	1
4	1697	562.922774703702	1
4	1699	563.389328570502	2
4	1703	565.078961604374	1
4	1705	565.135081681904	2
4	1709	566.904332296834	1
4	1712	568.670268735532	1
4	1714	568.771420079574	2
4	1718	570.279744625365	1
4	1721	570.708219158223	1
4	1723	571.194420872714	2
4	1727	573.554550076139	1
4	1729	574.027357187129	2
4	1731	574.193738028299	3
4	1733	575.780050854012	4
4	1736	576.4243164517	4
4	1739	578.093951343296	4
4	1742	578.13231342565	4
4	1744	578.737599922164	5
4	1746	579.196293795342	6
4	1751	582.129893725988	4
4	1754	582.306111633911	4
4	1758	582.810606676529	3
4	1763	583.981182647591	1
4	1765	584.237976948937	2
4	1768	584.490499171944	2
4	1770	584.680684645921	3
4	1772	584.725620773904	4
4	1774	585.257783057974	5
4	1780	587.633563629745	2
4	1784	589.963417285256	1
4	1786	590.249443930659	2
4	1790	591.905637182912	1
4	1792	592.489521478103	2
4	1795	593.865323900335	2
4	1799	594.991000783126	1
4	1801	595.180720299879	2
4	1803	595.64742752387	3
4	1806	596.864131629791	3
4	1808	596.867212268715	4
4	1810	596.973224774025	5
4	1814	599.353499212096	4
4	1816	599.782024822305	5
4	1819	600.036409985246	5
4	1823	601.045028642059	4
4	1826	602.851180285609	4
4	1828	603.024086894261	5
4	1832	605.672073462808	4
4	1837	605.970850373607	2
4	1841	607.345418312477	1
4	1843	607.421523133533	2
4	1845	607.919245327558	3
4	1849	610.67452726549	2
4	1851	610.833004622017	3
4	1853	610.939325097614	4
4	1855	611.053661021108	5
4	1857	611.084771069524	6
4	1862	612.872148394288	4
4	1864	613.088927184003	5
4	1866	613.101280751279	6
4	1868	613.302091961809	7
4	1877	616.398107051672	1
4	1880	618.556885254076	1
4	1883	619.670945726817	1
4	1885	620.681083095876	2
4	1887	622.956231864511	3
4	1889	624.438732677258	4
4	1891	625.396740992719	5
4	1893	626.030651556893	6
4	1901	631.792187195423	1
4	1903	631.914554380685	2
4	1907	634.87472449974	1
4	1910	635.523635759398	1
4	1912	635.68250664618	2
4	1916	636.955039671476	1
4	1918	637.060907397188	2
4	1920	638.242284454852	3
4	1923	640.5064743468	3
4	1925	640.534891155069	4
4	1931	642.33223255665	1
4	1934	643.863813386194	1
4	1936	644.233718526549	2
4	1938	644.681024102297	3
4	1943	647.349819002697	1
4	1945	647.408451852667	2
4	1949	649.971700786899	1
4	1952	651.747793515262	1
4	1955	652.533046482617	1
4	1958	654.107447559769	1
4	1961	655.389761890775	1
4	1964	655.672919774567	1
4	1966	656.220718507928	2
4	1970	656.771872723995	1
4	1973	658.38757042911	1
4	1975	659.502450019556	2
4	1977	659.521313718098	3
4	1981	661.128475508424	2
4	1983	661.684492049199	3
4	1985	661.831788477802	4
4	1989	664.803060464496	3
4	1991	664.89928411409	4
4	1996	666.205411353732	2
4	2000	668.797183560813	1
4	2003	672.976223048268	1
4	2005	673.211969085067	2
4	2007	673.415277319323	3
4	2009	673.552949542582	4
4	2011	673.567110140613	5
4	2013	673.879063971984	6
4	2015	674.02763716153	7
4	2018	674.572016966895	7
4	2021	675.618330635813	7
4	2023	676.245643032971	8
4	2027	677.332604382232	7
4	2030	680.457923413218	7
4	2038	685.059002714487	2
4	2042	686.898279509543	1
4	2044	687.502180361798	2
4	2048	688.417607668568	1
4	2050	690.234969890271	2
4	2052	690.299881914683	3
4	2055	693.183069270876	3
4	2058	693.420034410203	3
4	2063	694.456593591304	1
4	2066	695.48535140506	1
4	2069	696.141387633729	1
4	2071	696.404276914891	2
4	2074	697.314025679218	2
4	2076	697.78074290245	3
4	2078	698.202925698614	4
4	2084	701.862794270797	1
4	2086	702.309752028442	2
4	2090	703.883797852031	1
4	2092	705.288767136349	2
4	2094	705.515302642631	3
4	2096	706.368727681087	4
4	2098	706.566524210673	5
4	2101	707.260899892249	5
4	2103	707.466703625643	6
4	2108	709.001104044681	4
4	2112	710.238240075772	3
4	2114	711.076483672244	4
4	2116	711.159002555384	5
4	2119	713.47936566519	5
4	2123	715.002775262506	4
4	2125	715.059054480523	5
4	2128	715.774135734855	5
4	2130	715.80060850044	6
4	2132	715.866134134364	7
4	2134	715.892853553922	8
4	2138	716.366362632408	7
4	2141	716.617997507614	7
4	2145	717.727748089899	6
4	2147	718.31544822387	7
4	2149	718.358839269535	8
4	2151	718.432365918378	9
4	2153	719.118615567919	10
4	2155	719.228142804256	11
4	2157	719.425995372299	12
4	2159	719.693314679573	13
4	2161	719.920097238649	14
4	2163	719.9340421503	15
4	2166	720.390106447227	15
4	2169	721.265279864825	15
4	2173	722.474072649211	14
4	2176	724.210287391549	14
4	2184	727.508470650007	9
4	2189	729.177391782185	7
4	2192	729.796484810178	7
4	2196	731.03223977001	6
4	2198	731.272026278266	7
4	2203	731.583379630645	5
4	2207	732.627138033352	4
4	2211	733.564136348317	3
4	2216	734.360273629582	1
4	2218	734.369869553186	2
4	2221	735.510687376836	2
4	2223	735.633838848387	3
4	2228	738.763728336668	1
4	2231	740.499208517078	1
4	2234	741.213551389281	1
4	2236	741.387919967532	2
4	2238	741.472649786831	3
4	2242	742.323027446534	2
4	2245	742.827376469159	2
4	2249	743.140094489982	1
4	2252	744.143911698388	1
4	2254	744.229113089378	2
4	2256	744.241010445663	3
4	2259	745.018605666428	3
4	2262	745.958173521259	3
4	2264	746.090148229965	4
4	2266	746.136732445078	5
4	2269	746.84576530931	5
4	2272	747.2010906353	5
4	2274	748.351342492126	6
4	2278	751.054417053368	5
4	2280	751.111473369937	6
4	2283	751.927243194578	6
4	2285	754.291208582662	7
4	2287	754.384017996486	8
4	2289	756.336783453457	9
4	2297	758.088143848314	4
4	2299	759.54267463265	5
4	2304	762.11809812685	3
4	2309	764.483339197674	1
4	2311	765.956281621057	2
4	2313	766.359960595109	3
4	2316	766.920574362495	3
4	2319	768.217465088821	3
4	2322	768.898164338442	3
4	2325	769.689338835202	3
4	2327	770.1896950691	4
4	2330	771.672277514132	4
4	2332	772.397882849516	5
4	2336	774.199290602818	4
4	2338	774.21904853007	5
4	2345	775.507171001225	1
4	2348	776.555796996469	1
4	2351	779.872856861265	1
4	2354	780.200310851569	1
4	2356	781.006795887876	2
4	2359	781.640923207634	2
4	2363	784.387762102503	1
4	2366	785.234061462798	1
4	2368	785.725357823503	2
4	2370	785.9298768111	3
4	2374	787.582648290765	2
4	2376	788.428105971692	3
4	2378	788.566599348324	4
4	2380	788.988205538588	5
4	2382	789.571434790696	6
4	2384	789.853631396661	7
4	2386	790.164844472423	8
4	2388	790.702683270255	9
4	2391	791.978453574288	9
4	2395	792.677428409097	8
4	2400	794.2493912325	6
4	2405	795.093250085391	4
4	2409	795.63915008831	3
4	2411	796.431154108661	4
4	2414	797.55779940458	4
4	2417	799.095604680982	4
4	2421	799.296076894722	3
4	2423	799.490254335499	4
4	2425	800.770557709523	5
4	2429	801.901432791551	4
4	2431	802.015515180146	5
4	2434	802.596836929811	5
4	2438	804.296192861275	4
4	2441	804.483202615791	4
4	2443	804.720206122125	5
4	2445	805.469118596358	6
4	2447	805.538593508499	7
4	2450	806.395240792173	7
4	2452	806.894788943696	8
4	2455	807.352876938238	8
4	2457	807.575559984352	9
4	2459	808.021140820385	10
4	2462	809.825142891837	10
4	2464	810.048023744809	11
4	2468	811.358369126664	10
4	2475	813.906198205312	6
4	2477	813.994297821065	7
4	2479	814.694858276091	8
4	2481	814.835920775187	9
4	2485	816.206028124724	8
4	2488	817.290336033149	8
4	2491	818.433592560625	8
4	2494	819.238636355867	8
4	2496	819.56241972855	9
4	2498	820.507647517988	10
4	2504	822.871947465655	7
4	2508	824.12667244602	6
4	2510	825.031656158547	7
4	2512	825.566853404857	8
4	2514	826.180060611912	9
4	2517	827.237022222888	9
4	2521	828.766987524578	8
4	2528	832.704532727729	4
4	2534	833.907359808788	1
4	2536	834.246348184622	2
4	2538	834.347270949851	3
4	2541	834.801304917843	3
4	2546	838.990415638889	1
4	2549	840.174422850469	1
4	2551	841.626768058102	2
4	2555	844.266970571579	1
4	2557	844.797327779385	2
4	2559	845.11573485917	3
4	2562	845.805533536353	3
4	2567	847.703529927984	1
4	2570	848.102885627879	1
4	2572	848.422470443973	2
4	2576	849.94939269531	1
4	2578	850.135963072851	2
4	2582	851.746423056761	1
4	2585	853.150059459756	1
4	2588	856.266569794121	1
4	2591	858.756827322609	1
4	2593	859.561049621665	2
4	2595	860.205900540316	3
4	2597	860.833613197557	4
4	2600	861.425226303572	4
4	2604	862.456825628508	3
4	2606	862.709760582825	4
4	2609	863.117411037108	4
4	2611	863.27943958189	5
4	2613	863.555917638372	6
4	2615	864.749976373906	7
4	2617	865.537715721628	8
4	2619	865.833472485257	9
4	2623	867.418887123077	8
4	2625	868.328285224868	9
4	2627	868.983110531768	10
4	2632	870.639111961042	8
4	2635	871.306554130775	8
4	2641	873.765924875867	5
4	2643	873.767792281251	6
4	2647	875.607094622732	5
4	2653	878.939258676142	2
4	2657	880.342726244602	1
4	2659	880.98457263035	2
4	2663	881.419610121587	1
4	2665	881.516523049431	2
4	2668	882.282756726956	2
4	2672	883.78536964691	1
4	2674	886.272002214667	2
4	2676	889.01226403037	3
4	2678	889.466612851565	4
4	2681	889.919984054584	4
4	2683	890.029248279168	5
4	2687	891.231002052607	4
4	2689	892.017971165871	5
4	2691	892.556173322012	6
4	2694	893.003216393614	6
4	2699	893.937203115198	4
4	2702	895.317194326673	4
4	2704	895.397391667347	5
4	2707	896.336779737101	5
4	2709	896.648298521933	6
4	2711	896.82538033084	7
4	2713	897.999573844359	8
4	2717	899.710315477265	7
4	2721	900.058021196607	6
4	2725	900.480971552762	5
4	2727	901.496828046325	6
4	2731	902.475276355059	5
4	2734	902.904967684891	5
4	2738	903.570764976691	4
4	2740	904.053641287508	5
4	2742	904.064795435677	6
4	2749	908.95597339019	2
4	2753	909.905236045177	1
4	2755	910.317499316104	2
4	2759	912.171114760324	1
4	2761	912.393264104273	2
4	2763	912.400213822045	3
4	2765	912.49714052612	4
4	2767	912.634573593478	5
4	2771	914.059426174868	4
4	2775	914.642963258836	3
4	2778	915.08012965269	3
4	2783	920.749225349771	1
4	2786	921.515060593041	1
4	2789	922.25565197387	1
4	2791	922.795647214872	2
4	2795	923.563096284594	1
4	2797	923.67864872486	2
4	2799	924.114817737979	3
4	2801	924.286462828783	4
4	2803	924.82005933303	5
4	2805	925.038523295446	6
4	2807	925.246264884836	7
4	2809	926.414996954281	8
4	2813	927.062347284004	7
4	2817	927.509754805204	6
4	2819	928.212157006511	7
4	2822	928.549140604244	7
4	2827	931.266517340601	5
4	2830	931.748597323616	5
4	2833	932.267958545115	5
4	2835	932.601335244264	6
4	2838	933.524208105583	6
4	2840	933.569363413298	7
4	2846	934.806517908844	4
4	2849	935.238443599865	4
4	2853	937.78959446749	3
4	2855	937.821620870676	4
4	2857	938.164207408291	5
4	2861	939.471895342165	4
4	2863	939.525558314331	5
4	2865	940.063331422013	6
4	2867	940.138528875713	7
4	2869	940.243679758767	8
4	2871	940.709161407381	9
4	2873	941.266713818953	10
4	2875	942.803227808535	11
4	2882	943.79241367473	7
4	2884	943.927796036596	8
4	2886	943.953349057363	9
4	2888	945.460644844739	10
4	2890	945.465710756636	11
4	2895	946.454342506593	9
4	2897	946.923957800191	10
4	2906	950.712542185024	4
4	2910	953.487284363367	3
4	2914	955.014239125296	2
4	2917	955.508392327028	2
4	2921	957.464723808429	1
4	2923	957.784107378558	2
4	2925	957.862832745607	3
4	2928	958.792797608962	3
4	2930	959.096737299556	4
4	2933	960.442496235681	4
4	2936	960.889666743502	4
4	2938	962.325597975104	5
4	2940	962.602828707915	6
4	2945	965.74227470579	4
4	2948	967.005890474055	4
4	2950	967.057066823517	5
4	2955	968.420071482897	3
4	2960	969.729339781363	1
4	2962	969.731144858657	2
4	2965	970.293011213487	2
4	2968	970.581465605812	2
4	2972	971.847825897816	1
4	2975	973.498076609011	1
4	2978	974.597511651158	1
4	2981	977.681988935212	1
4	2984	979.140972180305	1
4	2987	980.143147499754	1
4	2990	982.320484098161	1
4	2992	982.893465321235	2
4	2994	983.024607476577	3
4	2996	983.032122583586	4
4	2998	983.043916507124	5
4	3000	983.072969331868	6
4	3003	984.148026264616	6
4	3005	984.711913923187	7
4	3007	984.978324330704	8
4	3011	986.820583905282	7
4	3015	987.755536953279	6
4	3018	988.188711529182	6
4	3023	989.544222644921	4
4	3025	989.834926153685	5
4	3027	990.000375687242	6
4	3030	990.940593307881	6
4	3033	991.563624713565	6
4	3036	992.435981341275	6
4	3040	993.786058851083	5
4	3042	994.583913192852	6
4	3044	994.937545153348	7
4	3047	998.284955493886	7
4	3049	998.698664401968	8
4	3051	998.80522693526	9
4	3056	999.482751588513	7
4	3058	999.657523800573	8
4	3062	1002.580648594029	7
4	3067	1004.024347981619	5
4	3069	1004.080271186813	6
4	3072	1004.992986076645	6
4	3077	1006.033632095782	4
4	3079	1006.289483451102	5
4	3083	1007.049219238085	4
4	3088	1009.691936938666	2
4	3092	1010.205390011189	1
4	3095	1012.229607683659	1
4	3098	1012.925514924898	1
4	3100	1013.076173265519	2
4	3102	1013.087166488232	3
4	3107	1016.135565192313	1
4	3109	1016.343573954889	2
4	3111	1016.776462007804	3
4	3113	1016.908213996922	4
4	3115	1017.12606168368	5
4	3120	1018.430241546883	3
4	3123	1019.115479441281	3
4	3128	1021.760354265035	1
4	3131	1023.757319277446	1
4	3134	1026.28404987086	1
4	3136	1026.929604679967	2
4	3138	1026.964443359722	3
4	3140	1027.704216321304	4
4	3142	1027.745660456269	5
4	3144	1027.795700341596	6
4	3146	1028.188197483096	7
4	3153	1030.960720675901	3
4	3157	1031.66283871732	2
4	3159	1031.876321673564	3
4	3164	1036.012144616801	1
4	3166	1036.267467727593	2
4	3168	1036.392751186159	3
4	3170	1036.829340713106	4
4	3172	1037.190811241182	5
4	3175	1037.344999829156	5
4	3179	1037.933749280012	4
4	3181	1039.714172501345	5
4	3183	1041.277375229496	6
4	3187	1042.959811205426	5
4	3193	1044.204013512861	2
4	3197	1047.163385735113	1
4	3200	1048.365835583967	1
4	3202	1048.857570770421	2
4	3205	1049.285084902031	2
4	3208	1050.634872395714	2
4	3210	1051.324174530915	3
4	3212	1051.480756960378	4
4	3215	1053.383522609184	4
4	3218	1053.680210580692	4
4	3220	1054.080121538048	5
4	3225	1055.661775091329	3
4	3230	1057.121743618388	1
4	3232	1059.053906230968	2
4	3236	1062.478113182474	1
4	3238	1062.948353540958	2
4	3240	1064.600530389885	3
4	3244	1065.127779816891	2
4	3246	1065.139793018046	3
4	3248	1065.367425219965	4
4	3250	1065.718426834845	5
4	3256	1069.070855255851	2
4	3259	1070.310292655782	2
4	3261	1070.330282052418	3
4	3264	1070.738201281214	3
4	3266	1071.021166400705	4
4	3270	1071.586393299305	3
4	3275	1076.860792413446	1
4	3278	1077.945850396939	1
4	3280	1078.212473041287	2
4	3283	1080.762781812256	2
4	3287	1082.130560488748	1
4	3290	1083.243880607712	1
4	3293	1084.603587853433	1
4	3296	1084.98499015387	1
4	3298	1085.180123797197	2
4	3301	1085.968991291902	2
4	3303	1086.09925374292	3
4	3308	1089.440578317045	1
4	3311	1092.500400374558	1
4	3314	1094.297680895212	1
4	3316	1094.304593453357	2
4	3320	1095.878445615101	1
4	3323	1098.612131722294	1
4	3326	1100.845424479651	1
4	3328	1100.853256247112	2
4	3330	1101.002584102189	3
4	3332	1101.073936554368	4
4	3334	1101.45259954316	5
4	3336	1102.358056563287	6
4	3340	1104.127950353426	5
4	3342	1104.809456272668	6
4	3345	1105.170184963879	6
4	3347	1105.334105765643	7
4	3349	1105.441086174184	8
4	3352	1106.062474260552	8
4	3355	1106.846833502399	8
4	3357	1107.108854996187	9
4	3359	1107.712603600475	10
4	3361	1107.900468863962	11
4	3363	1108.828026634439	12
4	3366	1109.806589579965	12
4	3369	1110.704514678272	12
4	3372	1111.032999788521	12
4	3374	1111.385455668328	13
4	3376	1111.427091827308	14
4	3378	1111.432679863317	15
4	3382	1113.697125788372	14
4	3385	1113.829585422474	14
4	3388	1114.270392001095	14
4	3393	1115.783849179989	12
4	3398	1118.132004460379	10
4	3401	1118.479536118448	10
4	3405	1121.991784412484	9
4	3408	1123.223483756595	9
4	3410	1123.684421276304	10
4	3413	1124.868168983559	10
4	3417	1125.471181380336	9
4	3419	1125.913145417203	10
4	3422	1127.431794975612	10
4	3424	1127.722511390237	11
4	3428	1128.618260881189	10
4	3432	1129.029662775814	9
4	3437	1130.384874264019	7
4	3440	1130.874739794525	7
4	3447	1134.278164019012	3
4	3449	1134.353838994789	4
4	3451	1134.631688625328	5
4	3453	1134.752537268923	6
4	3457	1135.914622618951	5
4	3459	1136.617359702611	6
4	3461	1137.045037451102	7
4	3463	1137.474772717056	8
4	3465	1137.839165480716	9
4	3467	1137.849493067172	10
4	3469	1138.671727726437	11
4	3471	1138.77572843735	12
4	3473	1138.872032355471	13
4	3478	1140.443344837366	11
4	3480	1141.417547614395	12
4	3484	1141.851069092558	11
4	3486	1141.981455123463	12
4	3489	1143.1429797023	12
4	3492	1144.086684531238	12
4	3494	1144.844933994962	13
4	3496	1144.945929964955	14
4	3498	1145.317520744841	15
4	3500	1145.456579931694	16
4	3506	1146.641688855619	13
4	3510	1147.289634175729	12
4	3512	1148.068949884525	13
4	3515	1149.130130070969	13
4	3518	1150.970516850218	13
4	3521	1153.315312274357	13
4	3523	1154.981646707055	14
4	3525	1155.43440390165	15
4	3527	1155.750865307714	16
4	3529	1156.366369840481	17
4	3531	1156.515257534332	18
4	3533	1157.025341162988	19
4	3540	1158.533914145522	15
4	3543	1160.867282871822	15
4	3545	1160.969058063467	16
4	3549	1162.706619344431	15
4	3553	1165.755950786248	14
4	3556	1165.772165580509	14
4	3558	1165.902072457292	15
4	3561	1166.122950937712	15
4	3564	1166.296686753985	15
4	3568	1168.147110462817	14
4	3570	1168.321700489783	15
4	3574	1169.816615604924	14
4	3576	1169.856082186596	15
4	3583	1173.448522291261	11
4	3585	1173.475523321876	12
4	3588	1174.434408066229	12
4	3591	1175.798889665048	12
4	3598	1178.597543009253	8
4	3600	1178.815554172973	9
4	3604	1179.136689888427	8
4	3606	1179.313580857015	9
4	3611	1180.154532804981	7
4	3615	1181.229768597162	6
4	3617	1181.263213645616	7
4	3620	1181.472969034623	7
4	3622	1181.604500870992	8
4	3624	1182.286599267443	9
4	3628	1182.840544410374	8
4	3630	1183.074689322892	9
4	3633	1185.157682964176	9
4	3642	1188.685714035086	3
4	3644	1188.896497952992	4
4	3648	1190.108843718834	3
4	3650	1191.934864079028	4
4	3652	1192.191734593417	5
4	3655	1192.578034026489	5
4	3658	1193.218688568054	5
4	3660	1193.260045792358	6
4	3662	1193.503531107196	7
4	3665	1194.535930306252	7
4	3667	1194.572609624316	8
4	3669	1194.941355017089	9
4	3671	1195.72853550002	10
4	3674	1196.076206097267	10
4	3678	1197.117598681384	9
4	3681	1197.360096998413	9
4	3684	1197.738803965035	9
4	3687	1198.888118805106	9
4	3689	1199.190927835708	10
4	3692	1199.640928942199	10
4	3695	1200.852133227349	10
4	3698	1201.798970642155	10
4	3703	1204.443077426361	8
4	3711	1205.580680159206	3
4	3716	1207.291270268642	1
4	3718	1207.310830267541	2
4	3721	1208.104504428019	2
4	3725	1208.956001136108	1
4	3727	1209.56120042228	2
4	3730	1209.671186236767	2
4	3734	1212.569743003575	1
4	3737	1214.009704022354	1
4	3740	1214.6296768257	1
4	3743	1215.085509760717	1
4	3746	1219.618768402038	1
4	3749	1220.07688493632	1
4	3751	1220.088617958359	2
4	3755	1222.107055652474	1
4	3757	1222.245204185579	2
4	3760	1223.101661599414	2
4	3762	1223.129674470565	3
4	3766	1226.28403155034	2
4	3769	1227.062928199335	2
4	3773	1227.61695772229	1
4	3775	1228.158391869647	2
4	3778	1229.572941884672	2
4	3780	1230.382588566356	3
4	3785	1233.478161464564	1
4	3787	1233.507507912568	2
4	3790	1235.189208038601	2
4	3793	1236.077602322275	2
4	3795	1236.123937792771	3
4	3797	1236.481019318773	4
4	3800	1237.117654746953	4
4	3803	1239.192957408667	4
4	3809	1242.888248710089	1
4	3812	1245.612404643407	1
4	3815	1246.258852705874	1
4	3817	1246.347847803755	2
4	3820	1247.85995563319	2
4	3822	1248.087887765585	3
4	3824	1248.201680367856	4
4	3826	1248.392365445123	5
4	3828	1249.129933347013	6
4	3830	1249.52716020684	7
4	3833	1250.280255577715	7
4	3836	1250.917958065463	7
4	3838	1250.970747694942	8
4	3840	1250.977321805276	9
4	3843	1251.134335628418	9
4	3854	1255.54237195197	1
4	3856	1256.279093208587	2
4	3859	1257.0009336226	2
4	3861	1257.223959931874	3
4	3866	1259.284706053254	1
4	3868	1260.161827361592	2
4	3870	1260.857721510153	3
4	3873	1262.429169461052	3
4	3875	1263.769432718412	4
4	3877	1263.848550127273	5
4	3879	1264.580383631243	6
4	3882	1264.630624112585	6
4	3884	1265.609383762389	7
4	3886	1266.056904811133	8
4	3888	1266.131077754496	9
4	3890	1268.18164490905	10
4	3893	1268.454745635542	10
4	3896	1269.82856787156	10
4	3899	1270.805463758521	10
4	3901	1272.170034897682	11
4	3903	1272.18201226407	12
4	3909	1273.65760827961	9
4	3912	1274.162715338382	9
4	3914	1274.342778029114	10
4	3916	1274.98586478287	11
4	3919	1275.838505093402	11
4	3921	1276.84965656984	12
4	3924	1278.54298106571	12
4	3927	1279.067392565777	12
4	3929	1279.189832966599	13
4	3931	1279.506713674047	14
4	3933	1280.151963455693	15
4	3936	1281.631584743116	15
4	3941	1282.920568485236	13
4	3943	1283.302507332952	14
4	3946	1283.945717386178	14
4	3959	1293.263059929654	4
4	3961	1294.084378909769	5
4	3963	1294.363172639949	6
4	3968	1294.96752285591	4
4	3970	1295.97750379837	5
4	3972	1296.422361363211	6
4	3974	1296.568742126167	7
4	3976	1296.613271537481	8
4	3981	1298.8054220149	6
4	3989	1301.823295504134	1
4	3991	1302.815070090899	2
4	3994	1303.590084429418	2
4	3998	1304.063169858794	1
4	4001	1305.404399597641	1
4	4004	1305.583331413427	1
4	4006	1305.721151207795	2
4	4009	1306.784137748451	2
4	4011	1306.915077042096	3
4	4016	1307.387589250993	1
4	4019	1307.64343397918	1
4	4022	1308.64316939057	1
4	4025	1309.686970706652	1
4	4028	1310.985506127718	1
4	4031	1311.54181646349	1
4	4033	1311.745635398485	2
4	4037	1312.814556107897	1
4	4039	1313.592539125312	2
4	4042	1314.10301241212	2
4	4045	1314.754738691107	2
4	4047	1315.254110971433	3
4	4052	1317.885234643679	1
4	4055	1320.931432562176	1
4	4057	1321.148311526295	2
4	4059	1321.212481747879	3
4	4061	1321.619200232629	4
4	4066	1322.312806197576	2
4	4068	1322.497149032106	3
4	4070	1323.856649214189	4
4	4072	1324.780281439058	5
4	4074	1325.264398769712	6
4	4076	1325.505004469943	7
4	4078	1326.113096073839	8
4	4081	1327.852507523861	8
4	4084	1328.190309020564	8
4	4086	1328.20139481372	9
4	4089	1328.565142941105	9
4	4093	1330.974602659077	8
4	4095	1331.035069871377	9
4	4098	1332.048072339528	9
4	4102	1332.691436266996	8
4	4104	1332.748916944154	9
4	4107	1333.54112051343	9
4	4114	1336.935125006474	5
4	4117	1337.843895157423	5
4	4119	1338.560370894083	6
4	4123	1339.852406129285	5
4	4125	1340.084579888096	6
4	4127	1340.220232089197	7
4	4131	1340.909426371569	6
4	4134	1341.599363009191	6
4	4137	1342.691852770378	6
4	4142	1343.562475745363	4
4	4145	1343.739696768244	4
4	4147	1344.345225285773	5
4	4150	1345.170267400883	5
4	4154	1348.351283614465	4
4	4159	1349.586695426324	2
4	4161	1349.761530322708	3
4	4163	1350.428165257422	4
4	4165	1350.722174557622	5
4	4167	1350.849154642082	6
4	4169	1351.680219354166	7
4	4173	1352.237516396111	6
4	4175	1352.685115400044	7
4	4178	1353.769055464774	7
4	4183	1355.127835613772	5
4	4185	1355.141575967893	6
4	4189	1355.884572010961	5
4	4192	1357.993407916599	5
4	4199	1359.41879851782	1
4	4201	1359.445409615057	2
4	4205	1360.682408326713	1
4	4208	1362.987560371544	1
4	4211	1366.043987298654	1
4	4213	1366.292709203974	2
4	4215	1366.77587621736	3
4	4217	1367.347454537204	4
4	4219	1367.492581368523	5
4	4223	1368.42254288961	4
4	4226	1369.777442725187	4
4	4232	1374.163143896879	1
4	4235	1374.328480593781	1
4	4238	1375.636255854382	1
4	4240	1375.803394219564	2
4	4244	1377.121724999878	1
4	4246	1377.241880215962	2
4	4249	1378.444709319555	2
4	4253	1381.338962208779	1
4	4256	1387.266342018913	1
4	4259	1394.895213407605	1
4	4262	1398.829054558562	1
4	4265	1399.470957736243	1
4	4268	1400.170961749936	1
4	4271	1401.905037673107	1
4	4274	1402.088517629262	1
4	4276	1402.653791004009	2
4	4279	1402.838324137913	2
4	4281	1404.106598983421	3
4	4285	1407.179367081826	2
4	4289	1410.863957844593	1
4	4291	1411.155796290029	2
4	4293	1413.466193999256	3
4	4295	1413.707914237242	4
4	4301	1417.690757976598	1
4	4304	1418.805470181839	1
4	4306	1419.103629512444	2
4	4308	1420.067794470295	3
4	4310	1420.266613524577	4
4	4313	1420.619995312075	4
4	4319	1423.25374847063	1
4	4322	1424.468129071228	1
4	4325	1425.704364982399	1
4	4328	1426.220428674269	1
4	4331	1427.963298082409	1
4	4334	1431.235334273908	1
4	4337	1432.312251433947	1
4	4340	1432.388890889377	1
4	4342	1433.12244072064	2
4	4345	1434.209996455381	2
4	4349	1434.996887731716	1
4	4351	1435.66058712236	2
4	4353	1436.461611548632	3
4	4356	1438.818580030374	3
4	4359	1439.481251458599	3
4	4361	1439.877859762815	4
4	4366	1441.328586968641	2
4	4368	1441.692937669581	3
4	4370	1442.037697606179	4
4	4373	1444.379205006339	4
4	4375	1445.482981255726	5
4	4379	1447.982431028159	4
4	4382	1448.698600521688	4
4	4387	1450.178808619118	2
4	4391	1450.709564179602	1
4	4393	1450.990663719603	2
4	4395	1451.241608038045	3
4	4397	1451.406941113698	4
4	4399	1451.558397835683	5
4	4401	1452.666149019651	6
4	4404	1452.88229852391	6
4	4407	1453.24289383755	6
4	4409	1454.333181993089	7
4	4413	1455.870091831371	6
4	4418	1457.523470394283	4
4	4420	1458.0072989734	5
4	4422	1458.068450765357	6
4	4429	1460.444668433285	2
4	4431	1461.619528509861	3
4	4434	1461.925016377038	3
4	4437	1463.179471591894	3
4	4440	1465.489578042955	3
4	4445	1467.558233819443	1
4	4448	1468.462848664924	1
4	4451	1469.698599902553	1
4	4453	1469.886896705296	2
4	4455	1469.98765238009	3
4	4457	1470.38116147396	4
4	4460	1471.37501080653	4
4	4464	1473.285992341847	3
4	4467	1474.541505637881	3
4	4471	1476.131757642286	2
4	4473	1476.50700330476	3
4	4478	1478.141483283922	1
4	4480	1479.91812848772	2
4	4483	1482.03745788499	2
4	4487	1484.924308886598	1
4	4489	1485.561208041152	2
4	4493	1487.678693963146	1
4	4496	1488.94895168235	1
4	4499	1489.871287999646	1
4	4502	1495.679156347703	1
4	4504	1495.870922914122	2
4	4508	1498.776725927211	1
4	4511	1499.131984310916	1
4	4513	1499.529518033798	2
4	4515	1500.212829032121	3
4	4517	1500.280203026475	4
4	4522	1501.117170690657	2
4	4526	1502.143267411836	1
4	4529	1504.087086895831	1
4	4531	1504.612213370686	2
4	4535	1505.660423361897	1
4	4537	1505.848219932948	2
4	4539	1506.993339874552	3
4	4542	1508.136396693864	3
4	4547	1509.671238691849	1
4	4549	1509.718134489773	2
4	4551	1510.839889163421	3
4	4556	1513.670823779649	1
4	4559	1513.882923093822	1
4	4561	1513.94493221994	2
4	4565	1515.38772623503	1
4	4568	1517.390204283025	1
4	4570	1518.491596574065	2
4	4573	1519.298198946201	2
4	4575	1519.517626906091	3
4	4580	1520.895641289481	1
4	4583	1521.253331303369	1
4	4585	1521.771834948211	2
4	4589	1524.0128471696	1
4	4592	1524.599683845632	1
4	4595	1525.092490434626	1
4	4598	1527.188525250088	1
4	4601	1528.64217969727	1
4	4603	1528.880891913871	2
4	4605	1529.972316687757	3
4	4609	1531.17272419583	2
4	4611	1531.429597389013	3
4	4614	1532.660587543549	3
4	4619	1534.795321412511	1
4	4621	1534.857797228202	2
4	4625	1535.744047226928	1
4	4628	1537.676928970758	1
4	4630	1537.738631179636	2
4	4632	1538.126563391327	3
4	4636	1538.790957395341	2
4	4639	1538.837395143275	2
4	4641	1539.63069899384	3
4	4645	1541.710100161639	2
4	4648	1542.558440685492	2
4	4650	1542.939240370411	3
4	4653	1543.327975871381	3
4	4655	1543.460614860839	4
4	4657	1544.200853855011	5
4	4659	1544.221954017933	6
4	4662	1544.268493438106	6
4	4664	1544.985101943132	7
4	4666	1545.46086409373	8
4	4668	1545.570108664498	9
4	4670	1545.924497557488	10
4	4672	1546.471058504881	11
4	4676	1547.205521099996	10
4	4679	1548.640068849757	10
4	4681	1548.696432332715	11
4	4683	1548.815333490192	12
4	4686	1549.333199021646	12
4	4688	1549.828964411037	13
4	4695	1553.635393384038	9
4	4697	1553.992818040292	10
4	4699	1554.081951810344	11
4	4701	1554.191359483436	12
4	4703	1555.326994386813	13
4	4705	1555.547317291227	14
4	4707	1555.877047442923	15
4	4709	1555.937764400075	16
4	4712	1557.746866537078	16
4	4715	1558.502069998635	16
4	4717	1558.732073580279	17
4	4719	1558.877002753553	18
4	4722	1559.906983011196	18
4	4726	1560.523468543136	17
4	4731	1562.450800240067	15
4	4737	1564.132491239743	12
4	4740	1564.716596782172	12
4	4748	1567.282143807268	7
4	4750	1567.657308790821	8
4	4752	1567.687459597859	9
4	4755	1567.997954920389	9
4	4763	1571.084499060839	4
4	4765	1571.548415986313	5
4	4770	1573.258126941989	3
4	4773	1573.720865167437	3
4	4775	1574.150129083799	4
4	4777	1574.15167628675	5
4	4784	1576.938945178088	1
4	4787	1577.899912854478	1
4	4790	1579.166253953081	1
4	4792	1579.690449916399	2
4	4795	1580.616723691406	2
4	4797	1581.594811594811	3
4	4800	1582.039197869323	3
4	4804	1583.369033385364	2
4	4807	1583.860948862656	2
4	4810	1584.961792591381	2
4	4813	1585.244001374846	2
4	4815	1585.506207315159	3
4	4817	1586.102635711446	4
4	4823	1587.470893365427	1
4	4825	1587.805761669688	2
4	4829	1590.173355707385	1
4	4831	1590.802359821341	2
4	4833	1591.307284017962	3
4	4835	1591.589615683547	4
4	4837	1592.935167639522	5
4	4840	1593.0777282016	5
4	4842	1593.081252462272	6
4	4847	1595.018359861974	4
4	4853	1599.260449284683	1
4	4856	1602.426374504571	1
4	4859	1603.007734384206	1
4	4862	1606.059839079605	1
4	4864	1606.193341540979	2
4	4868	1607.983971647024	1
4	4870	1608.136331220208	2
4	4872	1608.899148708782	3
4	4874	1609.935490653515	4
4	4876	1610.674422227077	5
4	4878	1611.233748226801	6
4	4881	1611.913638951179	6
4	4885	1613.996875932277	5
4	4889	1614.883013916664	4
4	4892	1615.581368805158	4
4	4896	1616.361045037696	3
4	4900	1617.903609376686	2
4	4903	1620.559540724324	2
4	4907	1622.008265204524	1
4	4909	1622.462264834077	2
4	4913	1624.349701206733	1
4	4916	1626.320899743391	1
4	4919	1628.467516389624	1
4	4922	1628.750705162086	1
4	4925	1629.325392922488	1
4	4927	1630.037733538596	2
4	4929	1631.519414220833	3
4	4934	1632.228620930243	1
4	4937	1632.906835633391	1
4	4940	1633.206070583693	1
4	4943	1633.41398630777	1
4	4946	1634.226181091977	1
4	4949	1635.952796215306	1
4	4951	1637.32594859639	2
4	4954	1638.049412022506	2
4	4958	1639.696960312583	1
4	4960	1640.461181269868	2
4	4962	1640.692269454943	3
4	4965	1641.118128778862	3
4	4969	1641.91862037023	2
4	4971	1641.962955326161	3
4	4973	1642.29983041667	4
4	4976	1643.490748542911	4
4	4982	1646.296731632094	1
4	4985	1646.385072695308	1
4	4988	1646.674041992013	1
4	4990	1647.216546270194	2
4	4992	1647.235548210653	3
4	4995	1648.148047211656	3
4	4997	1648.375965320414	4
4	5001	1648.885033599454	3
4	5004	1649.068392351342	3
4	5006	1649.611684958521	4
4	5009	1650.174744127914	4
4	5012	1650.986103905073	4
4	5015	1651.789773919832	4
4	5018	1652.021276071547	4
4	5023	1652.605012217631	2
4	5025	1653.217000471404	3
4	5029	1654.147566748333	2
4	5031	1654.532378894474	3
4	5033	1654.733776308021	4
4	5039	1658.481838807415	1
4	5041	1659.127200569268	2
4	5044	1659.390236895833	2
4	5047	1660.44310078491	2
4	5050	1661.365643820328	2
4	5054	1663.237489428771	1
4	5057	1665.945813203949	1
4	5059	1666.687815402358	2
4	5063	1669.27654373975	1
4	5066	1669.686196191769	1
4	5068	1669.973165346969	2
4	5071	1672.24910027564	2
4	5073	1672.912024901171	3
4	5077	1674.045771582019	2
4	5080	1674.523688244055	2
4	5082	1674.657571295394	3
4	5085	1675.64593332865	3
4	5087	1676.705648534894	4
4	5090	1676.953994694697	4
4	5096	1677.93388843481	1
4	5098	1678.346372803803	2
4	5102	1680.112079119634	1
4	5105	1680.975318799817	1
4	5108	1681.777607491804	1
4	5111	1682.690828385846	1
4	5114	1684.018192762529	1
4	5116	1684.570489730099	2
4	5120	1687.65254707602	1
4	5123	1690.395837213116	1
4	5126	1691.765846902689	1
4	5129	1693.25511245302	1
4	5132	1694.697385320901	1
4	5134	1694.753118230662	2
4	5136	1695.260627764024	3
4	5139	1696.664703058093	3
4	5141	1697.761960435187	4
4	5143	1700.004087425803	5
4	5146	1700.989673677361	5
4	5153	1703.298757369768	1
4	5156	1703.904986491519	1
4	5159	1704.195789543229	1
4	5161	1705.168251760012	2
4	5163	1705.221532389986	3
4	5168	1710.471861441189	1
4	5170	1710.862776111084	2
4	5172	1711.261892503297	3
4	5175	1712.527784398154	3
4	5180	1713.931603986118	1
4	5182	1714.171493183004	2
4	5186	1716.473413424709	1
4	5189	1717.499002025291	1
4	5191	1717.627193893902	2
4	5195	1719.816986253257	1
4	5198	1720.608751586737	1
4	5201	1721.233941150377	1
4	5203	1721.323819176844	2
4	5206	1721.92470233747	2
4	5209	1722.390301205852	2
4	5213	1725.283561500434	1
4	5216	1727.031868386139	1
4	5219	1728.549731039128	1
4	5221	1728.7504159653	2
4	5225	1729.129481319279	1
4	5228	1730.41664088552	1
4	5231	1731.526821306494	1
4	5234	1734.271079976676	1
4	5237	1737.476182244722	1
4	5239	1738.284250510814	2
4	5241	1738.467433526651	3
4	5243	1740.081017945118	4
4	5248	1740.676953396964	2
4	5250	1741.070619967084	3
4	5253	1741.394178763779	3
4	5255	1742.156814540389	4
4	5257	1742.568371025629	5
4	5259	1743.221928649831	6
4	5266	1746.73814004972	2
4	5270	1747.138294212059	1
4	5273	1748.993226247779	1
4	5276	1750.962049168924	1
4	5278	1753.10577358831	2
4	5280	1753.437537844527	3
4	5283	1753.91469369614	3
4	5287	1754.191792002704	2
4	5290	1754.223175343229	2
4	5293	1754.608221199006	2
4	5295	1754.839021708824	3
4	5299	1755.47046514476	2
4	5303	1756.2972388105	1
4	5306	1757.752460286977	1
4	5308	1758.494142815575	2
4	5310	1759.42885735827	3
4	5312	1760.599720359064	4
4	5314	1760.704714808922	5
4	5317	1761.395987388305	5
4	5319	1762.511610211318	6
4	5321	1762.678130688518	7
4	5324	1763.033411436086	7
4	5327	1764.230952526308	7
4	5329	1764.394162957405	8
4	5331	1764.774409093788	9
4	5333	1764.789517990742	10
4	5335	1764.971153515798	11
4	5337	1765.742922310962	12
4	5339	1765.931922667421	13
4	5342	1766.67452300764	13
4	5348	1767.881238232271	10
4	5353	1769.471178735774	8
4	5357	1770.756734818	7
4	5359	1771.868052245925	8
4	5362	1773.9574171591	8
4	5368	1775.096701500933	5
4	5371	1775.340455083816	5
4	5373	1775.378326676468	6
4	5375	1775.448010113133	7
4	5377	1776.698897239698	8
4	5379	1776.80830617024	9
4	5383	1777.569978816154	8
4	5390	1780.364467025574	4
4	5396	1785.461042125169	1
4	5398	1785.65292920337	2
4	5401	1786.982420005284	2
4	5405	1787.96657897837	1
4	5408	1789.429032132528	1
4	5410	1790.273122980064	2
4	5412	1790.290224555304	3
4	5414	1790.302775896126	4
4	5416	1791.061325908272	5
4	5418	1791.064280506867	6
4	5423	1792.100812311095	4
4	5425	1792.40940717435	5
4	5427	1794.194771510996	6
4	5433	1796.705261777191	3
4	5435	1797.641179560462	4
4	5437	1797.87993567298	5
4	5439	1798.485255298801	6
4	5441	1798.827598790983	7
4	5444	1799.216819272492	7
4	5447	1800.604923103738	7
4	5451	1802.231591555864	6
4	5454	1803.930391757236	6
4	5461	1807.709626944224	2
4	5463	1807.866953451225	3
4	5465	1808.476353800508	4
4	5469	1810.892771941529	3
4	5472	1811.918305629442	3
4	5474	1812.216446248331	4
4	5477	1813.582560587863	4
4	5479	1813.625779993395	5
4	5483	1814.943348072394	4
4	5485	1815.111944668786	5
4	5488	1817.855457038661	5
4	5491	1818.19381390563	5
4	5494	1820.361796642365	5
4	5499	1822.382128577856	3
4	5504	1823.946793357147	1
4	5506	1824.296112476397	2
4	5508	1825.384746407088	3
4	5510	1825.484712818605	4
4	5515	1829.246400196864	2
4	5519	1831.864406530884	1
4	5522	1832.718705844852	1
4	5524	1833.340961283085	2
4	5528	1836.555394493993	1
4	5530	1836.566233273501	2
4	5532	1837.539066124938	3
4	5534	1837.738131012043	4
4	5537	1839.283357447967	4
4	5541	1840.957549867391	3
4	5544	1841.624561534425	3
4	5548	1842.67697605552	2
4	5551	1843.300805440259	2
4	5554	1843.809901912853	2
4	5556	1844.288800511828	3
4	5558	1844.293338365103	4
4	5561	1844.679092224914	4
4	5564	1846.677603093044	4
4	5566	1846.720942344218	5
4	5573	1854.179413206416	1
4	5576	1855.5815247551	1
4	5579	1856.251209315603	1
4	5582	1859.311559993643	1
4	5585	1861.65830687277	1
4	5587	1861.805638619739	2
4	5589	1861.945252010341	3
4	5592	1863.011130440595	3
4	5595	1863.521228272345	3
4	5597	1864.626833556484	4
4	5602	1865.424530157725	2
4	5604	1865.989932569764	3
4	5606	1866.106135650752	4
4	5608	1866.172398830028	5
4	5615	1868.164308685782	1
4	5618	1869.40312612838	1
4	5620	1869.71006054244	2
4	5624	1871.019363637945	1
4	5626	1871.396481887879	2
4	5630	1872.006789328053	1
4	5633	1873.081256111428	1
4	5635	1873.787297427486	2
4	5638	1875.191340635031	2
4	5642	1878.590124627879	1
4	5645	1879.6593440669	1
4	5647	1879.701872076779	2
4	5651	1881.069600040908	1
4	5654	1882.534266959893	1
4	5656	1883.601754649095	2
4	5658	1884.043975359279	3
4	5662	1884.750819494635	2
4	5664	1885.396464708655	3
4	5668	1886.550004787993	2
4	5670	1886.568062929812	3
4	5672	1886.61829810234	4
4	5675	1887.170972899557	4
4	5677	1887.582285965115	5
4	5679	1887.666162764266	6
4	5681	1887.795866597424	7
4	5683	1888.339675160456	8
4	5688	1889.689992930757	6
4	5690	1890.187946308902	7
4	5692	1891.089761778444	8
4	5694	1891.388522325858	9
4	5697	1893.463362260054	9
4	5699	1893.489332975781	10
4	5701	1893.589141501572	11
4	5704	1894.074204096325	11
4	5707	1895.256310030043	11
4	5710	1895.643473771622	11
4	5712	1895.694541809892	12
4	5714	1895.792449000927	13
4	5716	1896.270659743405	14
4	5719	1896.802966586438	14
4	5723	1897.597693115077	13
4	5727	1898.60460084775	12
4	5729	1899.83515452192	13
4	5731	1903.55652968605	14
4	5733	1904.579459148676	15
4	5738	1906.763729694142	13
4	5741	1907.812967457837	13
4	5743	1908.020515135675	14
4	5748	1908.828587679479	12
4	5750	1909.350882625876	13
4	5759	1915.111422841508	7
4	5762	1915.188892380798	7
4	5766	1917.022640882172	6
4	5768	1917.131342711637	7
4	5771	1917.412172281234	7
4	5774	1917.617152416455	7
4	5776	1919.729572637232	8
4	5779	1920.819359188503	8
4	5783	1922.91404584595	7
4	5786	1924.798492671728	7
4	5788	1924.860497959598	8
4	5790	1925.485267844826	9
4	5792	1925.975113193622	10
4	5798	1927.133408913395	7
4	5802	1927.979499642084	6
4	5805	1928.548504024196	6
4	5808	1928.620625681863	6
4	5810	1929.138792534759	7
4	5813	1931.832165239418	7
4	5816	1932.240448749262	7
4	5820	1934.999791117656	6
4	5823	1935.18192905927	6
4	5828	1937.737225915307	4
4	5830	1938.413507720566	5
4	5833	1939.029607080807	5
4	5835	1939.140070670884	6
4	5837	1939.247984622926	7
4	5839	1939.346415157757	8
4	5844	1940.532787032835	6
4	5846	1941.035880954897	7
4	5849	1941.909998349748	7
4	5851	1942.887283884937	8
4	5853	1943.173675561849	9
4	5856	1943.64797406162	9
4	5858	1943.840280649013	10
4	5860	1943.841140351188	11
4	5862	1943.957594830656	12
4	5870	1946.092489339121	7
4	5873	1946.418734751259	7
4	5880	1948.938696724059	3
4	5883	1949.907204581097	3
4	5886	1950.46349798186	3
4	5888	1950.708217361001	4
4	5894	1952.905064562906	1
4	5897	1955.054477684552	1
4	5900	1955.737287806568	1
4	5903	1956.440221421704	1
4	5905	1956.510705959495	2
4	5907	1956.567582264164	3
4	5910	1956.70704843334	3
4	5912	1956.766731039212	4
4	5914	1957.373895080499	5
4	5916	1957.500179341056	6
4	5919	1958.235644165757	6
4	5922	1959.110490425793	6
4	5925	1959.931649721115	6
4	5927	1960.23690273675	7
4	5933	1964.062401957719	4
4	5938	1966.525216932669	2
4	5941	1967.521459366536	2
4	5945	1968.70063397346	1
4	5948	1970.301003915666	1
4	5951	1972.367445348268	1
4	5953	1973.304667769083	2
4	5955	1973.794216460688	3
4	5957	1974.348303421721	4
4	5959	1975.728009171764	5
4	5962	1976.995500760492	5
4	5964	1977.742372138094	6
4	5966	1979.197671926405	7
4	5970	1981.975838837203	6
4	5972	1983.142083263682	7
4	5974	1983.288960115007	8
4	5977	1983.697822653257	8
4	5981	1985.840918683293	7
4	5983	1986.024252177552	8
4	5985	1986.076807007092	9
4	5987	1986.527510198408	10
4	5993	1989.469050348332	7
4	5995	1989.505123268859	8
4	5997	1989.881574875843	9
4	6001	1993.508998339375	8
4	6003	1993.83616822358	9
4	6005	1994.364444482812	10
4	6008	1995.349714882376	10
4	6012	1996.051127582015	9
4	6014	1997.644964437864	10
4	6016	1998.09904685827	11
4	6019	1999.202516799471	11
5	0	0	0
5	2	0.545042689329	0
5	3	0.623228468175	0
5	5	0.760631504896	0
5	7	1.211993176102	1
5	9	1.2145130387	2
5	11	1.418928910033	3
5	12	1.710768538997	3
5	13	4.561438050047	2
5	15	6.18749645711	2
5	17	6.91789436345	3
5	19	7.187448773333	4
5	21	7.196091466059	5
5	23	7.440752430794	6
5	24	7.643651698522	6
5	25	8.17275346182	5
5	26	8.400720724503	4
5	27	8.622930092713	3
5	29	10.912464781216	3
5	31	11.190629322058	4
5	32	11.906076066844	4
5	33	12.512009326655	3
5	35	12.806997467184	3
5	37	13.394552471895	4
5	38	13.540121497042	4
5	39	13.809108855365	3
5	40	14.409022279856	2
5	42	14.810531024729	2
5	44	15.500115546593	3
5	45	15.997086302914	3
5	46	16.295857713598	2
5	47	16.329432628715	1
5	48	16.526122180994	0
5	50	16.613286206937	0
5	51	16.705029455567	0
5	53	17.092735633851	0
5	55	17.122841309247	1
5	57	17.544065658616	2
5	58	18.01640993416	2
5	60	18.040925976754	2
5	62	18.076582165429	3
5	64	18.595429949295	4
5	66	18.846550907575	5
5	68	19.056816503358	6
5	69	19.182333097977	6
5	70	19.47897131957	5
5	71	19.521209983413	4
5	72	20.014704815455	3
5	73	21.210580477303	2
5	75	21.453672815482	2
5	76	21.60446233333	2
5	77	21.61180710562	1
5	78	21.708966818905	0
5	80	22.910843152887	0
5	81	23.681364806373	0
5	83	24.251969169176	0
5	84	24.304073299335	0
5	86	25.210966865686	0
5	88	25.671064789847	1
5	89	26.57708976785	1
5	90	27.185463272867	0
5	92	28.278464022478	0
5	93	30.109297150912	0
5	95	31.323601556461	0
5	96	31.455328269317	0
5	98	31.716827923405	0
5	100	31.909637115166	1
5	102	32.20153386339	2
5	104	32.207248160409	3
5	106	33.480992421302	4
5	108	34.670483448822	5
5	109	35.10989328145	5
5	110	35.282098447643	4
5	111	35.831424947129	3
5	112	37.561669096296	2
5	113	37.909154594571	1
5	114	39.012777686036	0
5	116	40.465546095901	0
5	118	41.3690479178	1
5	120	41.737033977455	2
5	121	42.079982398101	2
5	123	42.908329739288	2
5	125	43.097055775104	3
5	127	44.182794271089	4
5	128	44.343212172909	4
5	130	44.375632361295	4
5	131	44.74772577257	4
5	132	44.921970457047	3
5	134	45.195277626832	3
5	136	45.374196883709	4
5	137	45.747460171547	4
5	138	46.420211167365	3
5	139	46.43674347208	2
5	140	46.638758282589	1
5	141	47.959318559307	0
5	143	49.520672750128	0
5	144	49.918678395948	0
5	146	50.400184146174	0
5	147	50.849336736551	0
5	149	51.020897485371	0
5	150	51.32425515917	0
5	152	51.662468964943	0
5	153	52.316615083772	0
5	155	52.673510335393	0
5	156	52.885377017018	0
5	158	53.291099226676	0
5	160	53.630748022787	1
5	162	53.8988287995	2
5	163	54.499176251958	2
5	164	54.701166962439	1
5	165	55.113244248014	0
5	167	55.242932950762	0
5	168	55.819074513943	0
5	170	57.182384202563	0
5	172	57.961757052251	1
5	174	58.598323113264	2
5	175	59.091113372519	2
5	177	59.834342934698	2
5	179	59.890472575458	3
5	181	60.065743850845	4
5	182	61.087510393533	4
5	183	61.927298638961	3
5	184	62.413852385909	2
5	185	63.453277305574	1
5	187	65.065005473137	1
5	189	65.834867097724	2
5	191	66.052471506369	3
5	192	66.150604074971	3
5	194	66.362003915217	3
5	195	67.360311623898	3
5	197	67.608622864537	3
5	198	68.143004522488	3
5	199	68.488526683671	2
5	200	68.641721956125	1
5	201	68.657606551447	0
5	203	70.988041191239	0
5	204	72.431024980545	0
5	206	72.6829823196	0
5	207	73.038212239648	0
5	209	76.953688338379	0
5	211	77.590563449947	1
5	212	77.60535127236	1
5	213	77.894385978662	0
5	215	78.734002599856	0
5	216	78.865725340963	0
5	218	79.036576577475	0
5	220	79.189337589931	1
5	222	79.77026212944	2
5	224	80.721215861992	3
5	226	80.956157426921	4
5	227	81.047834006455	4
5	229	81.442302208811	4
5	230	81.573634253689	4
5	231	81.807411536798	3
5	232	82.002679370026	2
5	234	82.082674446277	2
5	235	82.223445321697	2
5	237	82.311432459226	2
5	239	82.574594674448	3
5	240	82.762454366159	3
5	242	82.822194291451	3
5	244	82.99794978591	4
5	246	84.325943485211	5
5	248	84.570645443339	6
5	249	84.688127998046	6
5	250	85.215205889169	5
5	252	86.141380013702	5
5	254	86.316585521667	6
5	255	86.41501056255	6
5	256	86.845791044381	5
5	257	87.295157655738	4
5	258	87.987122394662	3
5	260	88.369629411099	3
5	261	90.025812277509	3
5	262	90.597499200929	2
5	264	91.306625514166	2
5	265	91.581478002331	2
5	267	91.861635033263	2
5	269	92.833812548201	3
5	271	92.868999666038	4
5	273	94.173842959863	5
5	275	94.270156976641	6
5	276	94.896755925287	6
5	277	94.956336009316	5
5	279	96.358366714484	5
5	280	96.363321258295	5
5	282	96.442926892279	5
5	283	96.674303354969	5
5	284	98.249991708285	4
5	286	99.284646177957	4
5	287	99.742073166647	4
5	288	100.400332396303	3
5	289	101.20813897798	2
5	290	101.534947644565	1
5	292	101.756422616744	1
5	294	101.885332224252	2
5	296	102.173647842648	3
5	297	102.299355803663	3
5	298	102.549465973196	2
5	299	103.870984988153	1
5	301	104.316884518535	1
5	302	104.435992771488	1
5	304	104.877270676746	1
5	306	104.978305207865	2
5	307	105.24543732048	2
5	308	105.565207643788	1
5	310	105.766007479712	1
5	311	105.814153905	1
5	312	105.917747890655	0
5	314	107.292708064813	0
5	315	107.682336229277	0
5	317	108.284076470785	0
5	319	109.355462530846	1
5	320	109.378985310663	1
5	321	109.717429753121	0
5	323	111.07274127577	0
5	324	112.056076009199	0
5	326	113.211840779594	0
5	327	113.390685434276	0
5	329	113.593727933819	0
5	330	114.295586313681	0
5	332	114.653911823619	0
5	333	114.895046616706	0
5	335	116.824781092048	0
5	337	116.867404420274	1
5	339	117.612735381374	2
5	340	118.132161725894	2
5	342	118.60898691755	2
5	343	119.025671616349	2
5	344	119.188677032324	1
5	345	120.697704340006	0
5	347	120.726781894343	0
5	348	120.937569999174	0
5	350	121.96832255643	0
5	352	122.028631679184	1
5	353	122.149617287547	1
5	354	122.168187512255	0
5	356	122.635084557472	0
5	358	122.788675032623	1
5	359	123.814777916136	1
5	361	123.902385724189	1
5	363	124.52308459714	2
5	365	126.117338744748	3
5	366	126.352628204486	3
5	368	127.223048351116	3
5	370	127.44082816086	4
5	371	127.775383563477	4
5	372	129.425836382159	3
5	373	130.045768404731	2
5	374	130.106175726726	1
5	375	130.478938064321	0
5	377	133.738492695235	0
5	379	133.923886430349	1
5	381	134.783040642762	2
5	383	134.792353803086	3
5	385	135.06966267372	4
5	386	136.258763015153	4
5	387	136.440465984977	3
5	389	136.456046833269	3
5	391	136.492072626354	4
5	392	136.924317926156	4
5	393	137.090848633273	3
5	395	138.159957494664	3
5	396	138.746898817746	3
5	397	139.059800091756	2
5	399	139.083638810683	2
5	401	139.131907979478	3
5	402	139.713472837883	3
5	403	139.773535667568	2
5	404	139.847564649196	1
5	405	140.019328628316	0
5	407	142.038469726026	0
5	409	142.1154109383	1
5	410	142.208330300951	1
5	412	142.477583800568	1
5	414	144.132681328721	2
5	415	144.216818270145	2
5	416	144.327594184107	1
5	417	145.088295101154	0
5	419	145.55821028233	0
5	420	146.547673862731	0
5	422	146.990954715125	0
5	423	147.021339693877	0
5	425	147.048496608923	0
5	427	148.535816214272	1
5	429	149.125210070251	2
5	431	149.582336420372	3
5	432	149.733748416543	3
5	433	149.990076265382	2
5	434	150.391327569037	1
5	435	151.419186007444	0
5	437	151.898307005891	0
5	438	152.381813469815	0
5	440	152.456743923059	0
5	441	154.631988092652	0
5	443	154.71558311634	0
5	445	155.828878609048	1
5	447	155.946537349213	2
5	449	156.14134200093	3
5	451	158.355621707298	4
5	453	159.284596425645	5
5	455	159.738333815018	6
5	456	160.087886131977	6
5	458	160.246518819913	6
5	459	160.494180907197	6
5	461	160.607297365851	6
5	462	160.996325585349	6
5	463	162.006292258217	5
5	465	162.359677819881	5
5	466	162.41214072997	5
5	467	163.764074082366	4
5	469	164.37352252203	4
5	470	164.527302418392	4
5	471	164.552031961902	3
5	472	164.857528296504	2
5	474	165.620019764611	2
5	475	166.259605678245	2
5	477	166.348507200005	2
5	479	166.386577021327	3
5	480	167.571360668917	3
5	481	168.091470196483	2
5	483	168.148966811896	2
5	485	168.6739416534	3
5	486	168.830023591017	3
5	487	169.093636512219	2
5	489	169.982572800888	2
5	490	170.032632555123	2
5	492	170.620647226253	2
5	493	170.754038562435	2
5	495	172.190193080684	2
5	496	172.257339534715	2
5	497	172.309548377558	1
5	498	172.336249552002	0
5	500	172.520645782809	0
5	501	172.666916839243	0
5	503	172.722086062578	0
5	505	172.94737524761	1
5	507	173.087817467536	2
5	509	173.224964979081	3
5	510	173.853851242274	3
5	512	174.443189210228	3
5	513	174.464510682997	3
5	515	174.691183742884	3
5	516	176.433778398265	3
5	517	177.133819446242	2
5	518	177.523345238152	1
5	519	177.727561600508	0
5	521	177.904577020508	0
5	523	177.906748458781	1
5	524	177.915906551412	1
5	526	177.977583182205	1
5	528	178.20439758558	2
5	530	178.244529202313	3
5	531	179.012690298579	3
5	532	179.076801938023	2
5	534	179.432257951668	2
5	535	180.236854687229	2
5	536	180.328720288091	1
5	537	180.677974483767	0
5	539	181.498654882255	0
5	540	182.081733825625	0
5	542	182.382508187374	0
5	543	183.105325073588	0
5	545	184.274382414165	0
5	546	184.296352462037	0
5	548	189.031943038508	0
5	550	190.665995227151	1
5	552	190.977303016389	2
5	554	191.774656919401	3
5	555	192.127835417601	3
5	557	192.273887976366	3
5	559	192.527151034062	4
5	561	194.064972754338	5
5	562	194.571138066927	5
5	563	194.845206824229	4
5	565	194.997091395957	4
5	566	195.318970709745	4
5	567	196.103932288294	3
5	569	196.254666589032	3
5	571	196.756812797811	4
5	573	197.021616387326	5
5	574	197.509888705276	5
5	575	197.817118904686	4
5	577	197.829604007687	4
5	578	198.048079130461	4
5	580	198.1642239884	4
5	582	198.673052782315	5
5	584	198.994466621996	6
5	586	199.211693112567	7
5	588	199.351668326105	8
5	589	200.10478880179	8
5	590	200.630192751898	7
5	591	201.130361378623	6
5	592	201.44604142935	5
5	593	203.021141742588	4
5	595	203.866513837931	4
5	596	204.23558754937	4
5	597	204.396435197142	3
5	599	204.646021010886	3
5	600	204.874348098371	3
5	601	205.141513162292	2
5	603	205.268795694087	2
5	604	206.744423376118	2
5	605	207.009345332771	1
5	607	208.46437589526	1
5	608	208.929994634548	1
5	610	209.380407283006	1
5	611	209.617272017585	1
5	612	209.889029685615	0
5	614	210.091535937863	0
5	615	210.631780252081	0
5	617	210.644452875895	0
5	619	210.740790109894	1
5	620	212.014390575587	1
5	622	212.989016413354	1
5	623	213.139639963002	1
5	625	214.061101608517	1
5	627	214.78963204078	2
5	629	215.4929101596	3
5	631	216.178108659265	4
5	633	216.593170741296	5
5	634	216.678643896509	5
5	635	216.735139220551	4
5	636	217.025691269391	3
5	638	217.307829335765	3
5	640	218.268605758412	4
5	642	218.583319628954	5
5	643	219.124211795412	5
5	644	219.46742724122	4
5	645	219.738024137577	3
5	647	220.669708389594	3
5	648	220.999060464236	3
5	650	221.006560153223	3
5	651	221.635686738961	3
5	652	222.743078805743	2
5	654	222.753376107125	2
5	655	223.342922068941	2
5	656	223.363817234163	1
5	657	223.906120894865	0
5	659	225.568304601965	0
5	661	225.816280999776	1
5	662	226.566418973843	1
5	664	228.463161549351	1
5	666	228.718599529366	2
5	667	228.996397175194	2
5	668	229.741883753846	1
5	669	230.494479784188	0
5	671	230.577841039098	0
5	673	231.524903311838	1
5	675	231.797753216455	2
5	676	231.86190341274	2
5	677	232.293099703079	1
5	678	232.565545789785	0
5	680	232.789250359756	0
5	682	232.889666849914	1
5	684	233.041927483042	2
5	686	233.11184233024	3
5	687	233.249737094829	3
5	688	233.585786068228	2
5	689	233.801014414012	1
5	690	234.510112646098	0
5	692	235.301996179085	0
5	694	237.867780381392	1
5	695	238.455263296481	1
5	697	238.91055130018	1
5	698	239.235912802275	1
5	700	239.898934184738	1
5	702	240.33199994951	2
5	703	240.356038162575	2
5	705	240.700126745119	2
5	706	240.96852762316	2
5	707	241.244008182032	1
5	708	241.293727957325	0
5	710	242.832253063254	0
5	712	242.949099072362	1
5	714	243.027849619262	2
5	715	243.108088370906	2
5	717	243.374576864053	2
5	719	243.982769277004	3
5	721	246.486301043656	4
5	722	247.028298880446	4
5	723	248.059390546827	3
5	724	249.08520357175	2
5	725	249.646796699881	1
5	726	250.061184229284	0
5	728	250.659006645916	0
5	729	250.691860177796	0
5	731	251.154438104853	0
5	733	251.220197557327	1
5	734	251.238068297314	1
5	735	251.809085190808	0
5	737	252.268760541517	0
5	739	252.669515445544	1
5	741	252.938596372302	2
5	742	252.973888750273	2
5	743	253.351061533942	1
5	744	253.405659844808	0
5	746	256.888811362543	0
5	747	258.002332487762	0
5	749	258.136253022498	0
5	751	258.433906417407	1
5	752	258.831950724737	1
5	754	259.645005227854	1
5	755	259.850835170184	1
5	757	260.616664846045	1
5	759	260.810662463892	2
5	760	260.935661887937	2
5	761	260.999299605479	1
5	762	261.164431623938	0
5	764	262.047141626954	0
5	766	262.176404206294	1
5	768	262.194413088097	2
5	770	262.421059280554	3
5	772	262.440808962651	4
5	774	262.541390817412	5
5	776	262.898960148778	6
5	778	263.141164254079	7
5	779	263.622132095869	7
5	781	264.951162490535	7
5	782	265.149331594648	7
5	783	265.199036491192	6
5	785	265.630586239841	6
5	786	267.358143180402	6
5	787	268.219069311399	5
5	789	268.556106761013	5
5	791	270.074653102419	6
5	792	270.801943215669	6
5	793	270.858307441015	5
5	794	271.651491009508	4
5	796	272.266020479934	4
5	798	272.370939699473	5
5	799	272.613383209228	5
5	800	272.79309825165	4
5	801	273.16772859393	3
5	802	274.46361691333	2
5	803	274.646618275145	1
5	805	274.671054875521	1
5	807	275.245789468657	2
5	809	275.760101996161	3
5	810	275.911840741217	3
5	811	277.158251590271	2
5	813	277.180893215565	2
5	814	277.992122453041	2
5	816	280.033314219451	2
5	817	281.190674754985	2
5	818	282.29052227247	1
5	819	283.043901528149	0
5	821	283.169303388392	0
5	823	283.54035547294	1
5	825	284.819112582235	2
5	827	286.105546382447	3
5	828	286.476020342321	3
5	829	287.001513623197	2
5	831	287.095168930394	2
5	833	287.693664058403	3
5	834	288.703838538682	3
5	835	289.262926503838	2
5	837	289.456920542676	2
5	838	289.718802930302	2
5	839	289.765112331921	1
5	841	290.189721826441	1
5	842	290.56033495577	1
5	843	290.606132430033	0
5	845	290.702408867675	0
5	847	290.969399836468	1
5	849	291.401105269469	2
5	851	291.454787650447	3
5	852	292.255315027268	3
5	854	292.315855972962	3
5	856	292.348072858298	4
5	857	292.478749202871	4
5	859	292.739831135259	4
5	860	293.169258261887	4
5	861	293.265693747097	3
5	862	294.006266895957	2
5	863	294.412857989605	1
5	864	294.628713071093	0
5	866	295.183660911827	0
5	868	295.311127582383	1
5	869	295.370640931408	1
5	871	295.435793198505	1
5	873	296.016958824086	2
5	874	296.272337154502	2
5	876	296.401082417358	2
5	877	296.953866024504	2
5	878	297.579712077376	1
5	879	298.211313074666	0
5	881	299.994771853384	0
5	883	300.644897649823	1
5	884	300.851233305253	1
5	885	300.889826938461	0
5	887	301.028114050162	0
5	889	301.057779690228	1
5	891	301.112512566599	2
5	893	301.241690311356	3
5	894	301.439871797393	3
5	895	302.536961580716	2
5	896	302.957650450702	1
5	897	302.959810688715	0
5	899	304.750794718559	0
5	900	304.984583016902	0
5	902	307.649122769748	0
5	903	309.169959986125	0
5	905	310.68526578442	0
5	907	311.747713249365	1
5	908	311.905117125565	1
5	909	312.651472508088	0
5	911	315.21963566851	0
5	912	315.453891039343	0
5	914	316.698044133439	0
5	916	316.785912925386	1
5	918	317.895328946708	2
5	919	318.564547871893	2
5	921	321.648372088937	2
5	923	321.973568346982	3
5	925	322.347283046763	4
5	926	322.709041137542	4
5	928	322.727114426642	4
5	929	322.87844146844	4
5	930	323.137440707853	3
5	931	323.311019087024	2
5	933	324.069606447787	2
5	935	324.626101665135	3
5	936	324.810542962431	3
5	937	324.891771920387	2
5	938	325.054806422683	1
5	939	325.387880761254	0
5	941	325.70620328995	0
5	942	325.836206347834	0
5	944	330.196885149999	0
5	946	330.622687437389	1
5	947	330.88925377561	1
5	948	331.097186883616	0
5	950	331.24192928014	0
5	951	331.301348954238	0
5	953	332.82337953878	0
5	955	333.202969957735	1
5	956	333.95554082065	1
5	957	334.160861853354	0
5	959	334.366777129455	0
5	960	334.917884229021	0
5	962	335.984617053794	0
5	963	336.481774669257	0
5	965	340.409602099892	0
5	967	340.600776982466	1
5	968	341.833078362839	1
5	970	342.339808772781	1
5	971	342.781626509454	1
5	972	342.930450925585	0
5	974	343.285559108192	0
5	975	343.84048295087	0
5	977	344.719835147623	0
5	978	345.173199901804	0
5	980	346.102492205525	0
5	982	346.614664933751	1
5	983	346.658087603637	1
5	984	346.785645143767	0
5	986	347.21797592175	0
5	987	347.623174616397	0
5	989	347.65252399589	0
5	990	347.67249818894	0
5	992	348.792692532425	0
5	993	348.861891370735	0
5	995	349.429644960847	0
5	996	349.62886432088	0
5	998	351.022852847594	0
5	999	351.840563988233	0
5	1001	352.775468463534	0
5	1002	352.836220431673	0
5	1004	353.044619536479	0
5	1005	353.645486014991	0
5	1007	354.922125527945	0
5	1009	356.455377104681	1
5	1010	356.530185106117	1
5	1011	356.743458893301	0
5	1013	358.53357682667	0
5	1015	359.355393900223	1
5	1016	359.464070068172	1
5	1018	360.407794450664	1
5	1019	360.899453080687	1
5	1020	361.005988276902	0
5	1022	361.228177139176	0
5	1023	361.429366153258	0
5	1025	362.708267343989	0
5	1026	363.060046450365	0
5	1028	363.14146407011	0
5	1029	365.073386860445	0
5	1031	366.421074586059	0
5	1032	367.016158863257	0
5	1034	368.668456477528	0
5	1036	368.964730825321	1
5	1038	369.404853004473	2
5	1040	370.786508781675	3
5	1042	370.930293055335	4
5	1044	370.946502007526	5
5	1045	370.958980134963	5
5	1047	371.207266876284	5
5	1049	371.326798333078	6
5	1051	372.318590807992	7
5	1052	372.929864675427	7
5	1054	372.933247373107	7
5	1055	373.463520192909	7
5	1057	373.586410964631	7
5	1058	373.626836927709	7
5	1059	374.542759307806	6
5	1061	374.574917660367	6
5	1062	374.871309377445	6
5	1064	375.657994085883	6
5	1065	376.184682320732	6
5	1067	376.327896499374	6
5	1068	376.509179569627	6
5	1070	376.683666342137	6
5	1071	376.822206600022	6
5	1073	377.374678900672	6
5	1075	378.046495087205	7
5	1077	379.251813422656	8
5	1078	379.346515133751	8
5	1079	379.587679375211	7
5	1080	379.685552644812	6
5	1081	379.702574007957	5
5	1083	380.476474684731	5
5	1084	380.538175240188	5
5	1085	380.733832564163	4
5	1087	380.736694008965	4
5	1088	380.795395209716	4
5	1090	380.967850971068	4
5	1092	381.259394513632	5
5	1094	381.712239068868	6
5	1095	381.791985704278	6
5	1096	381.802216622972	5
5	1098	382.823430708628	5
5	1100	384.169677088884	6
5	1101	384.75103947533	6
5	1103	385.02163772548	6
5	1104	385.782009100584	6
5	1106	386.310262417762	6
5	1108	386.383432019986	7
5	1109	386.713903556751	7
5	1111	387.093864945757	7
5	1112	387.983380627322	7
5	1114	388.006149904069	7
5	1115	388.017061866175	7
5	1117	389.752478113174	7
5	1118	389.762231780803	7
5	1119	391.048738638518	6
5	1121	391.34396281419	6
5	1123	391.466045919207	7
5	1125	391.504484732345	8
5	1126	391.551564062899	8
5	1127	391.783784039237	7
5	1128	392.374107935216	6
5	1130	392.388175327554	6
5	1131	392.561219747452	6
5	1133	392.875712258641	6
5	1135	392.957861305437	7
5	1136	393.543802461055	7
5	1137	393.730392247416	6
5	1139	394.087704653847	6
5	1140	394.551160985503	6
5	1142	395.183726955584	6
5	1143	395.238159721623	6
5	1144	396.139528553636	5
5	1145	396.223990451955	4
5	1147	396.371822792123	4
5	1148	396.475161009204	4
5	1149	396.496756568378	3
5	1150	396.857198890187	2
5	1151	397.173888094835	1
5	1153	397.306361229358	1
5	1154	397.979925115344	1
5	1156	397.995628814411	1
5	1158	398.466885039734	2
5	1159	398.922540139469	2
5	1160	400.524907294597	1
5	1162	400.596042049878	1
5	1163	400.679789645655	1
5	1164	401.113952620789	0
5	1166	401.325060668483	0
5	1168	401.550568751923	1
5	1170	402.052842775797	2
5	1172	403.497691205314	3
5	1174	403.634349708191	4
5	1175	403.722106300895	4
5	1176	403.825004149786	3
5	1177	404.604030161684	2
5	1179	404.751529694485	2
5	1180	405.102065311131	2
5	1181	405.149529074627	1
5	1183	405.464594775558	1
5	1184	405.736164073919	1
5	1186	405.912137560254	1
5	1187	406.049376632754	1
5	1189	406.079942484564	1
5	1190	406.450304284233	1
5	1192	406.928073018626	1
5	1194	407.158806478568	2
5	1196	407.304938631695	3
5	1197	407.356462008448	3
5	1198	407.771984012328	2
5	1200	407.830925532082	2
5	1201	407.882797346955	2
5	1203	407.920895014542	2
5	1204	408.07706966046	2
5	1205	408.977099258779	1
5	1207	409.062273487846	1
5	1208	409.212759356016	1
5	1210	409.510677777641	1
5	1211	409.98330106225	1
5	1213	410.467345628276	1
5	1215	410.687159242659	2
5	1216	410.753603586415	2
5	1218	411.341348903288	2
5	1220	411.878491115201	3
5	1222	412.065744754791	4
5	1224	412.230472475892	5
5	1226	412.477617040466	6
5	1228	412.635026937242	7
5	1230	413.252722497283	8
5	1231	413.977355481436	8
5	1233	414.07613947585	8
5	1235	414.227539884239	9
5	1237	414.830142555866	10
5	1238	415.208071218254	10
5	1239	416.189764603554	9
5	1241	416.313853107614	9
5	1242	416.392828575408	9
5	1243	416.533961934638	8
5	1244	416.662730277824	7
5	1245	417.216799951394	6
5	1247	417.302265762538	6
5	1249	417.439743612707	7
5	1250	417.811608243565	7
5	1251	418.762812737295	6
5	1252	419.323546574623	5
5	1253	419.533093498592	4
5	1254	419.650071421714	3
5	1256	420.798617700649	3
5	1258	422.06592678332	4
5	1260	422.297729893315	5
5	1262	423.39705750724	6
5	1263	423.53252926845	6
5	1265	423.54290372713	6
5	1266	424.574927510687	6
5	1267	424.813641714458	5
5	1269	425.765457936878	5
5	1270	425.797488364506	5
5	1271	425.909810900836	4
5	1272	425.992238175289	3
5	1274	426.324552558886	3
5	1275	426.666698891673	3
5	1276	426.842219518063	2
5	1278	427.581886930343	2
5	1279	427.606700854841	2
5	1281	427.915908702461	2
5	1282	428.724751308975	2
5	1284	429.105570223714	2
5	1286	429.170381456893	3
5	1288	429.28114914711	4
5	1289	429.337819261848	4
5	1290	429.4105643441	3
5	1291	430.085407348271	2
5	1293	430.618522270506	2
5	1295	430.639696249097	3
5	1296	430.765249504099	3
5	1297	430.996776240749	2
5	1299	431.104354494915	2
5	1300	431.507692019985	2
5	1301	431.581916400936	1
5	1303	432.719240817592	1
5	1304	433.435133868103	1
5	1305	433.667334913885	0
5	1307	436.132314363876	0
5	1309	436.496451553016	1
5	1310	436.78232600645	1
5	1311	437.284225994359	0
5	1313	437.953463144464	0
5	1314	438.186796660161	0
5	1316	440.332522191668	0
5	1317	440.870922481902	0
5	1319	443.948290487598	0
5	1320	443.970409244456	0
5	1322	444.933310281767	0
5	1323	445.452770621762	0
5	1325	445.859192284757	0
5	1326	446.162837760815	0
5	1328	446.770371693326	0
5	1329	446.991648474512	0
5	1331	448.06627875175	0
5	1332	448.376588337714	0
5	1334	448.460384435425	0
5	1336	448.699359093397	1
5	1338	449.769697488996	2
5	1340	450.27162505726	3
5	1341	450.486128024518	3
5	1343	450.867143347539	3
5	1345	451.583185199386	4
5	1346	451.838094258919	4
5	1347	451.966358426094	3
5	1348	452.490735754066	2
5	1349	452.844966854408	1
5	1350	453.15715335927	0
5	1352	453.873008926616	0
5	1353	454.231674921951	0
5	1355	455.307010972428	0
5	1356	455.448119998968	0
5	1358	458.309331647141	0
5	1359	458.813731968056	0
5	1361	460.598283520474	0
5	1362	460.971949106112	0
5	1364	461.250935851088	0
5	1365	461.932642851917	0
5	1367	462.076860633054	0
5	1368	462.167200646682	0
5	1370	462.541057615472	0
5	1371	462.989017145175	0
5	1373	463.623482594737	0
5	1375	463.857064334322	1
5	1376	464.916804027608	1
5	1378	464.941653870296	1
5	1379	465.705487542076	1
5	1381	465.705691858192	1
5	1382	466.795900554808	1
5	1384	466.842313534147	1
5	1385	467.695738470335	1
5	1386	469.110259828344	0
5	1388	469.619607090602	0
5	1389	469.637148249191	0
5	1391	470.204838896615	0
5	1393	470.314355011794	1
5	1394	470.378114484697	1
5	1396	470.661582517394	1
5	1398	470.81939733215	2
5	1399	470.914266512999	2
5	1401	471.578027542326	2
5	1402	471.673879337419	2
5	1403	471.732052728382	1
5	1405	472.584568799272	1
5	1406	472.874405540421	1
5	1408	472.896207448221	1
5	1410	473.465541398974	2
5	1411	473.706039628089	2
5	1413	473.907358323189	2
5	1415	474.54170397041	3
5	1416	474.694547564527	3
5	1418	475.112570853837	3
5	1420	475.521313993558	4
5	1422	475.576684115964	5
5	1423	475.93387039936	5
5	1424	475.981505021606	4
5	1426	476.750287410573	4
5	1428	477.574290263404	5
5	1430	477.818985444843	6
5	1431	478.064543900956	6
5	1432	478.166847809066	5
5	1434	478.361257437546	5
5	1435	478.546951085665	5
5	1437	478.596253305682	5
5	1438	479.093641344866	5
5	1440	479.567135955818	5
5	1441	479.704207007131	5
5	1442	479.86168569892	4
5	1444	479.986191122705	4
5	1446	480.853440253463	5
5	1447	480.900280791466	5
5	1449	481.030233678273	5
5	1450	481.067313459216	5
5	1451	481.313227978064	4
5	1452	482.869168243943	3
5	1453	483.544460311219	2
5	1454	484.058331042382	1
5	1456	484.892539409977	1
5	1458	485.045105660416	2
5	1459	485.073099979899	2
5	1460	485.222391188091	1
5	1461	485.378341218256	0
5	1463	485.968820188022	0
5	1464	486.302014727956	0
5	1466	487.777428979987	0
5	1467	488.222527671716	0
5	1469	490.256167954165	0
5	1471	490.741411412367	1
5	1473	490.83538400991	2
5	1475	491.677326335231	3
5	1477	492.246196656651	4
5	1479	492.276440199594	5
5	1481	492.678321303833	6
5	1482	492.721425304271	6
5	1483	493.39419916104	5
5	1485	493.884046890557	5
5	1486	494.612442892687	5
5	1488	495.094491716388	5
5	1490	495.482609557216	6
5	1491	496.577561906704	6
5	1492	496.619063791456	5
5	1493	497.479275906131	4
5	1494	497.743950876268	3
5	1496	498.016506192332	3
5	1497	498.067254151138	3
5	1499	499.081477556445	3
5	1500	500.152199121606	3
5	1501	500.940306621062	2
5	1502	501.012583393558	1
5	1504	501.206150069909	1
5	1506	501.554702617359	2
5	1507	501.910012175326	2
5	1508	502.095765041058	1
5	1510	502.160775179568	1
5	1511	502.250706521701	1
5	1513	502.342417226878	1
5	1514	502.747326388133	1
5	1515	503.275199915008	0
5	1517	503.760726601676	0
5	1518	503.932937323012	0
5	1520	504.550940375714	0
5	1521	504.686900825915	0
5	1523	505.532013809094	0
5	1524	505.740797541839	0
5	1526	506.179143865521	0
5	1528	506.70231659466	1
5	1530	506.822937280882	2
5	1532	508.06880342153	3
5	1533	508.951638686154	3
5	1535	509.234381489363	3
5	1537	509.256221807419	4
[...]
8	4505	1496.214716679687	0.535560331984
8	4506	1497.414179920006	1.543257005884
8	4509	1498.885845242294	0.109119315083
8	4518	1500.450607134769	1.318622823853
8	4519	1500.801714289676	1.272196255878
8	4520	1500.993391639205	0.780562607084
8	4523	1501.423433367416	1.143230340941
8	4524	1501.774782583127	0.65761189247
8	4527	1502.239250048778	0.095982636942
8	4532	1505.303861085098	1.216774189267
8	4533	1505.317875376471	0.705662005785
8	4540	1507.67829370506	2.017870343163
8	4543	1508.938805493301	3.090585560353
8	4544	1508.946642558728	1.953302684176
8	4545	1509.126942460865	0.990545767001
8	4552	1511.101236127204	1.429997435355
8	4553	1511.210416332256	1.492281842483
8	4554	1513.506297377185	2.666408213764
8	4557	1513.743554053987	0.072730274338
8	4562	1514.006805569561	0.123882475739
8	4563	1514.287219651163	0.342287431223
8	4566	1517.200005482561	1.812279247531
8	4571	1518.789631122501	1.399426839476
8	4576	1520.13619696229	1.644600388225
8	4577	1520.560327441492	1.262128495291
8	4578	1520.608009943246	1.090383037155
8	4581	1521.171035337112	0.275394047631
8	4586	1521.849816137156	0.596484833787
8	4587	1522.095329945995	0.323494997784
8	4590	1524.265886648062	0.253039478462
8	4593	1524.883886879088	0.284203033456
8	4596	1525.130100070779	0.037609636153
8	4599	1527.95785667713	0.769331427042
8	4606	1530.461969074623	1.819789377353
8	4607	1530.935485991685	2.054594077814
8	4612	1531.618816955118	1.646500267361
8	4615	1532.704693221599	1.531969025769
8	4616	1532.84717430342	1.417576914407
8	4617	1533.0328616076	0.372274064051
8	4622	1534.935355694017	0.140034281506
8	4623	1535.646333662905	0.788536434703
8	4626	1535.89121277857	0.147165551642
8	4633	1538.253279479432	0.576350508674
8	4634	1538.482344604168	0.743713424532
8	4637	1538.816619462995	0.690056071668
8	4642	1541.040381606904	2.249424211563
8	4643	1541.054372182113	2.216977038838
8	4646	1542.443388787868	2.812689794028
8	4651	1543.16687078472	1.456770623081
8	4660	1544.250284224514	1.691843539022
8	4673	1546.521127793667	3.581887423256
8	4674	1546.677153331559	3.349177460178
8	4677	1547.694669887992	4.234055027153
8	4684	1548.820258080801	4.61940422579
8	4689	1550.162115213182	5.940161195249
8	4690	1550.490358954964	6.221865516858
8	4691	1551.324387849856	6.339285906724
8	4692	1552.29893337905	6.83806928532
8	4693	1553.596521392778	8.02641272828
8	4710	1556.418854190399	10.494356632911
8	4713	1557.814036674018	11.342978169137
8	4720	1559.750540849967	12.545019749971
8	4723	1560.226822434374	11.586753584617
8	4724	1560.345486999114	11.649054666399
8	4727	1561.443254363668	12.627920873476
8	4728	1561.469022732204	12.135823710558
8	4729	1562.070692512654	12.241728101617
8	4732	1562.487835244048	8.85244186001
8	4733	1562.731084623913	8.738266583621
8	4734	1563.17845275761	9.096500947266
8	4735	1563.640860803114	9.449501319678
8	4738	1564.240047761207	8.913053374394
8	4741	1564.842089668707	9.29477237748
8	4742	1565.127101698744	9.250054255821
8	4743	1565.253178379543	9.315413979468
8	4744	1565.313203923687	7.566337386609
8	4745	1565.41496615903	6.912896160395
8	4746	1566.6032837078	7.871210127521
8	4753	1567.875566315557	8.998563562004
8	4756	1568.173702603045	8.266719591849
8	4757	1569.119092293157	8.595623750021
8	4758	1569.290511776719	6.839711536652
8	4759	1569.433650303515	5.301159063772
8	4760	1570.524900483489	5.808303701317
8	4761	1570.681491284265	3.399347476997
8	4766	1571.568103889984	3.910795099163
8	4767	1572.154718283982	4.467258686123
8	4768	1573.243428882422	5.245473962033
8	4771	1573.480844268513	2.396345207674
8	4778	1574.815009401083	3.26659341477
8	4779	1575.305967999537	2.047841057548
8	4780	1576.163781080001	2.442915912564
8	4781	1576.743336162709	2.59320707891
8	4782	1576.835791515433	2.684115228683
8	4785	1577.022375972154	0.083430794066
8	4788	1578.22877779838	0.328864943902
8	4793	1579.704560014659	0.538306061578
8	4798	1581.724412775148	2.033962858749
8	4801	1582.974374548309	2.357650856903
8	4802	1583.285827004631	1.69101540982
8	4805	1583.678276921601	1.639079052278
8	4808	1584.063597705252	0.694564319888
8	4811	1585.070256786915	1.209307924259
8	4818	1586.365010727519	1.403218136138
8	4819	1586.644331787435	1.400330412589
8	4820	1586.76016512953	1.253957814371
8	4821	1587.213745737392	1.111110025946
8	4826	1588.181035741442	0.710142376015
8	4827	1588.949339657802	1.143577988114
8	4838	1592.962802389539	2.789446682154
8	4843	1594.226364945858	3.424005124517
8	4844	1594.354200981611	3.046916963649
8	4845	1594.955570029203	3.365954345656
8	4848	1595.423168898274	2.488001258752
8	4849	1596.228634762181	3.150906560581
8	4850	1596.928726948661	3.847474486389
8	4851	1598.560633104403	3.542273242429
8	4854	1599.477926260915	0.217476976232
8	4857	1602.561428680179	0.135054175608
8	4860	1603.658544755385	0.650810371179
8	4865	1606.230294037902	0.170454958297
8	4866	1606.3976474082	0.204305867221
8	4879	1611.404285557163	3.420313910139
8	4882	1613.029378951473	4.893047731265
8	4883	1613.841437448769	4.942288739987
8	4886	1614.694334554581	4.758843901066
8	4887	1614.763252543408	4.088830316331
8	4890	1615.426378233751	4.19263000695
8	4893	1616.025398312617	4.111759361438
8	4894	1616.326989733992	2.330113801715
8	4897	1617.475215608659	2.592201691995
8	4898	1617.664213078376	2.082844273218
8	4901	1620.334558552219	3.973513514523
8	4904	1620.857316901227	2.953707524541
8	4905	1620.948777644931	0.389236920607
8	4910	1622.465369041169	0.457103836645
8	4911	1622.517180243063	0.054915408986
8	4914	1624.367880230091	0.018179023358
8	4917	1626.419917143782	0.099017400391
8	4920	1628.48065574237	0.013139352746
8	4923	1629.259560705122	0.508855543036
8	4930	1631.772077073648	2.44668415116
8	4931	1631.896247750774	1.858514212178
8	4932	1632.093257108391	0.573842887558
8	4935	1632.451317503123	0.22269657288
8	4938	1633.01832276988	0.111487136489
8	4941	1633.402408810576	0.196338226883
8	4944	1633.718883183388	0.304896875618
8	4947	1634.27783151389	0.051650421913
8	4952	1637.864082017552	1.911285802246
8	4955	1638.575982120907	1.250033524517
8	4956	1639.210490679509	1.161078657003
8	4963	1640.866832897144	1.169872584561
8	4966	1641.24047930441	0.779298034542
8	4967	1641.878599061253	1.18632960631
8	4974	1642.875633424333	1.757504645471
8	4977	1643.957435232226	2.038814861996
8	4978	1644.026723656428	2.063768330267
8	4979	1644.443702493815	2.143872077145
8	4980	1644.9332528986	1.442504355689
8	4983	1646.366973068973	0.070241436879
8	4986	1646.597565568873	0.212492873565
8	4993	1647.412687698165	0.738645706152
8	4998	1648.435713185683	1.219166915489
8	4999	1648.533471791327	1.297923580674
8	5002	1648.954479552009	0.806432340353
8	5007	1650.144180369314	1.7682150489
8	5010	1650.42784314764	1.542809548186
8	5013	1651.603082531306	2.534690179964
8	5016	1651.951922686658	2.340237728137
8	5019	1652.324599992658	2.149855864744
8	5020	1652.383258205668	1.397154300595
8	5021	1652.440163276283	0.650389356451
8	5026	1653.471360879429	1.450084807882
8	5027	1653.6977295587	1.092717341069
8	5034	1654.877674196058	1.660673724654
8	5035	1654.924026629129	0.776459880796
8	5036	1655.711780267461	1.179401372987
8	5037	1655.874774797119	1.140998489098
8	5042	1659.323372580825	0.84153377341
8	5045	1659.47962729304	0.352426723772
8	5048	1660.651528104671	1.261291208838
8	5051	1662.448807470924	2.005706686014
8	5052	1663.191294939972	1.825651119644
8	5055	1663.773913714429	0.536424285658
8	5060	1666.726900018745	0.781086814796
8	5061	1667.184489936	0.496674533642
8	5064	1669.532397986136	0.255854246386
8	5069	1670.443875995031	0.757679803262
8	5074	1672.936318301969	2.963152955
8	5075	1673.737606334847	1.488506059207
8	5078	1674.50952934788	1.597504446709
8	5083	1675.100500175703	1.054728593684
8	5088	1676.847387499431	2.323699255376
8	5091	1677.190925310172	2.533354014778
8	5092	1677.223232910653	1.577299582003
8	5093	1677.261322808485	0.555674273591
8	5094	1677.354026191481	0.400031496784
8	5099	1678.748600344285	0.814711909475
8	5100	1679.151121232038	0.804748428235
8	5103	1680.850137052848	0.738057933214
8	5106	1681.740948643043	0.765629843226
8	5109	1682.517298111997	0.739690620193
8	5112	1683.96347516626	1.272646780414
8	5117	1686.199277782392	2.181085019863
8	5118	1686.665654832715	2.095165102616
8	5121	1689.231611887462	1.579064811442
8	5124	1690.526534245987	0.130697032871
8	5127	1692.478441019992	0.712594117303
8	5130	1693.96595931386	0.71084686084
8	5137	1696.103283543715	1.405898222814
8	5144	1700.502473390323	5.749355159661
8	5147	1701.558847043398	6.298219279374
8	5148	1701.798961338955	5.134258280862
8	5149	1701.820309618007	4.05834918282
8	5150	1701.900204973691	1.896117547888
8	5151	1702.419399986104	1.429726308743
8	5154	1703.323797926768	0.025040557
8	5157	1704.112204677259	0.20721818574
8	5164	1705.392441689396	1.196652146167
8	5165	1705.505604534408	0.337352774396
8	5166	1707.916731697484	2.695199307498
8	5173	1711.555752317756	1.083890876567
8	5176	1712.792724891437	1.929948780353
8	5177	1712.883807631383	1.621915128086
8	5178	1713.767997054924	1.24021265677
8	5183	1714.755890160147	0.824286174029
8	5184	1715.442470162652	1.270976979648
8	5187	1716.567545751905	0.094132327196
8	5192	1718.066860419189	0.567858393898
8	5193	1719.423725275417	1.796531381515
8	5196	1719.951276059455	0.134289806198
8	5199	1720.964073726826	0.355322140089
8	5204	1721.734251488186	0.500310337809
8	5207	1722.309974593766	0.986155416922
8	5210	1722.953309439809	1.028607102339
8	5211	1723.196913784776	0.806612578924
8	5214	1725.557192276506	0.273630776072
8	5217	1727.323987881432	0.292119495293
8	5222	1729.02397238534	0.474241346212
8	5223	1729.12136531479	0.37094934949
8	5226	1729.31102234346	0.181541024181
8	5229	1730.952136701096	0.535495815576
8	5232	1732.356198386878	0.829377080384
8	5235	1734.531494913113	0.260414936437
8	5244	1740.231409114649	2.755226869927
8	5245	1740.302873894869	2.018623384055
8	5246	1740.557555857662	2.090122331011
8	5251	1741.323341196337	1.242323251219
8	5260	1743.867263872418	3.190310475454
8	5261	1744.553830176983	3.483210209899
8	5262	1744.741389411622	3.347210647843
8	5263	1745.161060297995	3.004245757606
8	5264	1746.313036119086	3.744665093457
8	5267	1746.751470180837	3.529541531006
8	5268	1746.820612046755	0.082471997035
8	5271	1747.557545000425	0.419250788366
8	5274	1749.336022447578	0.342796199799
8	5281	1753.476769569894	2.51472040097
8	5284	1753.993767961414	0.887994373104
8	5285	1754.118837746813	0.681299902286
8	5288	1754.208280982954	0.293587286814
8	5291	1754.4581648674	0.266372864696
8	5296	1754.920392283356	0.697216940127
8	5297	1755.235415232566	0.62719403356
8	5300	1755.641421185333	0.802399476509
8	5301	1755.974450894533	0.503985749773
8	5304	1756.731361671689	0.434122861189
8	5315	1761.167446335755	3.414986048778
8	5322	1762.743275085501	4.249132269926
8	5325	1763.396457785102	3.967600426832
8	5340	1766.602927487848	6.003207128784
8	5343	1767.314448162976	6.609733354054
8	5344	1767.441574454087	6.045587065782
8	5345	1767.443093160567	4.931482949249
8	5346	1767.501548040362	4.823417351844
8	5349	1768.149800156612	5.116388720526
8	5350	1768.169236728845	3.938284202537
8	5351	1768.929997614925	4.53583465752
8	5354	1769.990392392805	5.215983299017
8	5355	1770.18126566946	5.391747678718
8	5360	1773.18885138429	8.217697868492
8	5363	1773.965300227333	8.222377916371
8	5364	1774.203829745996	8.271907078575
8	5365	1774.589564924784	7.915041917144
8	5366	1775.062939048491	7.18170081622
8	5369	1775.279761478576	5.808582742802
8	5380	1777.288601663125	6.531866845125
8	5381	1777.394575540345	5.52652329442
8	5384	1779.247971808651	5.290554649551
8	5385	1779.323899471261	4.227197970328
8	5386	1779.436353188969	4.095898105153
8	5387	1780.113754715714	4.735428039246
8	5388	1780.132823083314	4.684812970181
8	5391	1780.403467246271	3.704570006573
8	5392	1783.359936682742	6.551630512502
8	5393	1785.192437514071	7.622458697917
8	5394	1785.218574472221	4.854107446647
8	5399	1786.154166388677	0.693124263508
8	5402	1787.068553194867	1.415623991497
8	5403	1787.473295556904	0.49087555162
8	5406	1788.626596879532	0.660017901162
8	5419	1791.179369990303	1.750337857775
8	5420	1791.296482885087	1.023359905023
8	5421	1791.620841502714	1.33061694741
8	5428	1794.265217816183	3.962441920057
8	5429	1795.065155307263	4.003829398991
8	5430	1795.101072548806	4.036792041939
8	5431	1796.029618782089	3.928806470994
8	5442	1799.029810729234	6.620403554884
8	5445	1799.920580725707	5.725809214711
8	5448	1801.426624506798	4.721362729607
8	5449	1801.944227639591	4.303048079129
8	5452	1803.257133699263	5.377198026283
8	5455	1804.36144882304	5.876193524239
8	5456	1805.740935968967	6.913337177984
8	5457	1806.887501137152	7.67068186466
8	5458	1807.646617143152	7.041694039414
8	5459	1807.708146586251	5.476555030387
8	5466	1809.389639826243	5.459248069007
8	5467	1810.308467006867	2.598840062643
8	5470	1811.785233241569	3.918279790344
8	5475	1812.984837653498	4.50848385299
8	5480	1813.754700964845	2.861929023316
8	5481	1814.434284445221	2.515978815779
8	5486	1816.623676141031	4.4072298927
8	5489	1818.180364138601	4.597803550738
8	5492	1820.181129569024	6.555349575629
8	5495	1821.284973491325	6.341625418931
8	5496	1821.732200893848	6.620256225062
8	5497	1822.377558918866	4.522101880205
8	5500	1822.702103974471	4.508290068841
8	5501	1823.205595024711	2.843798382346
8	5502	1823.584006655636	1.20187807778
8	5511	1825.724217004642	1.777423647495
8	5512	1827.440390776537	3.14427830014
8	5513	1828.749480387572	3.364733980484
8	5516	1829.988175668964	4.503462850359
8	5517	1830.80906517959	1.562664982726
8	5520	1832.1783245306	0.313917999716
8	5525	1833.896430710234	1.177724865382
8	5526	1834.126268721359	0.785307438274
8	5535	1838.880725433077	2.325330939084
8	5538	1840.526661557467	3.960428283966
8	5539	1840.938734925667	3.399668800729
8	5542	1841.574479961184	3.836348949141
8	5545	1841.671875900317	2.38851845235
8	5546	1841.692968393872	0.735418526481
8	5549	1842.929925282518	1.305363748093
8	5552	1843.773763246879	1.096787191359
8	5559	1844.664071070077	1.363265629818
8	5562	1846.241080130553	2.4311782177
8	5567	1847.724386105103	3.435585593275
8	5568	1847.753857055624	3.460518690521
8	5569	1848.269060066123	3.589967841209
8	5570	1848.536483088468	1.858879995424
8	5571	1849.986164405763	3.265222061545
8	5574	1854.278789905783	0.099376699367
8	5577	1856.092017381719	0.510492626619
8	5580	1856.661833343822	0.410624028219
8	5583	1859.913528343941	0.601968350298
8	5590	1862.351911716591	0.693604843821
8	5593	1863.131321899067	1.325683279328
8	5598	1864.636932113187	2.691680102846
8	5599	1864.834869172882	1.823738732287
8	5600	1865.212946161693	1.691717889348
8	5609	1866.229546446708	1.602712890224
8	5610	1866.739454519972	1.314924362247
8	5611	1866.995681750938	1.005749181174
8	5612	1867.223655705643	1.117520054891
8	5613	1867.233217066252	1.060818236224
8	5616	1869.163862557579	0.999553871797
8	5621	1870.118807013283	0.715680884903
8	5622	1870.920835125845	1.210774583405
8	5627	1871.773653992711	0.754290354766
8	5628	1871.836460109629	0.43997822175
8	5631	1872.174499496719	0.167710168666
8	5636	1875.03007679501	1.948820683582
8	5639	1875.471284161268	1.683986733782
8	5640	1875.474457094453	0.283116459422
8	5643	1879.248993569189	0.65886894131
8	5648	1880.405277377092	0.745933310192
8	5649	1881.02487533749	1.323003260711
8	5652	1881.602814643003	0.533214602095
8	5659	1884.395475488407	1.861208528514
8	5660	1884.411623882035	0.80986923294
8	5665	1885.706162820607	1.662187461328
8	5666	1886.134759273081	1.383939778446
8	5673	1886.727128496613	1.330663787958
8	5684	1888.86169344714	2.311688659147
8	5685	1889.153631056968	2.585568127156
8	5686	1889.632212552526	3.013914450186
8	5695	1891.958278663431	4.787305763874
8	5702	1893.849695267292	6.267409302177
8	5705	1894.147731915788	6.481569151522
8	5708	1895.347782442913	7.551915845489
8	5717	1896.553942955897	8.214267795441
8	5720	1896.956607120495	7.266614189738
8	5721	1897.169031245642	6.98108493674
8	5724	1897.923757849939	6.833996071495
8	5725	1898.438694976668	7.05017265081
8	5734	1904.942969954289	11.479607694235
8	5735	1905.762389511149	12.273056535368
8	5736	1906.046156138946	12.457014637374
8	5739	1907.696338436803	13.622134340478
8	5744	1908.073814720171	12.817504690128
8	5745	1908.293774841588	12.650301069966
8	5746	1908.373095880067	12.678554070175
8	5751	1910.273489871588	14.481040870661
8	5752	1910.364262731762	14.093602988357
8	5753	1911.144259795452	14.341293209014
8	5754	1912.418075660787	14.82038254571
8	5755	1913.037648804909	14.433047957159
8	5756	1913.469410233487	13.634255711567
8	5757	1913.612810375485	10.056280689435
8	5760	1915.114374242198	10.534915093522
8	5763	1915.661797749753	8.898068055611
8	5764	1916.034483007011	8.221515549174
8	5769	1917.161125752222	9.140610616547
8	5772	1917.602833156948	8.774245477469
8	5777	1919.734100054217	10.383217428341
8	5780	1921.419499511255	6.308076669747
8	5781	1922.758409357948	7.56951697715
8	5784	1924.194479502856	7.171838620684
8	5793	1926.098056348442	8.966713636805
8	5794	1926.101922921577	8.689750640343
8	5795	1926.421434542776	8.804282126321
8	5796	1927.114828214706	7.385255577474
8	5799	1927.230848083636	6.411488895133
8	5800	1927.429226952999	4.515181107049
8	5803	1928.459105579805	3.660612908077
8	5806	1928.56410891873	3.703610959132
8	5811	1930.603202943022	5.117935098196
8	5814	1931.91500786031	5.939894666688
8	5817	1934.841779654597	7.708370741202
8	5818	1934.912361337563	6.932861695479
8	5821	1935.030171891776	6.48166786758
8	5824	1935.414463239914	6.793837558051
8	5825	1935.935492690274	6.796700155515
8	5826	1936.777231140721	4.945065901303
8	5831	1938.815231329337	6.574782580075
8	5840	1940.132508594119	5.132717476463
8	5841	1940.15674569215	4.97481663288
8	5842	1940.295448883961	2.558222968654
8	5847	1941.841454220531	3.427946499965
8	5854	1943.453347970159	4.423740889352
8	5863	1944.09233977459	4.952269103706
8	5864	1944.622991505876	5.37500688295
8	5865	1944.937892071451	5.591476913694
8	5866	1945.25806691181	4.725279878975
8	5867	1945.661991915898	4.626110961001
8	5868	1945.864907650459	3.954909300711
8	5871	1946.229808656281	3.342524771344
8	5874	1946.778030377575	3.604354815726
8	5875	1947.117171575499	3.469197513879
8	5876	1947.284385278608	3.444104629595
8	5877	1947.629139385502	3.787999034314
8	5878	1947.804081395154	3.846486564498
8	5881	1948.955912028975	2.863422689854
8	5884	1950.043045810605	3.624311059346
8	5889	1950.843859935609	1.90516321155
8	5890	1951.617438452484	1.710233871387
8	5891	1951.752011242021	1.288513260161
8	5892	1952.424256769421	1.71603940842
8	5895	1952.952180242559	0.047115679653
8	5898	1955.213804477512	0.15932679296
8	5901	1955.822461685473	0.085173878905
8	5908	1956.61880058639	0.178579164686
8	5917	1957.573170667508	1.062464708013
8	5920	1958.484835604585	1.917253340421
8	5923	1959.865376458921	3.158328025581
8	5928	1960.442790307963	3.676059268751
8	5929	1960.562909401908	3.189014321409
8	5930	1963.002760968746	5.50258162769
8	5931	1963.349349842994	5.113705677237
8	5934	1965.357828333745	6.247337907952
8	5935	1965.73543361685	5.803783895735
8	5936	1966.162053661174	5.925150924424
8	5939	1967.428323871838	3.365921914119
8	5942	1967.614360128598	1.089143195929
8	5943	1967.785530940937	0.264071574401
8	5946	1968.964882714175	0.264248740715
8	5949	1970.425381828976	0.12437791331
8	5960	1975.740846792682	3.373401444414
8	5967	1979.282586227562	5.977918458479
8	5968	1981.916812971223	8.122596510535
8	5975	1983.636082786331	9.28777936461
8	5978	1984.15162790249	8.423618730726
8	5979	1984.85764950398	7.862148743488
8	5988	1986.761641255772	9.019269117678
8	5989	1986.968484064217	7.770812137812
8	5990	1987.895256018221	5.919417181018
8	5991	1988.603536351649	5.461453087967
8	5998	1991.250531488151	7.961571373144
8	5999	1992.05653557732	8.358712924063
8	6006	1995.136894046806	9.295975363513
8	6009	1995.845529056604	9.821276879052
8	6010	1996.01000471555	9.933197708458
8	6017	1998.778298765071	12.250788566663
8	6020	1999.408908028248	9.939857679916
8	6021	1999.678935048629	10.17381177977
9	6022	2000	0
10	6022	2000	1.0005

