file 37183 1670517737                                           
version 2
run Consistency_test_bosses_waiting_time-14-20221208-17:42:17-15368
attr configname Consistency_test_bosses_waiting_time
attr datetime 20221208-17:42:17
attr experiment Consistency_test_bosses_waiting_time
attr inifile omnetpp.ini
attr iterationvars $0=2
attr iterationvarsf 2-
attr measurement $0=2
attr network Network
attr processid 15368
attr repetition 4
attr replication #4
attr resultdir results
attr runnumber 14
attr seedset 4
param *.boss.arrival_mean 10
param *.boss.service_mean 2
param **.minion.arrival_distribution 0
param **.minion.service_distribution 0
param *.minion.arrival_mean 10
param *.minion.service_mean 1
param **.boss.arrival_distribution 0
param **.boss.service_distribution 0

vector 0 Network.player minion_jobs_number_stat:vector ETV
attr source signal_minion_jobs_number
vector 1 Network.player minion_jobs_queue_number_stat:vector ETV
attr source signal_minion_jobs_queue_number
vector 2 Network.player minion_recovered_stat:vector ETV
attr source signal_minion_recovered
vector 3 Network.player minion_defeated_stat:vector ETV
attr source signal_minion_defeated
vector 4 Network.player boss_jobs_number_stat:vector ETV
attr source signal_boss_jobs_number
vector 5 Network.player boss_jobs_queue_number_stat:vector ETV
attr source signal_boss_jobs_queue_number
vector 6 Network.player boss_defeated_stat:vector ETV
attr source signal_boss_defeated
vector 7 Network.player minion_waiting_time_stat:vector ETV
attr source signal_minion_waiting_time
vector 8 Network.player minion_response_time_stat:vector ETV
attr source signal_minion_response_time
vector 9 Network.player boss_waiting_time_stat:vector ETV
attr source signal_boss_waiting_time
vector 10 Network.player boss_response_time_stat:vector ETV
attr source signal_boss_response_time
vector 11 Network.player minion_throughput:vector ETV
attr source signal_minion_throughput
vector 12 Network.player boss_throughput:vector ETV
attr source signal_boss_throughput
0	1963 2881 0 623 0 960.517106469297 118 0 3 143 205
1	4844 5749 0 624 0 960.585066650692 235 0 2 52 72
2	10593 279 0 538 0 816.278860132989 12 0 11 66 506
3	10872 3002 0 624 0 960.585066650692 118 0 117 6903 540735
4	13874 2272 0 626 0 967.702635537441 93 0 2 103 125
5	16146 4539 0 627 0 970.400775974211 185 0 1 22 22
6	20685 2358 0 627 0 970.400775974211 93 0 92 4278 263810
7	23043 3777 2 623 2.526896176115 960.517106469297 128 0 9.422965690781 77.755636887161 238.56099622122
8	26820 4375 3 624 2.875978594682 960.585066650692 117 0.001124531177 13.582395349067 173.4355405176 616.74155347267
9	31195 2411 8 626 10.5089196372 967.702635537441 92 0 7.586982258832 17.087555211446 75.282530040985
10	33606 3540 9 627 10.714167287703 970.400775974211 92 0.016363267531 10.336270711482 184.83161931535 759.0843552912
11	37146 18 628 628 1000 1000 1 0.117 0.117 0.117 0.013689
12	37164 18 628 628 1000 1000 1 0.092 0.092 0.092 0.008464

