file 70067 1671101034                                           
version 2
run Consistency_test_bosses_waiting_time-13-20221215-11:43:54-6221
attr configname Consistency_test_bosses_waiting_time
attr datetime 20221215-11:43:54
attr experiment Consistency_test_bosses_waiting_time
attr inifile omnetpp.ini
attr iterationvars $0=2
attr iterationvarsf 2-
attr measurement $0=2
attr network Network
attr processid 6221
attr repetition 3
attr replication #3
attr resultdir results
attr runnumber 13
attr seedset 3
param *.boss.arrival_mean 10
param *.boss.service_mean 2
param **.minion.arrival_distribution 0
param **.minion.service_distribution 0
param *.minion.arrival_mean 10
param *.minion.service_mean 1
param **.boss.arrival_distribution 0
param **.boss.service_distribution 0

vector 0 Network.player minion_jobs_number_stat:vector ETV
attr source signal_minion_jobs_number
vector 1 Network.player minion_jobs_queue_number_stat:vector ETV
attr source signal_minion_jobs_queue_number
vector 2 Network.player minion_recovered_stat:vector ETV
attr source signal_minion_recovered
vector 3 Network.player minion_defeated_stat:vector ETV
attr source signal_minion_defeated
vector 4 Network.player boss_jobs_number_stat:vector ETV
attr source signal_boss_jobs_number
vector 5 Network.player boss_jobs_queue_number_stat:vector ETV
attr source signal_boss_jobs_queue_number
vector 6 Network.player boss_defeated_stat:vector ETV
attr source signal_boss_defeated
vector 7 Network.player minion_waiting_time_stat:vector ETV
attr source signal_minion_waiting_time
vector 8 Network.player minion_response_time_stat:vector ETV
attr source signal_minion_response_time
vector 9 Network.player boss_waiting_time_stat:vector ETV
attr source signal_boss_waiting_time
vector 10 Network.player boss_response_time_stat:vector ETV
attr source signal_boss_response_time
vector 11 Network.player minion_throughput:vector ETV
attr source signal_minion_throughput
vector 12 Network.player boss_throughput:vector ETV
attr source signal_boss_throughput
0	1961 5107 0 1175 0 1996.972662773382 201 0 4 239 333
1	7068 10194 0 1176 0 1997.869785693439 401 0 3 78 110
2	17262 451 0 1090 0 1792.341526183705 18 0 17 153 1785
3	17713 5387 0 1176 0 1997.869785693439 201 0 200 20100 2686700
4	23100 4888 0 1172 0 1991.693690876874 193 0 5 254 426
5	27988 9769 0 1173 0 1991.9517235327 385 0 4 124 220
6	37757 5165 0 1173 0 1991.9517235327 193 0 192 18528 2377760
7	42922 6446 2 1175 1.674284220833 1996.972662773382 217 0 12.723854683473 157.93262838959 863.23896393775
8	49368 7666 3 1176 3.178022521188 1997.869785693439 200 1.2038115e-05 11.343095943401 311.24458418077 1209.7473157579
9	57034 5451 5 1172 7.214300764146 1991.693690876874 192 0 14.179073685107 139.22685094642 939.63431168918
10	62485 7545 8 1173 10.992838443625 1991.9517235327 192 0.003292221951 15.345661149586 495.4721263113 2828.6305064558
11	70030 17 1177 1177 2000 2000 1 0.1 0.1 0.1 0.01
12	70047 19 1177 1177 2000 2000 1 0.096 0.096 0.096 0.009216

