version 2
run Consistency_test_bosses_waiting_time-2-20221208-17:42:15-15306
attr configname Consistency_test_bosses_waiting_time
attr datetime 20221208-17:42:15
attr experiment Consistency_test_bosses_waiting_time
attr inifile omnetpp.ini
attr iterationvars $0=0.1
attr iterationvarsf 0.1-
attr measurement $0=0.1
attr network Network
attr processid 15306
attr repetition 2
attr replication #2
attr resultdir results
attr runnumber 2
attr seedset 2
param *.boss.arrival_mean 10
param *.boss.service_mean 0.1
param **.minion.arrival_distribution 0
param **.minion.service_distribution 0
param *.minion.arrival_mean 10
param *.minion.service_mean 1
param **.boss.arrival_distribution 0
param **.boss.service_distribution 0

vector 0 Network.player minion_jobs_number_stat:vector ETV
attr source signal_minion_jobs_number
vector 1 Network.player minion_jobs_queue_number_stat:vector ETV
attr source signal_minion_jobs_queue_number
vector 2 Network.player minion_recovered_stat:vector ETV
attr source signal_minion_recovered
vector 3 Network.player minion_defeated_stat:vector ETV
attr source signal_minion_defeated
vector 4 Network.player boss_jobs_number_stat:vector ETV
attr source signal_boss_jobs_number
vector 5 Network.player boss_jobs_queue_number_stat:vector ETV
attr source signal_boss_jobs_queue_number
vector 6 Network.player boss_defeated_stat:vector ETV
attr source signal_boss_defeated
vector 7 Network.player boss_waiting_time_stat:vector ETV
attr source signal_boss_waiting_time
vector 8 Network.player boss_response_time_stat:vector ETV
attr source signal_boss_response_time
vector 9 Network.player minion_waiting_time_stat:vector ETV
attr source signal_minion_waiting_time
vector 10 Network.player minion_response_time_stat:vector ETV
attr source signal_minion_response_time
vector 11 Network.player minion_throughput:vector ETV
attr source signal_minion_throughput
vector 12 Network.player boss_throughput:vector ETV
attr source signal_boss_throughput
0	0	0	0
0	11	20.669550506509	1
0	14	20.781317155895	1
0	29	55.371912349618	1
0	32	58.108909465047	1
0	38	78.449350332479	1
0	44	83.189739550936	1
0	50	90.758188100501	1
0	65	107.711484596612	1
0	68	110.360627975049	1
0	71	115.8485132762	1
0	74	115.963155953747	1
0	86	125.431514480397	1
0	98	131.060931914181	1
0	104	145.587963198214	1
0	107	150.735485777362	1
0	113	155.875878827663	1
0	116	163.271448638953	1
0	119	183.835622092667	1
0	125	190.34400740977	1
0	140	216.440327911443	1
0	143	224.545151760108	1
0	146	226.129538316799	1
0	149	233.968707502465	1
0	155	246.059496190153	1
0	164	260.368045087251	1
0	173	265.521024030911	1
0	179	277.981986462837	1
0	182	295.034097234801	1
0	191	304.701575135423	1
0	193	304.916685494388	2
0	197	310.469543289181	1
0	203	314.820727748739	1
0	206	318.232611554294	1
0	209	324.812807502354	1
0	224	361.253872248248	1
0	236	382.033569988247	1
0	239	386.094833956454	1
0	241	386.647961139654	2
0	245	389.11721552314	1
0	251	392.226410515015	1
0	253	392.907147651836	2
0	260	396.36227194133	1
0	275	437.031828547986	1
0	287	448.318011895377	1
0	290	449.686015902366	1
0	293	453.261598126964	1
0	299	457.149607354789	1
0	302	459.167132141822	1
0	304	459.902982320572	2
0	311	465.705246785592	1
0	320	468.251201226019	1
0	323	475.822507308272	1
0	332	480.825237471622	1
0	341	509.866602764496	1
0	353	532.51419919372	1
0	359	539.722009720888	1
0	362	543.960260144784	1
0	365	555.155696511461	1
0	398	596.98708789577	1
0	400	598.284845066716	2
0	402	598.576374058973	3
0	407	602.620604624623	1
0	410	606.95438653281	1
0	416	610.162704550092	1
0	419	614.958540455523	1
0	422	623.406264846895	1
0	434	637.852286977402	1
0	443	648.643934406955	1
0	452	676.580654484565	1
0	455	679.89463627924	1
0	458	683.746700318794	1
0	463	685.331815749873	2
0	473	690.996536964801	1
0	475	692.204779726722	2
0	479	695.353883843244	1
0	485	706.298540363435	1
0	491	722.445853962356	1
0	494	723.104634167044	1
0	497	733.272343944783	1
0	500	739.797730469372	1
0	506	740.509362681322	1
0	515	750.972521332418	1
0	518	760.22695815373	1
0	521	761.712095157267	1
0	533	777.587614563966	1
0	536	789.201234791078	1
0	539	789.526551019467	1
0	541	789.861488633681	2
0	548	795.939403761245	1
0	554	819.542236411746	1
0	557	835.156933545261	1
0	560	837.724076214384	1
0	575	882.462444236032	1
0	581	890.900647318088	1
0	590	899.670495225509	1
0	599	902.698546084606	1
0	602	903.095442213722	1
0	604	905.089861502072	2
0	608	911.003404036779	1
0	611	915.690760576577	1
0	613	917.775434736723	2
0	620	924.213556890148	1
0	623	934.076817536199	1
0	626	936.960064299383	1
0	635	939.38482909942	1
0	644	957.912134853835	1
0	647	959.548743667564	1
0	653	978.23760579542	1
0	656	985.919423558647	1
0	665	998.744812864239	1
0	667	999.8027166863	2
1	0	0	0
1	11	20.669550506509	0
1	12	20.679978851329	0
1	14	20.781317155895	0
1	15	21.234599018283	0
1	29	55.371912349618	0
1	30	56.06881576684	0
1	32	58.108909465047	0
1	33	58.800318887726	0
1	38	78.449350332479	0
1	39	79.134079639363	0
1	44	83.189739550936	0
1	45	83.197311244037	0
1	50	90.758188100501	0
1	51	90.901861646054	0
1	65	107.711484596612	0
1	66	108.091609953195	0
1	68	110.360627975049	0
1	69	110.513908640907	0
1	71	115.8485132762	0
1	72	115.861924821128	0
1	74	115.963155953747	0
1	75	116.209771164653	0
1	86	125.431514480397	0
1	87	127.528885470285	0
1	98	131.060931914181	0
1	99	131.603090298298	0
1	104	145.587963198214	0
1	105	145.735914423826	0
1	107	150.735485777362	0
1	108	151.020639280587	0
1	113	155.875878827663	0
1	114	156.025090551072	0
1	116	163.271448638953	0
1	117	163.359252679622	0
1	119	183.835622092667	0
1	120	184.339614205474	0
1	125	190.34400740977	0
1	126	190.767889029533	0
1	140	216.440327911443	0
1	141	217.122840864621	0
1	143	224.545151760108	0
1	144	224.727604946683	0
1	146	226.129538316799	0
1	147	226.508910136074	0
1	149	233.968707502465	0
1	153	236.685678504656	0
1	155	246.059496190153	0
1	156	246.527823115194	0
1	164	260.368045087251	0
1	168	263.529427740254	0
1	173	265.521024030911	0
1	174	266.847759924775	0
1	179	277.981986462837	0
1	180	278.02150552967	0
1	182	295.034097234801	0
1	186	299.544484827087	0
1	191	304.701575135423	0
1	193	304.916685494388	1
1	194	305.902576996574	1
1	195	307.111724664093	0
1	197	310.469543289181	0
1	198	311.31995223425	0
1	203	314.820727748739	0
1	204	314.966245139038	0
1	206	318.232611554294	0
1	207	320.515463862932	0
1	209	324.812807502354	0
1	210	324.958998090426	0
1	224	361.253872248248	0
1	225	362.353181685757	0
1	236	382.033569988247	0
1	237	385.045577149633	0
1	239	386.094833956454	0
1	241	386.647961139654	1
1	242	386.888548235138	1
1	243	387.693869506409	0
1	245	389.11721552314	0
1	246	390.32931263134	0
1	251	392.226410515015	0
1	253	392.907147651836	1
1	257	395.591279476004	1
1	258	395.662880069232	0
1	260	396.36227194133	0
1	261	397.355311506534	0
1	275	437.031828547986	0
1	276	438.217433331087	0
1	287	448.318011895377	0
1	288	449.15012166234	0
1	290	449.686015902366	0
1	291	451.428245259153	0
1	293	453.261598126964	0
1	294	454.28205075245	0
1	299	457.149607354789	0
1	300	457.776346148057	0
1	302	459.167132141822	0
1	304	459.902982320572	1
1	308	463.109883037154	1
1	309	463.906477137132	0
1	311	465.705246785592	0
1	312	466.175585419619	0
1	320	468.251201226019	0
1	321	469.879515027476	0
1	323	475.822507308272	0
1	324	477.620058518197	0
1	332	480.825237471622	0
1	333	484.921138272527	0
1	341	509.866602764496	0
1	342	509.976928875417	0
1	353	532.51419919372	0
1	354	532.700090630616	0
1	359	539.722009720888	0
1	360	539.804648125521	0
1	362	543.960260144784	0
1	363	544.696491697909	0
1	365	555.155696511461	0
1	366	555.225764491703	0
1	398	596.98708789577	0
1	400	598.284845066716	1
1	402	598.576374058973	2
1	403	599.896962085844	2
1	404	600.572229408172	1
1	405	601.620739441616	0
1	407	602.620604624623	0
1	408	602.855652286626	0
1	410	606.95438653281	0
1	411	608.926459410984	0
1	416	610.162704550092	0
1	417	612.755955516961	0
1	419	614.958540455523	0
1	420	618.493703837841	0
1	422	623.406264846895	0
1	423	627.349291041824	0
1	434	637.852286977402	0
1	435	638.057519010542	0
1	443	648.643934406955	0
1	444	649.751478294318	0
1	452	676.580654484565	0
1	453	676.859199329759	0
1	455	679.89463627924	0
1	456	680.76631554148	0
1	458	683.746700318794	0
1	463	685.331815749873	1
1	467	687.576864042372	1
1	471	688.258312023067	0
1	473	690.996536964801	0
1	475	692.204779726722	1
1	476	693.363951631028	1
1	477	693.411777296481	0
1	479	695.353883843244	0
1	480	696.773850748076	0
1	485	706.298540363435	0
1	486	707.166660678457	0
1	491	722.445853962356	0
1	492	722.871881976908	0
1	494	723.104634167044	0
1	495	723.182067509444	0
1	497	733.272343944783	0
1	498	733.895097376518	0
1	500	739.797730469372	0
1	501	739.972167236547	0
1	506	740.509362681322	0
1	507	741.452351004934	0
1	515	750.972521332418	0
1	516	751.543253961282	0
1	518	760.22695815373	0
1	519	760.912696277619	0
1	521	761.712095157267	0
1	525	762.870511314931	0
1	533	777.587614563966	0
1	534	778.237652475379	0
1	536	789.201234791078	0
1	537	789.352241606471	0
1	539	789.526551019467	0
1	541	789.861488633681	1
1	542	790.098464162913	1
1	543	792.390336718062	0
1	548	795.939403761245	0
1	549	797.982770241082	0
1	554	819.542236411746	0
1	555	823.392201652212	0
1	557	835.156933545261	0
1	558	835.364398947237	0
1	560	837.724076214384	0
1	561	840.3795988541	0
1	575	882.462444236032	0
1	576	883.626152299612	0
1	581	890.900647318088	0
1	582	891.399513286407	0
1	590	899.670495225509	0
1	594	901.1651938066	0
1	599	902.698546084606	0
1	600	903.040106473559	0
1	602	903.095442213722	0
1	604	905.089861502072	1
1	605	905.6883806559	1
1	606	906.069278753924	0
1	608	911.003404036779	0
1	609	911.043658291429	0
1	611	915.690760576577	0
1	613	917.775434736723	1
1	617	919.66401327905	1
1	618	922.040949092856	0
1	620	924.213556890148	0
1	621	924.257353797046	0
1	623	934.076817536199	0
1	624	935.093077758683	0
1	626	936.960064299383	0
1	630	937.207993977247	0
1	635	939.38482909942	0
1	636	940.004164007409	0
1	644	957.912134853835	0
1	645	958.240260979436	0
1	647	959.548743667564	0
1	648	959.603262605846	0
1	653	978.23760579542	0
1	654	978.754142740208	0
1	656	985.919423558647	0
1	657	985.958758035319	0
1	665	998.744812864239	0
1	667	999.8027166863	1
1	668	999.86479482569	1
2	0	0	0
2	151	234.90112412447	1
2	166	263.336394790166	2
2	184	297.445719556449	3
2	255	395.060486988448	4
2	306	460.138603462644	5
2	460	684.47952229521	6
2	465	685.973603808977	7
2	469	688.191892212645	8
2	523	762.121169252249	9
2	592	899.986834506146	10
2	615	918.603904800832	11
2	628	937.107409917488	12
3	0	0	0
3	12	20.679978851329	1
3	15	21.234599018283	2
3	30	56.06881576684	3
3	33	58.800318887726	4
3	39	79.134079639363	5
3	45	83.197311244037	6
3	51	90.901861646054	7
3	66	108.091609953195	8
3	69	110.513908640907	9
3	72	115.861924821128	10
3	75	116.209771164653	11
3	87	127.528885470285	12
3	99	131.603090298298	13
3	105	145.735914423826	14
3	108	151.020639280587	15
3	114	156.025090551072	16
3	117	163.359252679622	17
3	120	184.339614205474	18
3	126	190.767889029533	19
3	141	217.122840864621	20
3	144	224.727604946683	21
3	147	226.508910136074	22
3	153	236.685678504656	23
3	156	246.527823115194	24
3	168	263.529427740254	25
3	174	266.847759924775	26
3	180	278.02150552967	27
3	186	299.544484827087	28
3	194	305.902576996574	29
3	195	307.111724664093	30
3	198	311.31995223425	31
3	204	314.966245139038	32
3	207	320.515463862932	33
3	210	324.958998090426	34
3	225	362.353181685757	35
3	237	385.045577149633	36
3	242	386.888548235138	37
3	243	387.693869506409	38
3	246	390.32931263134	39
3	257	395.591279476004	40
3	258	395.662880069232	41
3	261	397.355311506534	42
3	276	438.217433331087	43
3	288	449.15012166234	44
3	291	451.428245259153	45
3	294	454.28205075245	46
3	300	457.776346148057	47
3	308	463.109883037154	48
3	309	463.906477137132	49
3	312	466.175585419619	50
3	321	469.879515027476	51
3	324	477.620058518197	52
3	333	484.921138272527	53
3	342	509.976928875417	54
3	354	532.700090630616	55
3	360	539.804648125521	56
3	363	544.696491697909	57
3	366	555.225764491703	58
3	403	599.896962085844	59
3	404	600.572229408172	60
3	405	601.620739441616	61
3	408	602.855652286626	62
3	411	608.926459410984	63
3	417	612.755955516961	64
3	420	618.493703837841	65
3	423	627.349291041824	66
3	435	638.057519010542	67
3	444	649.751478294318	68
3	453	676.859199329759	69
3	456	680.76631554148	70
3	467	687.576864042372	71
3	471	688.258312023067	72
3	476	693.363951631028	73
3	477	693.411777296481	74
3	480	696.773850748076	75
3	486	707.166660678457	76
3	492	722.871881976908	77
3	495	723.182067509444	78
3	498	733.895097376518	79
3	501	739.972167236547	80
3	507	741.452351004934	81
3	516	751.543253961282	82
3	519	760.912696277619	83
3	525	762.870511314931	84
3	534	778.237652475379	85
3	537	789.352241606471	86
3	542	790.098464162913	87
3	543	792.390336718062	88
3	549	797.982770241082	89
3	555	823.392201652212	90
3	558	835.364398947237	91
3	561	840.3795988541	92
3	576	883.626152299612	93
3	582	891.399513286407	94
3	594	901.1651938066	95
3	600	903.040106473559	96
3	605	905.6883806559	97
3	606	906.069278753924	98
3	609	911.043658291429	99
3	617	919.66401327905	100
3	618	922.040949092856	101
3	621	924.257353797046	102
3	624	935.093077758683	103
3	630	937.207993977247	104
3	636	940.004164007409	105
3	645	958.240260979436	106
3	648	959.603262605846	107
3	654	978.754142740208	108
3	657	985.958758035319	109
3	668	999.86479482569	110
4	0	0	0
4	2	14.754344449757	1
4	5	18.303411795229	1
4	8	18.513114738148	1
4	17	25.336966298752	1
4	20	35.378579212548	1
4	23	41.230747938253	1
4	26	55.045960946498	1
4	35	72.878599248906	1
4	41	79.780255821663	1
4	47	88.53466500743	1
4	53	91.08096396491	1
4	56	91.335903571115	1
4	59	93.543154146331	1
4	62	105.894624938312	1
4	77	120.18792598352	1
4	80	123.274479165528	1
4	83	125.127067845429	1
4	89	128.186924812283	1
4	92	129.111804436451	1
4	95	130.741440217229	1
4	101	142.304695820791	1
4	110	153.819082133846	1
4	122	184.479201252994	1
4	128	201.440158560827	1
4	130	201.479719383838	2
4	134	205.575528797395	1
4	137	212.753868097425	1
4	151	234.90112412447	1
4	158	251.647341888056	1
4	161	253.8553275989	1
4	166	263.336394790166	1
4	170	263.647346089953	1
4	176	276.439889914657	1
4	184	297.445719556449	1
4	188	300.897081082446	1
4	200	313.895881436487	1
4	212	338.878733636238	1
4	215	346.66319056765	1
4	218	359.200977900324	1
4	221	360.610372974182	1
4	227	368.431126755263	1
4	230	373.769807112589	1
4	233	375.303301010951	1
4	248	390.386963379145	1
4	255	395.060486988448	1
4	263	403.828816474725	1
4	266	415.041495028144	1
4	269	417.058146748206	1
4	272	422.889120670234	1
4	278	440.380848616319	1
4	281	446.072707894691	1
4	284	447.186514220755	1
4	296	456.803762877764	1
4	306	460.138603462644	1
4	314	467.336354089858	1
4	317	468.0144676566	1
4	326	478.524043508413	1
4	329	479.105041143997	1
4	335	488.2939560213	1
4	338	502.795068987688	1
4	344	519.15407900926	1
4	347	519.272659631502	1
4	350	526.646726091996	1
4	356	536.112765203092	1
4	368	560.04321309155	1
4	371	564.076121660876	1
4	374	567.921518809766	1
4	377	576.123335860229	1
4	380	577.071491734483	1
4	383	581.158690452636	1
4	386	584.735445714721	1
4	389	590.031836473506	1
4	392	591.242043268097	1
4	395	592.041738300861	1
4	413	609.684036758999	1
4	425	628.860188865791	1
4	428	629.3405047388	1
4	431	635.138465630766	1
4	437	644.981141201909	1
4	440	646.281705854511	1
4	446	654.213285077072	1
4	449	667.371070841791	1
4	460	684.47952229521	1
4	465	685.973603808977	1
4	469	688.191892212645	1
4	482	702.753913535999	1
4	488	722.192556787423	1
4	503	740.029860640965	1
4	509	744.363147390448	1
4	512	748.070568129918	1
4	523	762.121169252249	1
4	527	771.223815811148	1
4	530	774.733041065176	1
4	545	795.320999126957	1
4	551	816.857175013625	1
4	563	857.614876190041	1
4	566	861.552884765159	1
4	569	867.852792420726	1
4	572	869.656218344477	1
4	578	890.510371460785	1
4	584	895.494883966721	1
4	587	899.00562908867	1
4	592	899.986834506146	1
4	596	901.394305875068	1
4	615	918.603904800832	1
4	628	937.107409917488	1
4	632	938.746161549789	1
4	638	949.505954280395	1
4	641	954.352895514146	1
4	650	963.402437959795	1
4	659	992.273137725387	1
4	662	998.006421206962	1
5	0	0	0
5	2	14.754344449757	0
5	3	14.774222438574	0
5	5	18.303411795229	0
5	6	18.310486970703	0
5	8	18.513114738148	0
5	9	18.515081476299	0
5	17	25.336966298752	0
5	18	25.446245321149	0
5	20	35.378579212548	0
5	21	35.440795633693	0
5	23	41.230747938253	0
5	24	41.252329438058	0
5	26	55.045960946498	0
5	27	55.175035340358	0
5	35	72.878599248906	0
5	36	73.139351378784	0
5	41	79.780255821663	0
5	42	79.834763649514	0
5	47	88.53466500743	0
5	48	88.545777735701	0
5	53	91.08096396491	0
5	54	91.14740576932	0
5	56	91.335903571115	0
5	57	91.361484802541	0
5	59	93.543154146331	0
5	60	93.544440465146	0
5	62	105.894624938312	0
5	63	106.12128955771	0
5	77	120.18792598352	0
5	78	120.25474639075	0
5	80	123.274479165528	0
5	81	123.449453442822	0
5	83	125.127067845429	0
5	84	125.411466267462	0
5	89	128.186924812283	0
5	90	128.196665423549	0
5	92	129.111804436451	0
5	93	129.302047901754	0
5	95	130.741440217229	0
5	96	130.961902778396	0
5	101	142.304695820791	0
5	102	142.435615992853	0
5	110	153.819082133846	0
5	111	153.944175275292	0
5	122	184.479201252994	0
5	123	184.490712720848	0
5	128	201.440158560827	0
5	130	201.479719383838	1
5	131	201.513118627669	1
5	132	201.737459878285	0
5	134	205.575528797395	0
5	135	205.729421484597	0
5	137	212.753868097425	0
5	138	212.948467085957	0
5	151	234.90112412447	0
5	152	234.989716245952	0
5	158	251.647341888056	0
5	159	251.665384617272	0
5	161	253.8553275989	0
5	162	253.988825466862	0
5	166	263.336394790166	0
5	167	263.436452830436	0
5	170	263.647346089953	0
5	171	263.758975939748	0
5	176	276.439889914657	0
5	177	276.441959545646	0
5	184	297.445719556449	0
5	185	297.796612266275	0
5	188	300.897081082446	0
5	189	300.90949433957	0
5	200	313.895881436487	0
5	201	314.343112557121	0
5	212	338.878733636238	0
5	213	338.916767086853	0
5	215	346.66319056765	0
5	216	346.81374485435	0
5	218	359.200977900324	0
5	219	359.218165012932	0
5	221	360.610372974182	0
5	222	360.612920065988	0
5	227	368.431126755263	0
5	228	368.573414120481	0
5	230	373.769807112589	0
5	231	374.023991306394	0
5	233	375.303301010951	0
5	234	375.473827278554	0
5	248	390.386963379145	0
5	249	390.439881396862	0
5	255	395.060486988448	0
5	256	395.102741680329	0
5	263	403.828816474725	0
5	264	403.849851881621	0
5	266	415.041495028144	0
5	267	415.079884785175	0
5	269	417.058146748206	0
5	270	417.080963535796	0
5	272	422.889120670234	0
5	273	422.900960881095	0
5	278	440.380848616319	0
5	279	440.580361771729	0
5	281	446.072707894691	0
5	282	446.081476671455	0
5	284	447.186514220755	0
5	285	447.203373233012	0
5	296	456.803762877764	0
5	297	456.928494736553	0
5	306	460.138603462644	0
5	307	460.287693695454	0
5	314	467.336354089858	0
5	315	467.427869076721	0
5	317	468.0144676566	0
5	318	468.080459448199	0
5	326	478.524043508413	0
5	327	478.529771857581	0
5	329	479.105041143997	0
5	330	479.25796952957	0
5	335	488.2939560213	0
5	336	488.359309691635	0
5	338	502.795068987688	0
5	339	502.799663415998	0
5	344	519.15407900926	0
5	345	519.20544137644	0
5	347	519.272659631502	0
5	348	519.36975601475	0
5	350	526.646726091996	0
5	351	526.83509975394	0
5	356	536.112765203092	0
5	357	536.171189546044	0
5	368	560.04321309155	0
5	369	560.16974444351	0
5	371	564.076121660876	0
5	372	564.30407013159	0
5	374	567.921518809766	0
5	375	568.013665232633	0
5	377	576.123335860229	0
5	378	576.130495429038	0
5	380	577.071491734483	0
5	381	577.151873650866	0
5	383	581.158690452636	0
5	384	581.229298575413	0
5	386	584.735445714721	0
5	387	585.033239661589	0
5	389	590.031836473506	0
5	390	590.094367759613	0
5	392	591.242043268097	0
5	393	591.673842045653	0
5	395	592.041738300861	0
5	396	592.155340775725	0
5	413	609.684036758999	0
5	414	609.725293896288	0
5	425	628.860188865791	0
5	426	628.926578546614	0
5	428	629.3405047388	0
5	429	629.367931934958	0
5	431	635.138465630766	0
5	432	635.194179149573	0
5	437	644.981141201909	0
5	438	645.140318562322	0
5	440	646.281705854511	0
5	441	646.332493698396	0
5	446	654.213285077072	0
5	447	654.219865562385	0
5	449	667.371070841791	0
5	450	667.375466399942	0
5	460	684.47952229521	0
5	461	684.524874813408	0
5	465	685.973603808977	0
5	466	685.995442765366	0
5	469	688.191892212645	0
5	470	688.199151733622	0
5	482	702.753913535999	0
5	483	702.81862641552	0
5	488	722.192556787423	0
5	489	722.231030094992	0
5	503	740.029860640965	0
5	504	740.033624880864	0
5	509	744.363147390448	0
5	510	744.370445607901	0
5	512	748.070568129918	0
5	513	748.071169905323	0
5	523	762.121169252249	0
5	524	762.155455425812	0
5	527	771.223815811148	0
5	528	771.481320638363	0
5	530	774.733041065176	0
5	531	774.889154004875	0
5	545	795.320999126957	0
5	546	795.434173889329	0
5	551	816.857175013625	0
5	552	817.092985125247	0
5	563	857.614876190041	0
5	564	858.059324219429	0
5	566	861.552884765159	0
5	567	861.710205674252	0
5	569	867.852792420726	0
5	570	867.916212496073	0
5	572	869.656218344477	0
5	573	869.738730598335	0
5	578	890.510371460785	0
5	579	890.683835376507	0
5	584	895.494883966721	0
5	585	895.590600027217	0
5	587	899.00562908867	0
5	588	899.010830063901	0
5	592	899.986834506146	0
5	593	900.031695288418	0
5	596	901.394305875068	0
5	597	901.530526896204	0
5	615	918.603904800832	0
5	616	918.622395366004	0
5	628	937.107409917488	0
5	629	937.137958831877	0
5	632	938.746161549789	0
5	633	938.803474379438	0
5	638	949.505954280395	0
5	639	949.883776141987	0
5	641	954.352895514146	0
5	642	954.484880778638	0
5	650	963.402437959795	0
5	651	963.511946219604	0
5	659	992.273137725387	0
5	660	992.279632932253	0
5	662	998.006421206962	0
5	663	998.51639750608	0
6	0	0	0
6	3	14.774222438574	1
6	6	18.310486970703	2
6	9	18.515081476299	3
6	18	25.446245321149	4
6	21	35.440795633693	5
6	24	41.252329438058	6
6	27	55.175035340358	7
6	36	73.139351378784	8
6	42	79.834763649514	9
6	48	88.545777735701	10
6	54	91.14740576932	11
6	57	91.361484802541	12
6	60	93.544440465146	13
6	63	106.12128955771	14
6	78	120.25474639075	15
6	81	123.449453442822	16
6	84	125.411466267462	17
6	90	128.196665423549	18
6	93	129.302047901754	19
6	96	130.961902778396	20
6	102	142.435615992853	21
6	111	153.944175275292	22
6	123	184.490712720848	23
6	131	201.513118627669	24
6	132	201.737459878285	25
6	135	205.729421484597	26
6	138	212.948467085957	27
6	152	234.989716245952	28
6	159	251.665384617272	29
6	162	253.988825466862	30
6	167	263.436452830436	31
6	171	263.758975939748	32
6	177	276.441959545646	33
6	185	297.796612266275	34
6	189	300.90949433957	35
6	201	314.343112557121	36
6	213	338.916767086853	37
6	216	346.81374485435	38
6	219	359.218165012932	39
6	222	360.612920065988	40
6	228	368.573414120481	41
6	231	374.023991306394	42
6	234	375.473827278554	43
6	249	390.439881396862	44
6	256	395.102741680329	45
6	264	403.849851881621	46
6	267	415.079884785175	47
6	270	417.080963535796	48
6	273	422.900960881095	49
6	279	440.580361771729	50
6	282	446.081476671455	51
6	285	447.203373233012	52
6	297	456.928494736553	53
6	307	460.287693695454	54
6	315	467.427869076721	55
6	318	468.080459448199	56
6	327	478.529771857581	57
6	330	479.25796952957	58
6	336	488.359309691635	59
6	339	502.799663415998	60
6	345	519.20544137644	61
6	348	519.36975601475	62
6	351	526.83509975394	63
6	357	536.171189546044	64
6	369	560.16974444351	65
6	372	564.30407013159	66
6	375	568.013665232633	67
6	378	576.130495429038	68
6	381	577.151873650866	69
6	384	581.229298575413	70
6	387	585.033239661589	71
6	390	590.094367759613	72
6	393	591.673842045653	73
6	396	592.155340775725	74
6	414	609.725293896288	75
6	426	628.926578546614	76
6	429	629.367931934958	77
6	432	635.194179149573	78
6	438	645.140318562322	79
6	441	646.332493698396	80
6	447	654.219865562385	81
6	450	667.375466399942	82
6	461	684.524874813408	83
6	466	685.995442765366	84
6	470	688.199151733622	85
6	483	702.81862641552	86
6	489	722.231030094992	87
6	504	740.033624880864	88
6	510	744.370445607901	89
6	513	748.071169905323	90
6	524	762.155455425812	91
6	528	771.481320638363	92
6	531	774.889154004875	93
6	546	795.434173889329	94
6	552	817.092985125247	95
6	564	858.059324219429	96
6	567	861.710205674252	97
6	570	867.916212496073	98
6	573	869.738730598335	99
6	579	890.683835376507	100
6	585	895.590600027217	101
6	588	899.010830063901	102
6	593	900.031695288418	103
6	597	901.530526896204	104
6	616	918.622395366004	105
6	629	937.137958831877	106
6	633	938.803474379438	107
6	639	949.883776141987	108
6	642	954.484880778638	109
6	651	963.511946219604	110
6	660	992.279632932253	111
6	663	998.51639750608	112
7	2	14.754344449757	0
7	5	18.303411795229	0
7	8	18.513114738148	0
7	17	25.336966298752	0
7	20	35.378579212548	0
7	23	41.230747938253	0
7	26	55.045960946498	0
7	35	72.878599248906	0
7	41	79.780255821663	0
7	47	88.53466500743	0
7	53	91.08096396491	0
7	56	91.335903571115	0
7	59	93.543154146331	0
7	62	105.894624938312	0
7	77	120.18792598352	0
7	80	123.274479165528	0
7	83	125.127067845429	0
7	89	128.186924812283	0
7	92	129.111804436451	0
7	95	130.741440217229	0
7	101	142.304695820791	0
7	110	153.819082133846	0
7	122	184.479201252994	0
7	128	201.440158560827	0
7	131	201.513118627669	0.033399243831
7	134	205.575528797395	0
7	137	212.753868097425	0
7	151	234.90112412447	0
7	158	251.647341888056	0
7	161	253.8553275989	0
7	166	263.336394790166	0
7	170	263.647346089953	0
7	176	276.439889914657	0
7	184	297.445719556449	0
7	188	300.897081082446	0
7	200	313.895881436487	0
7	212	338.878733636238	0
7	215	346.66319056765	0
7	218	359.200977900324	0
7	221	360.610372974182	0
7	227	368.431126755263	0
7	230	373.769807112589	0
7	233	375.303301010951	0
7	248	390.386963379145	0
7	255	395.060486988448	0
7	263	403.828816474725	0
7	266	415.041495028144	0
7	269	417.058146748206	0
7	272	422.889120670234	0
7	278	440.380848616319	0
7	281	446.072707894691	0
7	284	447.186514220755	0
7	296	456.803762877764	0
7	306	460.138603462644	0
7	314	467.336354089858	0
7	317	468.0144676566	0
7	326	478.524043508413	0
7	329	479.105041143997	0
7	335	488.2939560213	0
7	338	502.795068987688	0
7	344	519.15407900926	0
7	347	519.272659631502	0
7	350	526.646726091996	0
7	356	536.112765203092	0
7	368	560.04321309155	0
7	371	564.076121660876	0
7	374	567.921518809766	0
7	377	576.123335860229	0
7	380	577.071491734483	0
7	383	581.158690452636	0
7	386	584.735445714721	0
7	389	590.031836473506	0
7	392	591.242043268097	0
7	395	592.041738300861	0
7	413	609.684036758999	0
7	425	628.860188865791	0
7	428	629.3405047388	0
7	431	635.138465630766	0
7	437	644.981141201909	0
7	440	646.281705854511	0
7	446	654.213285077072	0
7	449	667.371070841791	0
7	460	684.47952229521	0
7	465	685.973603808977	0
7	469	688.191892212645	0
7	482	702.753913535999	0
7	488	722.192556787423	0
7	503	740.029860640965	0
7	509	744.363147390448	0
7	512	748.070568129918	0
7	523	762.121169252249	0
7	527	771.223815811148	0
7	530	774.733041065176	0
7	545	795.320999126957	0
7	551	816.857175013625	0
7	563	857.614876190041	0
7	566	861.552884765159	0
7	569	867.852792420726	0
7	572	869.656218344477	0
7	578	890.510371460785	0
7	584	895.494883966721	0
7	587	899.00562908867	0
7	592	899.986834506146	0
7	596	901.394305875068	0
7	615	918.603904800832	0
7	628	937.107409917488	0
7	632	938.746161549789	0
7	638	949.505954280395	0
7	641	954.352895514146	0
7	650	963.402437959795	0
7	659	992.273137725387	0
7	662	998.006421206962	0
8	3	14.774222438574	0.019877988817
8	6	18.310486970703	0.007075175474
8	9	18.515081476299	0.001966738151
8	18	25.446245321149	0.109279022397
8	21	35.440795633693	0.062216421145
8	24	41.252329438058	0.021581499805
8	27	55.175035340358	0.12907439386
8	36	73.139351378784	0.260752129878
8	42	79.834763649514	0.054507827851
8	48	88.545777735701	0.011112728271
8	54	91.14740576932	0.06644180441
8	57	91.361484802541	0.025581231426
8	60	93.544440465146	0.001286318815
8	63	106.12128955771	0.226664619398
8	78	120.25474639075	0.06682040723
8	81	123.449453442822	0.174974277294
8	84	125.411466267462	0.284398422033
8	90	128.196665423549	0.009740611266
8	93	129.302047901754	0.190243465303
8	96	130.961902778396	0.220462561167
8	102	142.435615992853	0.130920172062
8	111	153.944175275292	0.125093141446
8	123	184.490712720848	0.011511467854
8	131	201.513118627669	0.072960066842
8	132	201.737459878285	0.257740494447
8	135	205.729421484597	0.153892687202
8	138	212.948467085957	0.194598988532
8	152	234.989716245952	0.088592121482
8	159	251.665384617272	0.018042729216
8	162	253.988825466862	0.133497867962
8	167	263.436452830436	0.10005804027
8	171	263.758975939748	0.111629849795
8	177	276.441959545646	0.002069630989
8	185	297.796612266275	0.350892709826
8	189	300.90949433957	0.012413257124
8	201	314.343112557121	0.447231120634
8	213	338.916767086853	0.038033450615
8	216	346.81374485435	0.1505542867
8	219	359.218165012932	0.017187112608
8	222	360.612920065988	0.002547091806
8	228	368.573414120481	0.142287365218
8	231	374.023991306394	0.254184193805
8	234	375.473827278554	0.170526267603
8	249	390.439881396862	0.052918017717
8	256	395.102741680329	0.042254691881
8	264	403.849851881621	0.021035406896
8	267	415.079884785175	0.038389757031
8	270	417.080963535796	0.02281678759
8	273	422.900960881095	0.011840210861
8	279	440.580361771729	0.19951315541
8	282	446.081476671455	0.008768776764
8	285	447.203373233012	0.016859012257
8	297	456.928494736553	0.124731858789
8	307	460.287693695454	0.14909023281
8	315	467.427869076721	0.091514986863
8	318	468.080459448199	0.065991791599
8	327	478.529771857581	0.005728349168
8	330	479.25796952957	0.152928385573
8	336	488.359309691635	0.065353670335
8	339	502.799663415998	0.00459442831
8	345	519.20544137644	0.05136236718
8	348	519.36975601475	0.097096383248
8	351	526.83509975394	0.188373661944
8	357	536.171189546044	0.058424342952
8	369	560.16974444351	0.12653135196
8	372	564.30407013159	0.227948470714
8	375	568.013665232633	0.092146422867
8	378	576.130495429038	0.007159568809
8	381	577.151873650866	0.080381916383
8	384	581.229298575413	0.070608122777
8	387	585.033239661589	0.297793946868
8	390	590.094367759613	0.062531286107
8	393	591.673842045653	0.431798777556
8	396	592.155340775725	0.113602474864
8	414	609.725293896288	0.041257137289
8	426	628.926578546614	0.066389680823
8	429	629.367931934958	0.027427196158
8	432	635.194179149573	0.055713518807
8	438	645.140318562322	0.159177360413
8	441	646.332493698396	0.050787843885
8	447	654.219865562385	0.006580485313
8	450	667.375466399942	0.004395558151
8	461	684.524874813408	0.045352518198
8	466	685.995442765366	0.021838956389
8	470	688.199151733622	0.007259520977
8	483	702.81862641552	0.064712879521
8	489	722.231030094992	0.038473307569
8	504	740.033624880864	0.003764239899
8	510	744.370445607901	0.007298217453
8	513	748.071169905323	0.000601775405
8	524	762.155455425812	0.034286173563
8	528	771.481320638363	0.257504827215
8	531	774.889154004875	0.156112939699
8	546	795.434173889329	0.113174762372
8	552	817.092985125247	0.235810111622
8	564	858.059324219429	0.444448029388
8	567	861.710205674252	0.157320909093
8	570	867.916212496073	0.063420075347
8	573	869.738730598335	0.082512253858
8	579	890.683835376507	0.173463915722
8	585	895.590600027217	0.095716060496
8	588	899.010830063901	0.005200975231
8	593	900.031695288418	0.044860782272
8	597	901.530526896204	0.136221021136
8	616	918.622395366004	0.018490565172
8	629	937.137958831877	0.030548914389
8	633	938.803474379438	0.057312829649
8	639	949.883776141987	0.377821861592
8	642	954.484880778638	0.131985264492
8	651	963.511946219604	0.109508259809
8	660	992.279632932253	0.006495206866
8	663	998.51639750608	0.509976299118
9	11	20.669550506509	0
9	14	20.781317155895	0
9	29	55.371912349618	0
9	32	58.108909465047	0
9	38	78.449350332479	0
9	44	83.189739550936	0
9	50	90.758188100501	0
9	65	107.711484596612	0
9	68	110.360627975049	0
9	71	115.8485132762	0
9	74	115.963155953747	0
9	86	125.431514480397	0
9	98	131.060931914181	0
9	104	145.587963198214	0
9	107	150.735485777362	0
9	113	155.875878827663	0
9	116	163.271448638953	0
9	119	183.835622092667	0
9	125	190.34400740977	0
9	140	216.440327911443	0
9	143	224.545151760108	0
9	146	226.129538316799	0
9	149	233.968707502465	0
9	152	234.989716245952	0.088592121482
9	155	246.059496190153	0
9	164	260.368045087251	0
9	167	263.436452830436	0.10005804027
9	173	265.521024030911	0
9	179	277.981986462837	0
9	182	295.034097234801	0
9	185	297.796612266275	0.350892709826
9	191	304.701575135423	0
9	194	305.902576996574	0.985891502186
9	197	310.469543289181	0
9	203	314.820727748739	0
9	206	318.232611554294	0
9	209	324.812807502354	0
9	224	361.253872248248	0
9	236	382.033569988247	0
9	239	386.094833956454	0
9	242	386.888548235138	0.240587095484
9	245	389.11721552314	0
9	251	392.226410515015	0
9	256	395.102741680329	2.195594028493
9	257	395.591279476004	0.530792487556
9	260	396.36227194133	0
9	275	437.031828547986	0
9	287	448.318011895377	0
9	290	449.686015902366	0
9	293	453.261598126964	0
9	299	457.149607354789	0
9	302	459.167132141822	0
9	307	460.287693695454	0.384711374882
9	308	463.109883037154	2.97127957451
9	311	465.705246785592	0
9	320	468.251201226019	0
9	323	475.822507308272	0
9	332	480.825237471622	0
9	341	509.866602764496	0
9	353	532.51419919372	0
9	359	539.722009720888	0
9	362	543.960260144784	0
9	365	555.155696511461	0
9	398	596.98708789577	0
9	403	599.896962085844	1.612117019128
9	404	600.572229408172	1.995855349199
9	407	602.620604624623	0
9	410	606.95438653281	0
9	416	610.162704550092	0
9	419	614.958540455523	0
9	422	623.406264846895	0
9	434	637.852286977402	0
9	443	648.643934406955	0
9	452	676.580654484565	0
9	455	679.89463627924	0
9	458	683.746700318794	0
9	461	684.524874813408	0.045352518198
9	466	685.995442765366	0.663627015493
9	467	687.576864042372	1.603260233395
9	470	688.199151733622	0.007259520977
9	473	690.996536964801	0
9	476	693.363951631028	1.159171904306
9	479	695.353883843244	0
9	485	706.298540363435	0
9	491	722.445853962356	0
9	494	723.104634167044	0
9	497	733.272343944783	0
9	500	739.797730469372	0
9	506	740.509362681322	0
9	515	750.972521332418	0
9	518	760.22695815373	0
9	521	761.712095157267	0
9	524	762.155455425812	0.034286173563
9	533	777.587614563966	0
9	536	789.201234791078	0
9	539	789.526551019467	0
9	542	790.098464162913	0.236975529232
9	548	795.939403761245	0
9	554	819.542236411746	0
9	557	835.156933545261	0
9	560	837.724076214384	0
9	575	882.462444236032	0
9	581	890.900647318088	0
9	590	899.670495225509	0
9	593	900.031695288418	0.044860782272
9	599	902.698546084606	0
9	602	903.095442213722	0
9	605	905.6883806559	0.598519153828
9	608	911.003404036779	0
9	611	915.690760576577	0
9	616	918.622395366004	0.846960629281
9	617	919.66401327905	1.060108478218
9	620	924.213556890148	0
9	623	934.076817536199	0
9	626	936.960064299383	0
9	629	937.137958831877	0.030548914389
9	635	939.38482909942	0
9	644	957.912134853835	0
9	647	959.548743667564	0
9	653	978.23760579542	0
9	656	985.919423558647	0
9	665	998.744812864239	0
9	668	999.86479482569	0.06207813939
10	12	20.679978851329	0.01042834482
10	15	21.234599018283	0.453281862388
10	30	56.06881576684	0.696903417222
10	33	58.800318887726	0.691409422679
10	39	79.134079639363	0.684729306884
10	45	83.197311244037	0.007571693101
10	51	90.901861646054	0.143673545553
10	66	108.091609953195	0.380125356583
10	69	110.513908640907	0.153280665858
10	72	115.861924821128	0.013411544928
10	75	116.209771164653	0.246615210906
10	87	127.528885470285	2.097370989888
10	99	131.603090298298	0.542158384117
10	105	145.735914423826	0.147951225612
10	108	151.020639280587	0.285153503225
10	114	156.025090551072	0.149211723409
10	117	163.359252679622	0.087804040669
10	120	184.339614205474	0.503992112807
10	126	190.767889029533	0.423881619763
10	141	217.122840864621	0.682512953178
10	144	224.727604946683	0.182453186575
10	147	226.508910136074	0.379371819275
10	153	236.685678504656	1.784554380186
10	156	246.527823115194	0.468326925041
10	168	263.529427740254	0.193032950088
10	174	266.847759924775	1.326735893864
10	180	278.02150552967	0.039519066833
10	186	299.544484827087	2.098765270638
10	194	305.902576996574	1.201001861151
10	195	307.111724664093	2.195039169705
10	198	311.31995223425	0.850408945069
10	204	314.966245139038	0.145517390299
10	207	320.515463862932	2.282852308638
10	210	324.958998090426	0.146190588072
10	225	362.353181685757	1.099309437509
10	237	385.045577149633	3.012007161386
10	242	386.888548235138	0.793714278684
10	243	387.693869506409	1.045908366755
10	246	390.32931263134	1.2120971082
10	257	395.591279476004	2.684131824168
10	258	395.662880069232	0.602393080784
10	261	397.355311506534	0.993039565204
10	276	438.217433331087	1.185604783101
10	288	449.15012166234	0.832109766963
10	291	451.428245259153	1.742229356787
10	294	454.28205075245	1.020452625486
10	300	457.776346148057	0.626738793268
10	308	463.109883037154	3.206900716582
10	309	463.906477137132	3.767873674488
10	312	466.175585419619	0.470338634027
10	321	469.879515027476	1.628313801457
10	324	477.620058518197	1.797551209925
10	333	484.921138272527	4.095900800905
10	342	509.976928875417	0.110326110921
10	354	532.700090630616	0.185891436896
10	360	539.804648125521	0.082638404633
10	363	544.696491697909	0.736231553125
10	366	555.225764491703	0.070067980242
10	403	599.896962085844	2.909874190074
10	404	600.572229408172	2.287384341456
10	405	601.620739441616	3.044365382643
10	408	602.855652286626	0.235047662003
10	411	608.926459410984	1.972072878174
10	417	612.755955516961	2.593250966869
10	420	618.493703837841	3.535163382318
10	423	627.349291041824	3.943026194929
10	435	638.057519010542	0.20523203314
10	444	649.751478294318	1.107543887363
10	453	676.859199329759	0.278544845194
10	456	680.76631554148	0.87167926224
10	467	687.576864042372	2.245048292499
10	471	688.258312023067	0.066419810422
10	476	693.363951631028	2.367414666227
10	477	693.411777296481	1.206997569759
10	480	696.773850748076	1.419966904832
10	486	707.166660678457	0.868120315022
10	492	722.871881976908	0.426028014552
10	495	723.182067509444	0.0774333424
10	498	733.895097376518	0.622753431735
10	501	739.972167236547	0.174436767175
10	507	741.452351004934	0.942988323612
10	516	751.543253961282	0.570732628864
10	519	760.912696277619	0.685738123889
10	525	762.870511314931	0.749342062682
10	534	778.237652475379	0.650037911413
10	537	789.352241606471	0.151006815393
10	542	790.098464162913	0.571913143446
10	543	792.390336718062	2.528848084381
10	549	797.982770241082	2.043366479837
10	555	823.392201652212	3.849965240466
10	558	835.364398947237	0.207465401976
10	561	840.3795988541	2.655522639716
10	576	883.626152299612	1.16370806358
10	582	891.399513286407	0.498865968319
10	594	901.1651938066	1.178359300454
10	600	903.040106473559	0.341560388953
10	605	905.6883806559	2.592938442178
10	606	906.069278753924	0.979417251852
10	609	911.043658291429	0.04025425465
10	617	919.66401327905	1.888578542327
10	618	922.040949092856	3.437044292024
10	621	924.257353797046	0.043796906898
10	624	935.093077758683	1.016260222484
10	630	937.207993977247	0.100584059759
10	636	940.004164007409	0.619334907989
10	645	958.240260979436	0.328126125601
10	648	959.603262605846	0.054518938282
10	654	978.754142740208	0.516536944788
10	657	985.958758035319	0.039334476672
10	668	999.86479482569	1.119981961451
11	669	1000	0.11
12	669	1000	0.112

