version 2
run Consistency_test_bosses_waiting_time-4-20221215-11:43:52-6172
attr configname Consistency_test_bosses_waiting_time
attr datetime 20221215-11:43:52
attr experiment Consistency_test_bosses_waiting_time
attr inifile omnetpp.ini
attr iterationvars $0=1
attr iterationvarsf 1-
attr measurement $0=1
attr network Network
attr processid 6172
attr repetition 4
attr replication #4
attr resultdir results
attr runnumber 4
attr seedset 4
param *.boss.arrival_mean 10
param *.boss.service_mean 1
param **.minion.arrival_distribution 0
param **.minion.service_distribution 0
param *.minion.arrival_mean 10
param *.minion.service_mean 1
param **.boss.arrival_distribution 0
param **.boss.service_distribution 0

vector 0 Network.player minion_jobs_number_stat:vector ETV
attr source signal_minion_jobs_number
vector 1 Network.player minion_jobs_queue_number_stat:vector ETV
attr source signal_minion_jobs_queue_number
vector 2 Network.player minion_recovered_stat:vector ETV
attr source signal_minion_recovered
vector 3 Network.player minion_defeated_stat:vector ETV
attr source signal_minion_defeated
vector 4 Network.player boss_jobs_number_stat:vector ETV
attr source signal_boss_jobs_number
vector 5 Network.player boss_jobs_queue_number_stat:vector ETV
attr source signal_boss_jobs_queue_number
vector 6 Network.player boss_defeated_stat:vector ETV
attr source signal_boss_defeated
vector 7 Network.player minion_waiting_time_stat:vector ETV
attr source signal_minion_waiting_time
vector 8 Network.player minion_response_time_stat:vector ETV
attr source signal_minion_response_time
vector 9 Network.player boss_waiting_time_stat:vector ETV
attr source signal_boss_waiting_time
vector 10 Network.player boss_response_time_stat:vector ETV
attr source signal_boss_response_time
vector 11 Network.player minion_throughput:vector ETV
attr source signal_minion_throughput
vector 12 Network.player boss_throughput:vector ETV
attr source signal_boss_throughput
0	0	0	0
0	2	2.526896176115	1
0	5	6.481887888712	1
0	14	13.887700817484	1
0	16	14.460677727721	2
0	23	22.461354729739	1
0	29	26.151965030841	1
0	31	26.618709544814	2
0	33	28.11757744394	3
0	38	32.591843042649	1
0	41	44.781493950011	1
0	47	47.30568502324	1
0	51	48.976924481031	2
0	59	60.647746900314	1
0	62	71.255792338237	1
0	65	73.043846883222	1
0	73	93.129809154164	1
0	76	93.85900985161	2
0	89	112.472476983236	1
0	98	140.776496146625	1
0	101	152.344896271323	1
0	104	160.638721479899	1
0	106	162.514342478028	2
0	108	163.326359922978	3
0	116	172.348487298775	1
0	124	185.17289551946	1
0	128	193.472529009911	1
0	131	195.197653347537	1
0	140	208.17833297579	1
0	143	211.058905125493	1
0	146	215.398382841446	1
0	149	218.872523248225	1
0	152	231.285500895061	1
0	158	243.212886209381	1
0	161	247.699769433324	1
0	169	253.940908882095	1
0	171	254.870191724776	2
0	176	257.291699002263	1
0	179	260.975533197602	1
0	182	266.896364656888	1
0	188	279.174382928188	1
0	193	280.462707422489	1
0	197	285.488559130623	1
0	215	310.460822372497	1
0	218	312.625175963613	1
0	226	320.98257289532	1
0	233	324.193328841001	1
0	236	330.580284672149	1
0	238	331.984361522073	2
0	245	335.761398380439	1
0	251	352.978059280825	1
0	253	353.419832700556	2
0	257	354.029144478105	1
0	265	367.990366123876	1
0	271	370.215756671625	1
0	278	378.052364412856	1
0	284	392.371167949294	1
0	293	406.946512179946	1
0	296	428.383531803711	1
0	308	444.011401927085	1
0	311	450.98066652757	1
0	314	451.73028784658	1
0	319	457.757667197246	1
0	323	468.537409541898	1
0	326	473.982018299906	1
0	328	474.529741610902	2
0	330	475.544180612483	3
0	338	487.096783251574	1
0	341	498.149657772508	1
0	347	504.007860976143	1
0	359	521.612487774395	1
0	362	527.923533215532	1
0	365	537.445084178704	1
0	368	548.264386181192	1
0	380	590.493629256602	1
0	386	602.20438266908	1
0	398	615.409528465206	1
0	401	618.465673972245	1
0	404	619.717847794858	1
0	406	619.833301056846	2
0	412	625.095285653623	2
0	419	639.848484542895	1
0	422	642.658770506067	1
0	431	659.594703833646	1
0	440	673.829436125857	1
0	443	675.333498500462	1
0	452	690.910142428003	1
0	455	699.537802025186	1
0	461	701.278112949638	1
0	464	705.443488769669	1
0	470	720.668128982073	1
0	473	723.310590708142	1
0	476	724.755192015371	1
0	481	726.969688862878	1
0	485	730.360630098194	1
0	488	733.528179951936	1
0	500	747.957665793117	1
0	509	785.616464863021	1
0	512	794.197517599841	1
0	514	796.623699401966	2
0	516	796.72708907059	3
0	523	801.133982897773	2
0	530	815.422787032409	1
0	532	815.608500370594	2
0	536	815.934585411496	1
0	544	825.526313810085	1
0	548	835.67500919863	1
0	551	838.293922995647	1
0	559	849.288132877701	1
0	569	862.849732286948	1
0	575	867.819189508284	1
0	581	876.595906204156	1
0	584	884.676733301921	1
0	587	890.125790668226	1
0	593	899.84808513181	1
0	604	912.201097435126	1
0	608	924.745328877657	1
0	623	960.517106469297	1
0	632	1033.384009707371	1
0	656	1049.993380740303	1
0	676	1082.984639060615	1
0	680	1088.617329153541	1
0	683	1103.125587623014	1
0	692	1134.762032603282	1
0	695	1147.048587206214	1
0	698	1147.537948956536	1
0	710	1164.904607599407	1
0	716	1178.101504796177	1
0	719	1183.818427798031	1
0	728	1195.078255801779	1
0	734	1207.401156566698	1
0	737	1214.887864769734	1
0	742	1217.974748432124	1
0	749	1226.344634059431	1
0	758	1235.378878174354	1
0	764	1248.214279567109	1
0	773	1265.493396779247	1
0	779	1276.969427052902	1
0	791	1292.311340785742	1
0	794	1308.17405787577	1
0	806	1344.116104056895	1
0	809	1345.313465627111	1
0	812	1354.599587035081	1
0	818	1356.820560843841	1
0	836	1405.804050851196	1
0	842	1418.580934377472	1
0	845	1419.365251027381	1
0	848	1424.371814798071	1
0	851	1426.080754246227	1
0	854	1430.223573916927	1
0	857	1432.174455560598	1
0	860	1433.840264766058	1
0	863	1438.239809209698	1
0	865	1439.299794285302	2
0	875	1452.654154888627	1
0	878	1457.883931666083	1
0	887	1463.273812668466	1
0	892	1472.018476230275	1
0	896	1474.9858238411	1
0	908	1488.484311171099	1
0	911	1493.700703597856	1
0	920	1514.130707624126	1
0	926	1526.978937178612	1
0	947	1560.94884828646	1
0	950	1564.5415027936	1
0	953	1570.621567227446	1
0	971	1589.074637641165	1
0	974	1594.189946417285	1
0	977	1596.105758401379	1
0	979	1599.657371185126	2
0	984	1600.459363741868	2
0	989	1618.082927982142	1
0	992	1619.408985688684	1
0	1000	1643.470809558966	1
0	1007	1654.772490570587	1
0	1010	1669.302674711366	1
0	1019	1691.348428581574	1
0	1022	1692.056031350476	1
0	1025	1693.557577111194	1
0	1028	1702.87229380948	1
0	1034	1712.519235799934	1
0	1037	1740.523544655067	1
0	1040	1745.556817795269	1
0	1042	1746.634258612059	2
0	1049	1752.693400708012	1
0	1064	1790.6533783296	1
0	1079	1816.797479941983	1
0	1085	1821.20874573268	1
0	1088	1823.300686946975	1
0	1097	1833.919262889088	1
0	1106	1839.387629554969	1
0	1109	1840.697669255105	1
0	1112	1848.201262330267	1
0	1133	1880.733915395693	1
0	1136	1883.06317196079	1
0	1139	1893.595205370134	1
0	1145	1904.705244863345	1
0	1166	1932.300439084964	1
0	1169	1939.475494742049	1
0	1177	1963.425493522929	1
0	1179	1964.026110923123	2
0	1184	1969.771006203081	1
0	1187	1977.582003380281	1
1	0	0	0
1	2	2.526896176115	0
1	3	2.875978594682	0
1	5	6.481887888712	0
1	6	6.682509195366	0
1	14	13.887700817484	0
1	16	14.460677727721	1
1	17	14.643972591904	1
1	18	16.503371976069	0
1	23	22.461354729739	0
1	24	22.673955038689	0
1	29	26.151965030841	0
1	31	26.618709544814	1
1	33	28.11757744394	2
1	34	28.348973088178	2
1	35	28.419288643925	1
1	36	30.063428395203	0
1	38	32.591843042649	0
1	39	34.138237905039	0
1	41	44.781493950011	0
1	45	45.720525679637	0
1	47	47.30568502324	0
1	51	48.976924481031	1
1	53	49.893838042902	1
1	57	50.162066767641	0
1	59	60.647746900314	0
1	60	61.662535359256	0
1	62	71.255792338237	0
1	63	71.50361415717	0
1	65	73.043846883222	0
1	69	74.283083198842	0
1	73	93.129809154164	0
1	76	93.85900985161	1
1	77	94.324078778285	1
1	78	94.363925116664	0
1	89	112.472476983236	0
1	90	114.438047714769	0
1	98	140.776496146625	0
1	99	141.219372831145	0
1	101	152.344896271323	0
1	102	152.387044732565	0
1	104	160.638721479899	0
1	106	162.514342478028	1
1	108	163.326359922978	2
1	109	163.551642885856	2
1	110	164.90863564646	1
1	111	164.97055857978	0
1	116	172.348487298775	0
1	117	173.19342844329	0
1	124	185.17289551946	0
1	126	187.315714499258	0
1	128	193.472529009911	0
1	129	193.507444723906	0
1	131	195.197653347537	0
1	132	197.295589064575	0
1	140	208.17833297579	0
1	141	208.421058535202	0
1	143	211.058905125493	0
1	144	211.111455698433	0
1	146	215.398382841446	0
1	147	216.066972086911	0
1	149	218.872523248225	0
1	150	219.929279703774	0
1	152	231.285500895061	0
1	153	231.60392517991	0
1	158	243.212886209381	0
1	159	244.01529343446	0
1	161	247.699769433324	0
1	162	247.826539089599	0
1	169	253.940908882095	0
1	171	254.870191724776	1
1	173	255.937717229908	1
1	174	256.293869568447	0
1	176	257.291699002263	0
1	177	257.952434408538	0
1	179	260.975533197602	0
1	180	261.45011378662	0
1	182	266.896364656888	0
1	183	267.229027584964	0
1	188	279.174382928188	0
1	189	279.175507459365	0
1	193	280.462707422489	0
1	195	281.159723070327	0
1	197	285.488559130623	0
1	198	286.137941721309	0
1	215	310.460822372497	0
1	216	311.285238145942	0
1	218	312.625175963613	0
1	219	313.368924675604	0
1	226	320.98257289532	0
1	228	321.991246595897	0
1	233	324.193328841001	0
1	234	324.24089981317	0
1	236	330.580284672149	0
1	238	331.984361522073	1
1	239	332.134764400129	1
1	240	332.527939620059	0
1	245	335.761398380439	0
1	246	336.303515834271	0
1	251	352.978059280825	0
1	253	353.419832700556	1
1	254	353.496581284475	1
1	255	353.651953953842	0
1	257	354.029144478105	0
1	258	354.381196577268	0
1	265	367.990366123876	0
1	267	368.352842237495	0
1	271	370.215756671625	0
1	273	371.352895736368	0
1	278	378.052364412856	0
1	279	378.109190191907	0
1	284	392.371167949294	0
1	285	393.100191432726	0
1	293	406.946512179946	0
1	294	408.21249229151	0
1	296	428.383531803711	0
1	300	431.180242594678	0
1	308	444.011401927085	0
1	309	444.357161460713	0
1	311	450.98066652757	0
1	312	451.174877742874	0
1	314	451.73028784658	0
1	315	451.951899915712	0
1	319	457.757667197246	0
1	321	458.729780242814	0
1	323	468.537409541898	0
1	324	470.317421815112	0
1	326	473.982018299906	0
1	328	474.529741610902	1
1	330	475.544180612483	2
1	331	475.560377447038	2
1	332	476.399686584146	1
1	333	477.350610100035	0
1	338	487.096783251574	0
1	339	487.182711308911	0
1	341	498.149657772508	0
1	342	498.215144977406	0
1	347	504.007860976143	0
1	348	504.795315701245	0
1	359	521.612487774395	0
1	360	522.052888048932	0
1	362	527.923533215532	0
1	363	528.096647780442	0
1	365	537.445084178704	0
1	366	538.224992711126	0
1	368	548.264386181192	0
1	369	549.393753753122	0
1	380	590.493629256602	0
1	381	592.127928846098	0
1	386	602.20438266908	0
1	387	602.330481481282	0
1	398	615.409528465206	0
1	399	615.661951303908	0
1	401	618.465673972245	0
1	402	619.054454044889	0
1	404	619.717847794858	0
1	406	619.833301056846	1
1	410	623.453011678565	1
1	412	625.095285653623	1
1	413	626.65619684216	1
1	414	628.351676709934	0
1	419	639.848484542895	0
1	420	641.444353572829	0
1	422	642.658770506067	0
1	423	643.055803247411	0
1	431	659.594703833646	0
1	432	659.66510347802	0
1	440	673.829436125857	0
1	441	674.445387709381	0
1	443	675.333498500462	0
1	447	680.450210436131	0
1	452	690.910142428003	0
1	453	692.350632331335	0
1	455	699.537802025186	0
1	459	700.968812414967	0
1	461	701.278112949638	0
1	462	701.329467466193	0
1	464	705.443488769669	0
1	465	706.712092823563	0
1	470	720.668128982073	0
1	471	722.446710908553	0
1	473	723.310590708142	0
1	474	724.671516665362	0
1	476	724.755192015371	0
1	477	724.765129282601	0
1	481	726.969688862878	0
1	483	730.041599309334	0
1	485	730.360630098194	0
1	486	730.6002825631	0
1	488	733.528179951936	0
1	492	734.111315197255	0
1	500	747.957665793117	0
1	501	748.153031500284	0
1	509	785.616464863021	0
1	510	787.116934384	0
1	512	794.197517599841	0
1	514	796.623699401966	1
1	516	796.72708907059	2
1	517	796.756723589772	2
1	521	800.156927515365	1
1	523	801.133982897773	1
1	524	801.33332798553	1
1	525	803.101203572634	0
1	530	815.422787032409	0
1	532	815.608500370594	1
1	533	815.685926934988	1
1	534	815.715517444267	0
1	536	815.934585411496	0
1	540	818.379884176903	0
1	544	825.526313810085	0
1	546	826.138557218116	0
1	548	835.67500919863	0
1	549	836.015106594469	0
1	551	838.293922995647	0
1	552	838.868846324782	0
1	559	849.288132877701	0
1	561	852.988483054154	0
1	569	862.849732286948	0
1	570	863.585025395788	0
1	575	867.819189508284	0
1	576	868.237172645628	0
1	581	876.595906204156	0
1	582	877.274899368131	0
1	584	884.676733301921	0
1	585	885.410290961772	0
1	587	890.125790668226	0
1	588	890.2655462802	0
1	593	899.84808513181	0
1	594	902.408297547438	0
1	604	912.201097435126	0
1	606	920.615357428452	0
1	608	924.745328877657	0
1	609	924.75608212669	0
1	623	960.517106469297	0
1	624	960.585066650692	0
1	632	1033.384009707371	0
1	633	1033.849495584035	0
1	656	1049.993380740303	0
1	657	1050.859178174046	0
1	676	1082.984639060615	0
1	678	1085.18713428872	0
1	680	1088.617329153541	0
1	681	1089.486676251054	0
1	683	1103.125587623014	0
1	684	1103.824225933081	0
1	692	1134.762032603282	0
1	693	1137.848518491205	0
1	695	1147.048587206214	0
1	696	1147.10984560919	0
1	698	1147.537948956536	0
1	699	1147.7579023217	0
1	710	1164.904607599407	0
1	711	1165.160304020964	0
1	716	1178.101504796177	0
1	717	1178.188507513597	0
1	719	1183.818427798031	0
1	723	1190.245819568319	0
1	728	1195.078255801779	0
1	729	1197.231251060935	0
1	734	1207.401156566698	0
1	735	1207.581063943104	0
1	737	1214.887864769734	0
1	738	1214.903685451985	0
1	742	1217.974748432124	0
1	744	1219.50131837372	0
1	749	1226.344634059431	0
1	750	1227.932284274794	0
1	758	1235.378878174354	0
1	762	1241.004762812929	0
1	764	1248.214279567109	0
1	768	1251.914490743028	0
1	773	1265.493396779247	0
1	774	1266.093763678843	0
1	779	1276.969427052902	0
1	780	1279.02549420907	0
1	791	1292.311340785742	0
1	792	1293.411412735169	0
1	794	1308.17405787577	0
1	795	1310.652307771634	0
1	806	1344.116104056895	0
1	807	1344.615478556151	0
1	809	1345.313465627111	0
1	810	1345.633413614402	0
1	812	1354.599587035081	0
1	816	1356.483130231543	0
1	818	1356.820560843841	0
1	819	1357.090247316416	0
1	836	1405.804050851196	0
1	837	1407.095592878768	0
1	842	1418.580934377472	0
1	843	1418.952751735946	0
1	845	1419.365251027381	0
1	846	1421.807088691882	0
1	848	1424.371814798071	0
1	849	1425.629340500969	0
1	851	1426.080754246227	0
1	852	1426.396223259622	0
1	854	1430.223573916927	0
1	855	1430.30993331561	0
1	857	1432.174455560598	0
1	858	1432.6729577947	0
1	860	1433.840264766058	0
1	861	1434.965692723343	0
1	863	1438.239809209698	0
1	865	1439.299794285302	1
1	866	1439.363295197927	1
1	867	1441.31892509752	0
1	875	1452.654154888627	0
1	876	1453.324941949126	0
1	878	1457.883931666083	0
1	879	1459.064503378507	0
1	887	1463.273812668466	0
1	888	1464.016983913259	0
1	892	1472.018476230275	0
1	894	1474.825845099729	0
1	896	1474.9858238411	0
1	897	1475.388240719147	0
1	908	1488.484311171099	0
1	909	1488.920154949044	0
1	911	1493.700703597856	0
1	912	1496.894660212862	0
1	920	1514.130707624126	0
1	921	1514.379415255698	0
1	926	1526.978937178612	0
1	927	1527.241171900845	0
1	947	1560.94884828646	0
1	948	1561.230379168922	0
1	950	1564.5415027936	0
1	951	1565.974622666959	0
1	953	1570.621567227446	0
1	954	1571.921362920505	0
1	971	1589.074637641165	0
1	972	1589.247965244236	0
1	974	1594.189946417285	0
1	975	1594.256222733548	0
1	977	1596.105758401379	0
1	979	1599.657371185126	1
1	980	1600.050018073275	1
1	984	1600.459363741868	1
1	986	1601.301227668547	1
1	987	1601.589402495392	0
1	989	1618.082927982142	0
1	990	1618.75172862231	0
1	992	1619.408985688684	0
1	993	1619.581407626831	0
1	1000	1643.470809558966	0
1	1002	1644.851890265456	0
1	1007	1654.772490570587	0
1	1008	1655.54994936377	0
1	1010	1669.302674711366	0
1	1011	1669.414913109353	0
1	1019	1691.348428581574	0
1	1020	1691.509272171551	0
1	1022	1692.056031350476	0
1	1023	1692.908432059062	0
1	1025	1693.557577111194	0
1	1026	1694.498869227822	0
1	1028	1702.87229380948	0
1	1032	1707.134770605701	0
1	1034	1712.519235799934	0
1	1035	1713.359174977389	0
1	1037	1740.523544655067	0
1	1038	1741.248555285235	0
1	1040	1745.556817795269	0
1	1042	1746.634258612059	1
1	1043	1747.439611562945	1
1	1047	1751.639750876046	0
1	1049	1752.693400708012	0
1	1050	1752.711057754564	0
1	1064	1790.6533783296	0
1	1065	1795.076782424832	0
1	1079	1816.797479941983	0
1	1080	1817.251581493369	0
1	1085	1821.20874573268	0
1	1086	1822.997734656748	0
1	1088	1823.300686946975	0
1	1092	1824.786432349544	0
1	1097	1833.919262889088	0
1	1104	1836.425030556886	0
1	1106	1839.387629554969	0
1	1107	1839.648413501248	0
1	1109	1840.697669255105	0
1	1110	1840.781215378074	0
1	1112	1848.201262330267	0
1	1113	1848.825388196284	0
1	1133	1880.733915395693	0
1	1134	1882.782222612284	0
1	1136	1883.06317196079	0
1	1137	1883.80683115237	0
1	1139	1893.595205370134	0
1	1140	1894.843779545706	0
1	1145	1904.705244863345	0
1	1146	1905.850857217458	0
1	1166	1932.300439084964	0
1	1167	1933.617625564611	0
1	1169	1939.475494742049	0
1	1170	1939.608632696628	0
1	1177	1963.425493522929	0
1	1179	1964.026110923123	1
1	1181	1967.279667658273	1
1	1182	1967.779249979965	0
1	1184	1969.771006203081	0
1	1185	1971.137416425287	0
1	1187	1977.582003380281	0
1	1188	1977.72905648213	0
2	0	0	0
2	43	45.094729109763	1
2	49	47.899129758017	2
2	55	49.906106094595	3
2	67	73.806652159258	4
2	298	429.199518183454	5
2	408	620.319476456861	6
2	445	677.802392623781	7
2	457	700.112166876843	8
2	490	733.656434424301	9
2	519	797.839134588221	10
2	538	816.278860132989	11
2	721	1186.38620712618	12
2	760	1237.659209860765	13
2	766	1248.58893608772	14
2	814	1355.059510995763	15
2	982	1600.254870312603	16
2	1030	1703.528031796778	17
2	1045	1747.993458449229	18
2	1090	1824.114678924851	19
2	1099	1834.071879541473	20
2	1102	1835.737343396305	21
3	0	0	0
3	3	2.875978594682	1
3	6	6.682509195366	2
3	17	14.643972591904	3
3	18	16.503371976069	4
3	24	22.673955038689	5
3	34	28.348973088178	6
3	35	28.419288643925	7
3	36	30.063428395203	8
3	39	34.138237905039	9
3	45	45.720525679637	10
3	53	49.893838042902	11
3	57	50.162066767641	12
3	60	61.662535359256	13
3	63	71.50361415717	14
3	69	74.283083198842	15
3	77	94.324078778285	16
3	78	94.363925116664	17
3	90	114.438047714769	18
3	99	141.219372831145	19
3	102	152.387044732565	20
3	109	163.551642885856	21
3	110	164.90863564646	22
3	111	164.97055857978	23
3	117	173.19342844329	24
3	126	187.315714499258	25
3	129	193.507444723906	26
3	132	197.295589064575	27
3	141	208.421058535202	28
3	144	211.111455698433	29
3	147	216.066972086911	30
3	150	219.929279703774	31
3	153	231.60392517991	32
3	159	244.01529343446	33
3	162	247.826539089599	34
3	173	255.937717229908	35
3	174	256.293869568447	36
3	177	257.952434408538	37
3	180	261.45011378662	38
3	183	267.229027584964	39
3	189	279.175507459365	40
3	195	281.159723070327	41
3	198	286.137941721309	42
3	216	311.285238145942	43
3	219	313.368924675604	44
3	228	321.991246595897	45
3	234	324.24089981317	46
3	239	332.134764400129	47
3	240	332.527939620059	48
3	246	336.303515834271	49
3	254	353.496581284475	50
3	255	353.651953953842	51
3	258	354.381196577268	52
3	267	368.352842237495	53
3	273	371.352895736368	54
3	279	378.109190191907	55
3	285	393.100191432726	56
3	294	408.21249229151	57
3	300	431.180242594678	58
3	309	444.357161460713	59
3	312	451.174877742874	60
3	315	451.951899915712	61
3	321	458.729780242814	62
3	324	470.317421815112	63
3	331	475.560377447038	64
3	332	476.399686584146	65
3	333	477.350610100035	66
3	339	487.182711308911	67
3	342	498.215144977406	68
3	348	504.795315701245	69
3	360	522.052888048932	70
3	363	528.096647780442	71
3	366	538.224992711126	72
3	369	549.393753753122	73
3	381	592.127928846098	74
3	387	602.330481481282	75
3	399	615.661951303908	76
3	402	619.054454044889	77
3	410	623.453011678565	78
3	413	626.65619684216	79
3	414	628.351676709934	80
3	420	641.444353572829	81
3	423	643.055803247411	82
3	432	659.66510347802	83
3	441	674.445387709381	84
3	447	680.450210436131	85
3	453	692.350632331335	86
3	459	700.968812414967	87
3	462	701.329467466193	88
3	465	706.712092823563	89
3	471	722.446710908553	90
3	474	724.671516665362	91
3	477	724.765129282601	92
3	483	730.041599309334	93
3	486	730.6002825631	94
3	492	734.111315197255	95
3	501	748.153031500284	96
3	510	787.116934384	97
3	517	796.756723589772	98
3	521	800.156927515365	99
3	524	801.33332798553	100
3	525	803.101203572634	101
3	533	815.685926934988	102
3	534	815.715517444267	103
3	540	818.379884176903	104
3	546	826.138557218116	105
3	549	836.015106594469	106
3	552	838.868846324782	107
3	561	852.988483054154	108
3	570	863.585025395788	109
3	576	868.237172645628	110
3	582	877.274899368131	111
3	585	885.410290961772	112
3	588	890.2655462802	113
3	594	902.408297547438	114
3	606	920.615357428452	115
3	609	924.75608212669	116
3	624	960.585066650692	117
3	633	1033.849495584035	118
3	657	1050.859178174046	119
3	678	1085.18713428872	120
3	681	1089.486676251054	121
3	684	1103.824225933081	122
3	693	1137.848518491205	123
3	696	1147.10984560919	124
3	699	1147.7579023217	125
3	711	1165.160304020964	126
3	717	1178.188507513597	127
3	723	1190.245819568319	128
3	729	1197.231251060935	129
3	735	1207.581063943104	130
3	738	1214.903685451985	131
3	744	1219.50131837372	132
3	750	1227.932284274794	133
3	762	1241.004762812929	134
3	768	1251.914490743028	135
3	774	1266.093763678843	136
3	780	1279.02549420907	137
3	792	1293.411412735169	138
3	795	1310.652307771634	139
3	807	1344.615478556151	140
3	810	1345.633413614402	141
3	816	1356.483130231543	142
3	819	1357.090247316416	143
3	837	1407.095592878768	144
3	843	1418.952751735946	145
3	846	1421.807088691882	146
3	849	1425.629340500969	147
3	852	1426.396223259622	148
3	855	1430.30993331561	149
3	858	1432.6729577947	150
3	861	1434.965692723343	151
3	866	1439.363295197927	152
3	867	1441.31892509752	153
3	876	1453.324941949126	154
3	879	1459.064503378507	155
3	888	1464.016983913259	156
3	894	1474.825845099729	157
3	897	1475.388240719147	158
3	909	1488.920154949044	159
3	912	1496.894660212862	160
3	921	1514.379415255698	161
3	927	1527.241171900845	162
3	948	1561.230379168922	163
3	951	1565.974622666959	164
3	954	1571.921362920505	165
3	972	1589.247965244236	166
3	975	1594.256222733548	167
3	980	1600.050018073275	168
3	986	1601.301227668547	169
3	987	1601.589402495392	170
3	990	1618.75172862231	171
3	993	1619.581407626831	172
3	1002	1644.851890265456	173
3	1008	1655.54994936377	174
3	1011	1669.414913109353	175
3	1020	1691.509272171551	176
3	1023	1692.908432059062	177
3	1026	1694.498869227822	178
3	1032	1707.134770605701	179
3	1035	1713.359174977389	180
3	1038	1741.248555285235	181
3	1043	1747.439611562945	182
3	1047	1751.639750876046	183
3	1050	1752.711057754564	184
3	1065	1795.076782424832	185
3	1080	1817.251581493369	186
3	1086	1822.997734656748	187
3	1092	1824.786432349544	188
3	1104	1836.425030556886	189
3	1107	1839.648413501248	190
3	1110	1840.781215378074	191
3	1113	1848.825388196284	192
3	1134	1882.782222612284	193
3	1137	1883.80683115237	194
3	1140	1894.843779545706	195
3	1146	1905.850857217458	196
3	1167	1933.617625564611	197
3	1170	1939.608632696628	198
3	1181	1967.279667658273	199
3	1182	1967.779249979965	200
3	1185	1971.137416425287	201
3	1188	1977.72905648213	202
4	0	0	0
4	8	10.5089196372	1
4	11	11.299468248826	1
4	20	18.340606723112	1
4	26	24.007963516952	1
4	43	45.094729109763	1
4	49	47.899129758017	1
4	55	49.906106094595	1
4	67	73.806652159258	1
4	71	92.92784243635	1
4	80	95.209056653856	1
4	83	109.077453415956	1
4	86	109.19318785571	1
4	92	120.162375139109	1
4	95	125.729176998355	1
4	113	169.87091475028	1
4	119	178.290662706148	1
4	122	181.260830068031	1
4	134	200.207389198768	1
4	136	200.49453176763	2
4	155	239.132807912871	1
4	164	249.231108461971	1
4	167	253.137050577287	1
4	185	271.930662710101	1
4	191	280.020971636963	1
4	200	293.345650039113	1
4	203	302.367622601654	1
4	206	302.577888908291	1
4	209	305.983270072104	1
4	211	307.16663713571	2
4	221	317.260236808546	1
4	224	320.794521026019	1
4	230	323.070455537192	1
4	242	334.685024090306	1
4	248	338.04477515397	1
4	260	357.822730484425	1
4	263	367.555091277454	1
4	269	369.769470820711	1
4	275	374.751576338203	1
4	281	385.457337151412	1
4	287	393.555346628877	1
4	290	405.583602066999	1
4	298	429.199518183454	1
4	302	433.544222437271	1
4	305	440.904542086661	1
4	317	456.509141025988	1
4	335	484.436727192731	1
4	344	501.259390788184	1
4	350	514.621293019252	1
4	353	516.820546412785	1
4	356	519.895557101233	1
4	371	549.744528473908	1
4	374	555.270668099478	1
4	377	561.744768362616	1
4	383	597.110967941681	1
4	389	608.095101500038	1
4	392	610.20348364593	1
4	394	612.577328871283	2
4	408	620.319476456861	1
4	416	636.797435389411	1
4	425	643.477479243331	1
4	428	647.329489232771	1
4	434	662.217309991143	1
4	437	665.69780350906	1
4	445	677.802392623781	1
4	449	681.396582134413	1
4	457	700.112166876843	1
4	467	717.708346885278	1
4	479	725.614894084633	1
4	490	733.656434424301	1
4	494	738.138118507774	1
4	497	740.266058939607	1
4	503	756.310439185602	1
4	506	768.837054689583	1
4	519	797.839134588221	1
4	527	808.052046407496	1
4	538	816.278860132989	1
4	542	823.897486002164	1
4	554	840.206101318034	1
4	557	848.704764157209	1
4	563	862.494438256029	1
4	565	862.618530415025	2
4	572	864.37913183812	1
4	578	876.261372278053	1
4	590	896.460926709993	1
4	596	904.110779308726	1
4	599	910.463377176344	1
4	602	911.287792414425	1
4	611	943.402431156599	1
4	613	943.539744630249	2
4	617	950.465128124486	1
4	620	953.720394224196	1
4	626	967.702635537441	1
4	629	1027.168625179255	1
4	635	1035.266702526067	1
4	638	1037.823378269568	1
4	640	1038.457391092959	2
4	642	1039.566878272766	3
4	645	1040.774691970531	3
4	647	1040.939042959683	4
4	653	1047.574771802914	1
4	659	1051.754615065918	1
4	662	1058.098947761014	1
4	665	1074.611867762944	1
4	668	1077.072304367609	1
4	671	1079.522613116392	1
4	673	1079.885315005145	2
4	686	1107.158405041721	1
4	689	1111.687434111316	1
4	701	1156.339670452649	1
4	703	1156.910044136981	2
4	705	1157.020822374769	3
4	713	1171.019556632009	1
4	721	1186.38620712618	1
4	725	1190.418948067481	1
4	731	1201.982324467767	1
4	740	1216.716539773377	1
4	746	1223.965890547253	1
4	752	1230.519096898306	1
4	755	1233.654063395319	1
4	760	1237.659209860765	1
4	766	1248.58893608772	1
4	770	1258.436151260216	1
4	776	1273.447568760405	1
4	782	1279.026152222142	1
4	785	1285.48241053264	1
4	788	1288.373369043437	1
4	797	1332.425291462519	1
4	799	1333.882486596376	2
4	803	1340.739146648657	1
4	814	1355.059510995763	1
4	821	1366.192367758333	1
4	824	1391.15989602435	1
4	827	1396.785635039665	1
4	830	1398.966200033083	1
4	833	1401.9904723866	1
4	839	1413.771848867949	1
4	869	1442.631011564897	1
4	872	1449.308064101655	1
4	881	1460.927780861829	1
4	883	1461.08247832854	2
4	890	1471.860444708164	1
4	899	1478.059289493321	1
4	901	1478.419384627678	2
4	905	1485.610144631893	1
4	914	1509.275917066536	1
4	917	1511.738571252546	1
4	923	1517.164233970553	1
4	929	1528.047566792139	1
4	932	1534.509124449333	1
4	935	1543.469681274384	1
4	938	1544.927267859	1
4	941	1551.900323378163	1
4	944	1556.398300646277	1
4	956	1573.664123264669	1
4	959	1577.611803772746	1
4	962	1579.978194443654	1
4	964	1581.580091365177	2
4	967	1584.364118877302	2
4	982	1600.254870312603	1
4	995	1635.362834056562	1
4	998	1642.770299022951	1
4	1004	1653.495019676678	1
4	1013	1675.954639766466	1
4	1016	1687.70903967485	1
4	1030	1703.528031796778	1
4	1045	1747.993458449229	1
4	1052	1757.918513575223	1
4	1055	1771.559189473317	1
4	1057	1772.254051426251	2
4	1061	1780.657456020401	1
4	1067	1796.13477203708	1
4	1070	1802.762013082536	1
4	1073	1807.525063892719	1
4	1076	1810.990094542191	1
4	1082	1817.350627243513	1
4	1090	1824.114678924851	1
4	1094	1824.938724493886	1
4	1099	1834.071879541473	1
4	1102	1835.737343396305	1
4	1115	1860.425756514966	1
4	1118	1865.160801153471	1
4	1121	1867.033583306305	1
4	1124	1871.360714548949	1
4	1127	1876.659255825185	1
4	1130	1877.145961034932	1
4	1142	1903.421150625668	1
4	1148	1906.130385961851	1
4	1151	1909.770836731345	1
4	1154	1911.957932511068	1
4	1157	1918.238063923716	1
4	1160	1923.123009561976	1
4	1163	1930.052904660318	1
4	1172	1947.99798475923	1
4	1175	1963.234702189977	1
4	1190	1978.148863989711	1
4	1192	1978.252259645458	2
4	1196	1994.524930435638	1
5	0	0	0
5	8	10.5089196372	0
5	9	10.611543462452	0
5	11	11.299468248826	0
5	12	11.862408955869	0
5	20	18.340606723112	0
5	21	19.772943843631	0
5	26	24.007963516952	0
5	27	24.540256142815	0
5	43	45.094729109763	0
5	44	45.378336786781	0
5	49	47.899129758017	0
5	52	49.155482010975	0
5	55	49.906106094595	0
5	56	50.054758887452	0
5	67	73.806652159258	0
5	68	74.104893336838	0
5	71	92.92784243635	0
5	74	93.33048138998	0
5	80	95.209056653856	0
5	81	96.334935327714	0
5	83	109.077453415956	0
5	84	109.164100754083	0
5	86	109.19318785571	0
5	87	109.234232240387	0
5	92	120.162375139109	0
5	93	121.277046936753	0
5	95	125.729176998355	0
5	96	125.854213786778	0
5	113	169.87091475028	0
5	114	171.513877380231	0
5	119	178.290662706148	0
5	120	178.298844339914	0
5	122	181.260830068031	0
5	125	185.320304464787	0
5	134	200.207389198768	0
5	136	200.49453176763	1
5	137	204.144451612615	1
5	138	205.154121406118	0
5	155	239.132807912871	0
5	156	240.057241974639	0
5	164	249.231108461971	0
5	165	249.474356834085	0
5	167	253.137050577287	0
5	172	255.027624122595	0
5	185	271.930662710101	0
5	186	272.727011475724	0
5	191	280.020971636963	0
5	194	280.806291836809	0
5	200	293.345650039113	0
5	201	294.13433933673	0
5	203	302.367622601654	0
5	204	302.420784724409	0
5	206	302.577888908291	0
5	207	302.844561331036	0
5	209	305.983270072104	0
5	211	307.16663713571	1
5	212	307.245410166235	1
5	213	307.366139109042	0
5	221	317.260236808546	0
5	222	317.565804404872	0
5	224	320.794521026019	0
5	227	321.486986966199	0
5	230	323.070455537192	0
5	231	323.980406340385	0
5	242	334.685024090306	0
5	243	334.850026598369	0
5	248	338.04477515397	0
5	249	340.063058749246	0
5	260	357.822730484425	0
5	261	358.583484528175	0
5	263	367.555091277454	0
5	266	368.189256037509	0
5	269	369.769470820711	0
5	272	370.258872211099	0
5	275	374.751576338203	0
5	276	374.951880098665	0
5	281	385.457337151412	0
5	282	386.623139105503	0
5	287	393.555346628877	0
5	288	394.295811396194	0
5	290	405.583602066999	0
5	291	406.050294629454	0
5	298	429.199518183454	0
5	299	430.22851621601	0
5	302	433.544222437271	0
5	303	436.465961810262	0
5	305	440.904542086661	0
5	306	441.724079123186	0
5	317	456.509141025988	0
5	320	458.011330816406	0
5	335	484.436727192731	0
5	336	485.38114038202	0
5	344	501.259390788184	0
5	345	502.195971728028	0
5	350	514.621293019252	0
5	351	515.837936346005	0
5	353	516.820546412785	0
5	354	517.775661245769	0
5	356	519.895557101233	0
5	357	520.050335554831	0
5	371	549.744528473908	0
5	372	550.774513232124	0
5	374	555.270668099478	0
5	375	558.941256180266	0
5	377	561.744768362616	0
5	378	562.05740387741	0
5	383	597.110967941681	0
5	384	597.515191810871	0
5	389	608.095101500038	0
5	390	609.482020635666	0
5	392	610.20348364593	0
5	394	612.577328871283	1
5	395	612.619858517311	1
5	396	612.957894660552	0
5	408	620.319476456861	0
5	409	621.263912119591	0
5	416	636.797435389411	0
5	417	638.033160515924	0
5	425	643.477479243331	0
5	426	644.98722457507	0
5	428	647.329489232771	0
5	429	647.396469959131	0
5	434	662.217309991143	0
5	435	663.868958945113	0
5	437	665.69780350906	0
5	438	666.868530076002	0
5	445	677.802392623781	0
5	446	679.093469128317	0
5	449	681.396582134413	0
5	450	682.19991888379	0
5	457	700.112166876843	0
5	458	700.198795569659	0
5	467	717.708346885278	0
5	468	718.51539421747	0
5	479	725.614894084633	0
5	482	727.854694115233	0
5	490	733.656434424301	0
5	491	734.081890987496	0
5	494	738.138118507774	0
5	495	738.612043670252	0
5	497	740.266058939607	0
5	498	740.455541631567	0
5	503	756.310439185602	0
5	504	756.704750284838	0
5	506	768.837054689583	0
5	507	769.617793714709	0
5	519	797.839134588221	0
5	520	798.258868241203	0
5	527	808.052046407496	0
5	528	808.105203590177	0
5	538	816.278860132989	0
5	539	816.68579361327	0
5	542	823.897486002164	0
5	545	825.643646785444	0
5	554	840.206101318034	0
5	555	840.43452810659	0
5	557	848.704764157209	0
5	560	849.946324500672	0
5	563	862.494438256029	0
5	565	862.618530415025	1
5	566	862.717961191793	1
5	567	862.763133492397	0
5	572	864.37913183812	0
5	573	864.704714776456	0
5	578	876.261372278053	0
5	579	876.340996347673	0
5	590	896.460926709993	0
5	591	896.968830393431	0
5	596	904.110779308726	0
5	597	904.121177079086	0
5	599	910.463377176344	0
5	600	910.569146099129	0
5	602	911.287792414425	0
5	605	916.455927770166	0
5	611	943.402431156599	0
5	613	943.539744630249	1
5	614	943.604430896224	1
5	615	944.519332334134	0
5	617	950.465128124486	0
5	618	953.15066406306	0
5	620	953.720394224196	0
5	621	953.918526676255	0
5	626	967.702635537441	0
5	627	969.051705755826	0
5	629	1027.168625179255	0
5	630	1027.621777046607	0
5	635	1035.266702526067	0
5	636	1035.546625995258	0
5	638	1037.823378269568	0
5	640	1038.457391092959	1
5	642	1039.566878272766	2
5	643	1039.81727881098	2
5	645	1040.774691970531	2
5	647	1040.939042959683	3
5	648	1041.832341909232	3
5	649	1042.43064356069	2
5	650	1042.87488437458	1
5	651	1046.428176594694	0
5	653	1047.574771802914	0
5	654	1048.043079096402	0
5	659	1051.754615065918	0
5	660	1051.900403881942	0
5	662	1058.098947761014	0
5	663	1058.110719216782	0
5	665	1074.611867762944	0
5	666	1075.869503295571	0
5	668	1077.072304367609	0
5	669	1077.129872583626	0
5	671	1079.522613116392	0
5	673	1079.885315005145	1
5	674	1082.060265632053	1
5	677	1083.666693751899	0
5	686	1107.158405041721	0
5	687	1109.897395331697	0
5	689	1111.687434111316	0
5	690	1112.727039628355	0
5	701	1156.339670452649	0
5	703	1156.910044136981	1
5	705	1157.020822374769	2
5	706	1159.093286891001	2
5	707	1159.253507203679	1
5	708	1160.37061153952	0
5	713	1171.019556632009	0
5	714	1172.454128512199	0
5	721	1186.38620712618	0
5	722	1189.182967812443	0
5	725	1190.418948067481	0
5	726	1190.567280349474	0
5	731	1201.982324467767	0
5	732	1202.725140422557	0
5	740	1216.716539773377	0
5	743	1219.061067254333	0
5	746	1223.965890547253	0
5	747	1224.56176902671	0
5	752	1230.519096898306	0
5	753	1230.840067663203	0
5	755	1233.654063395319	0
5	756	1233.685840572081	0
5	760	1237.659209860765	0
5	761	1238.62566123321	0
5	766	1248.58893608772	0
5	767	1250.548672805959	0
5	770	1258.436151260216	0
5	771	1260.06446332725	0
5	776	1273.447568760405	0
5	777	1273.649108365005	0
5	782	1279.026152222142	0
5	783	1279.054915939513	0
5	785	1285.48241053264	0
5	786	1286.785502075845	0
5	788	1288.373369043437	0
5	789	1288.556290410631	0
5	797	1332.425291462519	0
5	799	1333.882486596376	1
5	800	1335.847761942977	1
5	801	1336.543667873493	0
5	803	1340.739146648657	0
5	804	1343.025029442626	0
5	814	1355.059510995763	0
5	815	1355.635307780182	0
5	821	1366.192367758333	0
5	822	1367.990375742159	0
5	824	1391.15989602435	0
5	825	1391.691847994579	0
5	827	1396.785635039665	0
5	828	1397.678472468822	0
5	830	1398.966200033083	0
5	831	1400.697568107795	0
5	833	1401.9904723866	0
5	834	1402.439042167559	0
5	839	1413.771848867949	0
5	840	1413.889296266695	0
5	869	1442.631011564897	0
5	870	1442.81113237899	0
5	872	1449.308064101655	0
5	873	1450.287090789266	0
5	881	1460.927780861829	0
5	883	1461.08247832854	1
5	884	1461.507977571655	1
5	885	1461.901495087609	0
5	890	1471.860444708164	0
5	893	1473.288338520718	0
5	899	1478.059289493321	0
5	901	1478.419384627678	1
5	902	1479.409827869738	1
5	903	1479.993715051689	0
5	905	1485.610144631893	0
5	906	1485.612168104068	0
5	914	1509.275917066536	0
5	915	1509.415780917848	0
5	917	1511.738571252546	0
5	918	1511.857490729667	0
5	923	1517.164233970553	0
5	924	1517.365178675862	0
5	929	1528.047566792139	0
5	930	1532.520549608769	0
5	932	1534.509124449333	0
5	933	1540.47583039351	0
5	935	1543.469681274384	0
5	936	1544.346201840707	0
5	938	1544.927267859	0
5	939	1545.240407098629	0
5	941	1551.900323378163	0
5	942	1552.370358000442	0
5	944	1556.398300646277	0
5	945	1558.496030171749	0
5	956	1573.664123264669	0
5	957	1573.990591971055	0
5	959	1577.611803772746	0
5	960	1577.790883257979	0
5	962	1579.978194443654	0
5	964	1581.580091365177	1
5	965	1582.054523884417	1
5	967	1584.364118877302	1
5	968	1585.039002122364	1
5	969	1586.399938903834	0
5	982	1600.254870312603	0
5	985	1600.765974308856	0
5	995	1635.362834056562	0
5	996	1636.630932580071	0
5	998	1642.770299022951	0
5	1001	1643.8278059724	0
5	1004	1653.495019676678	0
5	1005	1653.903361293745	0
5	1013	1675.954639766466	0
5	1014	1677.195043767721	0
5	1016	1687.70903967485	0
5	1017	1688.814865386039	0
5	1030	1703.528031796778	0
5	1031	1704.040437552883	0
5	1045	1747.993458449229	0
5	1046	1751.159819320482	0
5	1052	1757.918513575223	0
5	1053	1760.346960554306	0
5	1055	1771.559189473317	0
5	1057	1772.254051426251	1
5	1058	1772.770696140917	1
5	1059	1772.82612206761	0
5	1061	1780.657456020401	0
5	1062	1781.054072153547	0
5	1067	1796.13477203708	0
5	1068	1796.81837324712	0
5	1070	1802.762013082536	0
5	1071	1803.944549216926	0
5	1073	1807.525063892719	0
5	1074	1807.812264275438	0
5	1076	1810.990094542191	0
5	1077	1811.165072927202	0
5	1082	1817.350627243513	0
5	1083	1817.779060399268	0
5	1090	1824.114678924851	0
5	1091	1824.4937150008	0
5	1094	1824.938724493886	0
5	1095	1826.289212315753	0
5	1099	1834.071879541473	0
5	1100	1835.215043007988	0
5	1102	1835.737343396305	0
5	1103	1836.18543996801	0
5	1115	1860.425756514966	0
5	1116	1860.519270380797	0
5	1118	1865.160801153471	0
5	1119	1866.157061111059	0
5	1121	1867.033583306305	0
5	1122	1868.408719561066	0
5	1124	1871.360714548949	0
5	1125	1875.019291918873	0
5	1127	1876.659255825185	0
5	1128	1877.051341290716	0
5	1130	1877.145961034932	0
5	1131	1877.694433944595	0
5	1142	1903.421150625668	0
5	1143	1904.288194695249	0
5	1148	1906.130385961851	0
5	1149	1906.195745893607	0
5	1151	1909.770836731345	0
5	1152	1909.991215908977	0
5	1154	1911.957932511068	0
5	1155	1912.039779441093	0
5	1157	1918.238063923716	0
5	1158	1920.174630405919	0
5	1160	1923.123009561976	0
5	1161	1923.353512908683	0
5	1163	1930.052904660318	0
5	1164	1931.578386380094	0
5	1172	1947.99798475923	0
5	1173	1948.336990209679	0
5	1175	1963.234702189977	0
5	1180	1965.544553227952	0
5	1190	1978.148863989711	0
5	1192	1978.252259645458	1
5	1193	1978.62927294556	1
5	1194	1979.038718635981	0
5	1196	1994.524930435638	0
5	1197	1996.327876289125	0
6	0	0	0
6	9	10.611543462452	1
6	12	11.862408955869	2
6	21	19.772943843631	3
6	27	24.540256142815	4
6	44	45.378336786781	5
6	52	49.155482010975	6
6	56	50.054758887452	7
6	68	74.104893336838	8
6	74	93.33048138998	9
6	81	96.334935327714	10
6	84	109.164100754083	11
6	87	109.234232240387	12
6	93	121.277046936753	13
6	96	125.854213786778	14
6	114	171.513877380231	15
6	120	178.298844339914	16
6	125	185.320304464787	17
6	137	204.144451612615	18
6	138	205.154121406118	19
6	156	240.057241974639	20
6	165	249.474356834085	21
6	172	255.027624122595	22
6	186	272.727011475724	23
6	194	280.806291836809	24
6	201	294.13433933673	25
6	204	302.420784724409	26
6	207	302.844561331036	27
6	212	307.245410166235	28
6	213	307.366139109042	29
6	222	317.565804404872	30
6	227	321.486986966199	31
6	231	323.980406340385	32
6	243	334.850026598369	33
6	249	340.063058749246	34
6	261	358.583484528175	35
6	266	368.189256037509	36
6	272	370.258872211099	37
6	276	374.951880098665	38
6	282	386.623139105503	39
6	288	394.295811396194	40
6	291	406.050294629454	41
6	299	430.22851621601	42
6	303	436.465961810262	43
6	306	441.724079123186	44
6	320	458.011330816406	45
6	336	485.38114038202	46
6	345	502.195971728028	47
6	351	515.837936346005	48
6	354	517.775661245769	49
6	357	520.050335554831	50
6	372	550.774513232124	51
6	375	558.941256180266	52
6	378	562.05740387741	53
6	384	597.515191810871	54
6	390	609.482020635666	55
6	395	612.619858517311	56
6	396	612.957894660552	57
6	409	621.263912119591	58
6	417	638.033160515924	59
6	426	644.98722457507	60
6	429	647.396469959131	61
6	435	663.868958945113	62
6	438	666.868530076002	63
6	446	679.093469128317	64
6	450	682.19991888379	65
6	458	700.198795569659	66
6	468	718.51539421747	67
6	482	727.854694115233	68
6	491	734.081890987496	69
6	495	738.612043670252	70
6	498	740.455541631567	71
6	504	756.704750284838	72
6	507	769.617793714709	73
6	520	798.258868241203	74
6	528	808.105203590177	75
6	539	816.68579361327	76
6	545	825.643646785444	77
6	555	840.43452810659	78
6	560	849.946324500672	79
6	566	862.717961191793	80
6	567	862.763133492397	81
6	573	864.704714776456	82
6	579	876.340996347673	83
6	591	896.968830393431	84
6	597	904.121177079086	85
6	600	910.569146099129	86
6	605	916.455927770166	87
6	614	943.604430896224	88
6	615	944.519332334134	89
6	618	953.15066406306	90
6	621	953.918526676255	91
6	627	969.051705755826	92
6	630	1027.621777046607	93
6	636	1035.546625995258	94
6	643	1039.81727881098	95
6	648	1041.832341909232	96
6	649	1042.43064356069	97
6	650	1042.87488437458	98
6	651	1046.428176594694	99
6	654	1048.043079096402	100
6	660	1051.900403881942	101
6	663	1058.110719216782	102
6	666	1075.869503295571	103
6	669	1077.129872583626	104
6	674	1082.060265632053	105
6	677	1083.666693751899	106
6	687	1109.897395331697	107
6	690	1112.727039628355	108
6	706	1159.093286891001	109
6	707	1159.253507203679	110
6	708	1160.37061153952	111
6	714	1172.454128512199	112
6	722	1189.182967812443	113
6	726	1190.567280349474	114
6	732	1202.725140422557	115
6	743	1219.061067254333	116
6	747	1224.56176902671	117
6	753	1230.840067663203	118
6	756	1233.685840572081	119
6	761	1238.62566123321	120
6	767	1250.548672805959	121
6	771	1260.06446332725	122
6	777	1273.649108365005	123
6	783	1279.054915939513	124
6	786	1286.785502075845	125
6	789	1288.556290410631	126
6	800	1335.847761942977	127
6	801	1336.543667873493	128
6	804	1343.025029442626	129
6	815	1355.635307780182	130
6	822	1367.990375742159	131
6	825	1391.691847994579	132
6	828	1397.678472468822	133
6	831	1400.697568107795	134
6	834	1402.439042167559	135
6	840	1413.889296266695	136
6	870	1442.81113237899	137
6	873	1450.287090789266	138
6	884	1461.507977571655	139
6	885	1461.901495087609	140
6	893	1473.288338520718	141
6	902	1479.409827869738	142
6	903	1479.993715051689	143
6	906	1485.612168104068	144
6	915	1509.415780917848	145
6	918	1511.857490729667	146
6	924	1517.365178675862	147
6	930	1532.520549608769	148
6	933	1540.47583039351	149
6	936	1544.346201840707	150
6	939	1545.240407098629	151
6	942	1552.370358000442	152
6	945	1558.496030171749	153
6	957	1573.990591971055	154
6	960	1577.790883257979	155
6	965	1582.054523884417	156
6	968	1585.039002122364	157
6	969	1586.399938903834	158
6	985	1600.765974308856	159
6	996	1636.630932580071	160
6	1001	1643.8278059724	161
6	1005	1653.903361293745	162
6	1014	1677.195043767721	163
6	1017	1688.814865386039	164
6	1031	1704.040437552883	165
6	1046	1751.159819320482	166
6	1053	1760.346960554306	167
6	1058	1772.770696140917	168
6	1059	1772.82612206761	169
6	1062	1781.054072153547	170
6	1068	1796.81837324712	171
6	1071	1803.944549216926	172
6	1074	1807.812264275438	173
6	1077	1811.165072927202	174
6	1083	1817.779060399268	175
6	1091	1824.4937150008	176
6	1095	1826.289212315753	177
6	1100	1835.215043007988	178
6	1103	1836.18543996801	179
6	1116	1860.519270380797	180
6	1119	1866.157061111059	181
6	1122	1868.408719561066	182
6	1125	1875.019291918873	183
6	1128	1877.051341290716	184
6	1131	1877.694433944595	185
6	1143	1904.288194695249	186
6	1149	1906.195745893607	187
6	1152	1909.991215908977	188
6	1155	1912.039779441093	189
6	1158	1920.174630405919	190
6	1161	1923.353512908683	191
6	1164	1931.578386380094	192
6	1173	1948.336990209679	193
6	1180	1965.544553227952	194
6	1193	1978.62927294556	195
6	1194	1979.038718635981	196
6	1197	1996.327876289125	197
7	2	2.526896176115	0
7	5	6.481887888712	0
7	14	13.887700817484	0
7	17	14.643972591904	0.183294864183
7	23	22.461354729739	0
7	29	26.151965030841	0
7	34	28.348973088178	1.730263543364
7	35	28.419288643925	0.301711199985
7	38	32.591843042649	0
7	41	44.781493950011	0
7	44	45.378336786781	0.283607677018
7	47	47.30568502324	0
7	52	49.155482010975	1.256352252958
7	53	49.893838042902	0.916913561871
7	56	50.054758887452	0.148652792857
7	59	60.647746900314	0
7	62	71.255792338237	0
7	65	73.043846883222	0
7	68	74.104893336838	0.29824117758
7	74	93.33048138998	0.200672235816
7	77	94.324078778285	0.465068926675
7	89	112.472476983236	0
7	98	140.776496146625	0
7	101	152.344896271323	0
7	104	160.638721479899	0
7	109	163.551642885856	1.037300407828
7	110	164.90863564646	1.582275723482
7	116	172.348487298775	0
7	125	185.320304464787	0.147408945327
7	128	193.472529009911	0
7	131	195.197653347537	0
7	140	208.17833297579	0
7	143	211.058905125493	0
7	146	215.398382841446	0
7	149	218.872523248225	0
7	152	231.285500895061	0
7	158	243.212886209381	0
7	161	247.699769433324	0
7	172	255.027624122595	1.0867152405
7	173	255.937717229908	1.067525505132
7	176	257.291699002263	0
7	179	260.975533197602	0
7	182	266.896364656888	0
7	188	279.174382928188	0
7	194	280.806291836809	0.34358441432
7	197	285.488559130623	0
7	215	310.460822372497	0
7	218	312.625175963613	0
7	227	321.486986966199	0.504414070879
7	233	324.193328841001	0
7	236	330.580284672149	0
7	239	332.134764400129	0.150402878056
7	245	335.761398380439	0
7	251	352.978059280825	0
7	254	353.496581284475	0.076748583919
7	257	354.029144478105	0
7	266	368.189256037509	0.198889913633
7	272	370.258872211099	0.043115539474
7	278	378.052364412856	0
7	284	392.371167949294	0
7	293	406.946512179946	0
7	296	428.383531803711	0
7	299	430.22851621601	1.028998032556
7	308	444.011401927085	0
7	311	450.98066652757	0
7	314	451.73028784658	0
7	320	458.011330816406	0.25366361916
7	323	468.537409541898	0
7	326	473.982018299906	0
7	331	475.560377447038	1.030635836136
7	332	476.399686584146	0.855505971663
7	338	487.096783251574	0
7	341	498.149657772508	0
7	347	504.007860976143	0
7	359	521.612487774395	0
7	362	527.923533215532	0
7	365	537.445084178704	0
7	368	548.264386181192	0
7	380	590.493629256602	0
7	386	602.20438266908	0
7	398	615.409528465206	0
7	401	618.465673972245	0
7	404	619.717847794858	0
7	409	621.263912119591	1.430611062745
7	410	623.453011678565	3.133535221704
7	413	626.65619684216	1.560911188537
7	419	639.848484542895	0
7	422	642.658770506067	0
7	431	659.594703833646	0
7	440	673.829436125857	0
7	443	675.333498500462	0
7	446	679.093469128317	1.291076504536
7	452	690.910142428003	0
7	455	699.537802025186	0
7	458	700.198795569659	0.086628692816
7	461	701.278112949638	0
7	464	705.443488769669	0
7	470	720.668128982073	0
7	473	723.310590708142	0
7	476	724.755192015371	0
7	482	727.854694115233	0.885005252355
7	485	730.360630098194	0
7	488	733.528179951936	0
7	491	734.081890987496	0.425456563195
7	500	747.957665793117	0
7	509	785.616464863021	0
7	512	794.197517599841	0
7	517	796.756723589772	0.133024187806
7	520	798.258868241203	1.531779170613
7	521	800.156927515365	2.317792927144
7	524	801.33332798553	0.199345087757
7	530	815.422787032409	0
7	533	815.685926934988	0.077426564394
7	536	815.934585411496	0
7	539	816.68579361327	0.406933480281
7	545	825.643646785444	0.117332975359
7	548	835.67500919863	0
7	551	838.293922995647	0
7	560	849.946324500672	0.658191622971
7	569	862.849732286948	0
7	575	867.819189508284	0
7	581	876.595906204156	0
7	584	884.676733301921	0
7	587	890.125790668226	0
7	593	899.84808513181	0
7	605	916.455927770166	4.25483033504
7	608	924.745328877657	0
7	623	960.517106469297	0
7	632	1033.384009707371	0
7	656	1049.993380740303	0
7	677	1083.666693751899	0.682054691284
7	680	1088.617329153541	0
7	683	1103.125587623014	0
7	692	1134.762032603282	0
7	695	1147.048587206214	0
7	698	1147.537948956536	0
7	710	1164.904607599407	0
7	716	1178.101504796177	0
7	719	1183.818427798031	0
7	722	1189.182967812443	2.796760686263
7	728	1195.078255801779	0
7	734	1207.401156566698	0
7	737	1214.887864769734	0
7	743	1219.061067254333	1.086318822209
7	749	1226.344634059431	0
7	758	1235.378878174354	0
7	761	1238.62566123321	0.966451372445
7	764	1248.214279567109	0
7	767	1250.548672805959	1.959736718239
7	773	1265.493396779247	0
7	779	1276.969427052902	0
7	791	1292.311340785742	0
7	794	1308.17405787577	0
7	806	1344.116104056895	0
7	809	1345.313465627111	0
7	812	1354.599587035081	0
7	815	1355.635307780182	0.575796784419
7	818	1356.820560843841	0
7	836	1405.804050851196	0
7	842	1418.580934377472	0
7	845	1419.365251027381	0
7	848	1424.371814798071	0
7	851	1426.080754246227	0
7	854	1430.223573916927	0
7	857	1432.174455560598	0
7	860	1433.840264766058	0
7	863	1438.239809209698	0
7	866	1439.363295197927	0.063500912625
7	875	1452.654154888627	0
7	878	1457.883931666083	0
7	887	1463.273812668466	0
7	893	1473.288338520718	1.269862290443
7	896	1474.9858238411	0
7	908	1488.484311171099	0
7	911	1493.700703597856	0
7	920	1514.130707624126	0
7	926	1526.978937178612	0
7	947	1560.94884828646	0
7	950	1564.5415027936	0
7	953	1570.621567227446	0
7	971	1589.074637641165	0
7	974	1594.189946417285	0
7	977	1596.105758401379	0
7	980	1600.050018073275	0.392646888149
7	985	1600.765974308856	0.511103996253
7	986	1601.301227668547	0.841863926679
7	989	1618.082927982142	0
7	992	1619.408985688684	0
7	1001	1643.8278059724	0.356996413434
7	1007	1654.772490570587	0
7	1010	1669.302674711366	0
7	1019	1691.348428581574	0
7	1022	1692.056031350476	0
7	1025	1693.557577111194	0
7	1028	1702.87229380948	0
7	1031	1704.040437552883	0.512405756105
7	1034	1712.519235799934	0
7	1037	1740.523544655067	0
7	1040	1745.556817795269	0
7	1043	1747.439611562945	0.805352950886
7	1046	1751.159819320482	3.166360871253
7	1049	1752.693400708012	0
7	1064	1790.6533783296	0
7	1079	1816.797479941983	0
7	1085	1821.20874573268	0
7	1088	1823.300686946975	0
7	1091	1824.4937150008	0.379036075949
7	1097	1833.919262889088	0
7	1100	1835.215043007988	1.143163466515
7	1103	1836.18543996801	0.448096571705
7	1106	1839.387629554969	0
7	1109	1840.697669255105	0
7	1112	1848.201262330267	0
7	1133	1880.733915395693	0
7	1136	1883.06317196079	0
7	1139	1893.595205370134	0
7	1145	1904.705244863345	0
7	1166	1932.300439084964	0
7	1169	1939.475494742049	0
7	1180	1965.544553227952	2.119059705023
7	1181	1967.279667658273	3.25355673515
7	1184	1969.771006203081	0
7	1187	1977.582003380281	0
8	3	2.875978594682	0.349082418567
8	6	6.682509195366	0.200621306654
8	17	14.643972591904	0.75627177442
8	18	16.503371976069	2.042694248348
8	24	22.673955038689	0.21260030895
8	34	28.348973088178	2.197008057337
8	35	28.419288643925	1.800579099111
8	36	30.063428395203	1.945850951263
8	39	34.138237905039	1.54639486239
8	45	45.720525679637	0.625796569874
8	53	49.893838042902	1.994708284885
8	57	50.162066767641	0.255960673046
8	60	61.662535359256	1.014788458942
8	63	71.50361415717	0.247821818933
8	69	74.283083198842	0.476431039584
8	77	94.324078778285	1.194269624121
8	78	94.363925116664	0.504915265054
8	90	114.438047714769	1.965570731533
8	99	141.219372831145	0.44287668452
8	102	152.387044732565	0.042148461242
8	109	163.551642885856	2.912921405957
8	110	164.90863564646	2.394293168432
8	111	164.97055857978	1.644198656802
8	117	173.19342844329	0.844941144515
8	126	187.315714499258	2.142818979798
8	129	193.507444723906	0.034915713995
8	132	197.295589064575	2.097935717038
8	141	208.421058535202	0.242725559412
8	144	211.111455698433	0.05255057294
8	147	216.066972086911	0.668589245465
8	150	219.929279703774	1.056756455549
8	153	231.60392517991	0.318424284849
8	159	244.01529343446	0.802407225079
8	162	247.826539089599	0.126769656275
8	173	255.937717229908	1.996808347813
8	174	256.293869568447	1.423677843671
8	177	257.952434408538	0.660735406275
8	180	261.45011378662	0.474580589018
8	183	267.229027584964	0.332662928076
8	189	279.175507459365	0.001124531177
8	195	281.159723070327	0.697015647838
8	198	286.137941721309	0.649382590686
8	216	311.285238145942	0.824415773445
8	219	313.368924675604	0.743748711991
8	228	321.991246595897	1.008673700577
8	234	324.24089981317	0.047570972169
8	239	332.134764400129	1.55447972798
8	240	332.527939620059	0.543578097986
8	246	336.303515834271	0.542117453832
8	254	353.496581284475	0.51852200365
8	255	353.651953953842	0.232121253286
8	258	354.381196577268	0.352052099163
8	267	368.352842237495	0.362476113619
8	273	371.352895736368	1.137139064743
8	279	378.109190191907	0.056825779051
8	285	393.100191432726	0.729023483432
8	294	408.21249229151	1.265980111564
8	300	431.180242594678	1.980724411224
8	309	444.357161460713	0.345759533628
8	312	451.174877742874	0.194211215304
8	315	451.951899915712	0.221612069132
8	321	458.729780242814	0.972113045568
8	324	470.317421815112	1.780012273214
8	331	475.560377447038	1.578359147132
8	332	476.399686584146	1.869944973244
8	333	477.350610100035	1.806429487552
8	339	487.182711308911	0.085928057337
8	342	498.215144977406	0.065487204898
8	348	504.795315701245	0.787454725102
8	360	522.052888048932	0.440400274537
8	363	528.096647780442	0.17311456491
8	366	538.224992711126	0.779908532422
8	369	549.393753753122	1.12936757193
8	381	592.127928846098	1.634299589496
8	387	602.330481481282	0.126098812202
8	399	615.661951303908	0.252422838702
8	402	619.054454044889	0.588780072644
8	410	623.453011678565	3.619710621719
8	413	626.65619684216	6.336720385299
8	414	628.351676709934	3.256391056311
8	420	641.444353572829	1.595869029934
8	423	643.055803247411	0.397032741344
8	432	659.66510347802	0.070399644374
8	441	674.445387709381	0.615951583524
8	447	680.450210436131	2.64781781235
8	453	692.350632331335	1.440489903332
8	459	700.968812414967	0.856645538124
8	462	701.329467466193	0.051354516555
8	465	706.712092823563	1.268604053894
8	471	722.446710908553	1.77858192648
8	474	724.671516665362	1.36092595722
8	477	724.765129282601	0.00993726723
8	483	730.041599309334	3.071910446456
8	486	730.6002825631	0.239652464906
8	492	734.111315197255	0.454880772954
8	501	748.153031500284	0.195365707167
8	510	787.116934384	1.500469520979
8	517	796.756723589772	2.559205989931
8	521	800.156927515365	3.429838444775
8	524	801.33332798553	3.494193397309
8	525	803.101203572634	1.967220674861
8	533	815.685926934988	0.263139902579
8	534	815.715517444267	0.107017073673
8	540	818.379884176903	2.101024043914
8	546	826.138557218116	0.612243408031
8	549	836.015106594469	0.340097395839
8	552	838.868846324782	0.574923329135
8	561	852.988483054154	3.700350176453
8	570	863.585025395788	0.73529310884
8	576	868.237172645628	0.417983137344
8	582	877.274899368131	0.678993163975
8	585	885.410290961772	0.733557659851
8	588	890.2655462802	0.139755611974
8	594	902.408297547438	2.560212415628
8	606	920.615357428452	8.414259993326
8	609	924.75608212669	0.010753249033
8	624	960.585066650692	0.067960181395
8	633	1033.849495584035	0.465485876664
8	657	1050.859178174046	0.865797433743
8	678	1085.18713428872	2.202495228105
8	681	1089.486676251054	0.869347097513
8	684	1103.824225933081	0.698638310067
8	693	1137.848518491205	3.086485887923
8	696	1147.10984560919	0.061258402976
8	699	1147.7579023217	0.219953365164
8	711	1165.160304020964	0.255696421557
8	717	1178.188507513597	0.08700271742
8	723	1190.245819568319	3.859612442139
8	729	1197.231251060935	2.152995259156
8	735	1207.581063943104	0.179907376406
8	738	1214.903685451985	0.015820682251
8	744	1219.50131837372	1.526569941596
8	750	1227.932284274794	1.587650215363
8	762	1241.004762812929	3.345552952164
8	768	1251.914490743028	3.325554655308
8	774	1266.093763678843	0.600366899596
8	780	1279.02549420907	2.056067156168
8	792	1293.411412735169	1.100071949427
8	795	1310.652307771634	2.478249895864
8	807	1344.615478556151	0.499374499256
8	810	1345.633413614402	0.319947987291
8	816	1356.483130231543	1.42361923578
8	819	1357.090247316416	0.269686472575
8	837	1407.095592878768	1.291542027572
8	843	1418.952751735946	0.371817358474
8	846	1421.807088691882	2.441837664501
8	849	1425.629340500969	1.257525702898
8	852	1426.396223259622	0.315469013395
8	855	1430.30993331561	0.086359398683
8	858	1432.6729577947	0.498502234102
8	861	1434.965692723343	1.125427957285
8	866	1439.363295197927	1.123485988229
8	867	1441.31892509752	2.019130812218
8	876	1453.324941949126	0.670787060499
8	879	1459.064503378507	1.180571712424
8	888	1464.016983913259	0.743171244793
8	894	1474.825845099729	2.807368869454
8	897	1475.388240719147	0.402416878047
8	909	1488.920154949044	0.435843777945
8	912	1496.894660212862	3.193956615006
8	921	1514.379415255698	0.248707631572
8	927	1527.241171900845	0.262234722233
8	948	1561.230379168922	0.281530882462
8	951	1565.974622666959	1.433119873359
8	954	1571.921362920505	1.299795693059
8	972	1589.247965244236	0.173327603071
8	975	1594.256222733548	0.066276316263
8	980	1600.050018073275	3.944259671896
8	986	1601.301227668547	1.046357355944
8	987	1601.589402495392	1.130038753524
8	990	1618.75172862231	0.668800640168
8	993	1619.581407626831	0.172421938147
8	1002	1644.851890265456	1.38108070649
8	1008	1655.54994936377	0.777458793183
8	1011	1669.414913109353	0.112238397987
8	1020	1691.509272171551	0.160843589977
8	1023	1692.908432059062	0.852400708586
8	1026	1694.498869227822	0.941292116628
8	1032	1707.134770605701	3.606738808923
8	1035	1713.359174977389	0.839939177455
8	1038	1741.248555285235	0.725010630168
8	1043	1747.439611562945	1.882793767676
8	1047	1751.639750876046	3.646292426817
8	1050	1752.711057754564	0.017657046552
8	1065	1795.076782424832	4.423404095232
8	1080	1817.251581493369	0.454101551386
8	1086	1822.997734656748	1.788988924068
8	1092	1824.786432349544	0.671753424693
8	1104	1836.425030556886	0.687687160581
8	1107	1839.648413501248	0.260783946279
8	1110	1840.781215378074	0.083546122969
8	1113	1848.825388196284	0.624125866017
8	1134	1882.782222612284	2.048307216591
8	1137	1883.80683115237	0.74365919158
8	1140	1894.843779545706	1.248574175572
8	1146	1905.850857217458	1.145612354113
8	1167	1933.617625564611	1.317186479647
8	1170	1939.608632696628	0.133137954579
8	1181	1967.279667658273	3.854174135344
8	1182	1967.779249979965	3.753139056842
8	1185	1971.137416425287	1.366410222206
8	1188	1977.72905648213	0.147053101849
9	8	10.5089196372	0
9	11	11.299468248826	0
9	20	18.340606723112	0
9	26	24.007963516952	0
9	43	45.094729109763	0
9	49	47.899129758017	0
9	55	49.906106094595	0
9	67	73.806652159258	0
9	71	92.92784243635	0
9	80	95.209056653856	0
9	83	109.077453415956	0
9	86	109.19318785571	0
9	92	120.162375139109	0
9	95	125.729176998355	0
9	113	169.87091475028	0
9	119	178.290662706148	0
9	122	181.260830068031	0
9	134	200.207389198768	0
9	137	204.144451612615	3.649919844985
9	155	239.132807912871	0
9	164	249.231108461971	0
9	167	253.137050577287	0
9	185	271.930662710101	0
9	191	280.020971636963	0
9	200	293.345650039113	0
9	203	302.367622601654	0
9	206	302.577888908291	0
9	209	305.983270072104	0
9	212	307.245410166235	0.078773030525
9	221	317.260236808546	0
9	224	320.794521026019	0
9	230	323.070455537192	0
9	242	334.685024090306	0
9	248	338.04477515397	0
9	260	357.822730484425	0
9	263	367.555091277454	0
9	269	369.769470820711	0
9	275	374.751576338203	0
9	281	385.457337151412	0
9	287	393.555346628877	0
9	290	405.583602066999	0
9	298	429.199518183454	0
9	302	433.544222437271	0
9	305	440.904542086661	0
9	317	456.509141025988	0
9	335	484.436727192731	0
9	344	501.259390788184	0
9	350	514.621293019252	0
9	353	516.820546412785	0
9	356	519.895557101233	0
9	371	549.744528473908	0
9	374	555.270668099478	0
9	377	561.744768362616	0
9	383	597.110967941681	0
9	389	608.095101500038	0
9	392	610.20348364593	0
9	395	612.619858517311	0.042529646028
9	408	620.319476456861	0
9	416	636.797435389411	0
9	425	643.477479243331	0
9	428	647.329489232771	0
9	434	662.217309991143	0
9	437	665.69780350906	0
9	445	677.802392623781	0
9	449	681.396582134413	0
9	457	700.112166876843	0
9	467	717.708346885278	0
9	479	725.614894084633	0
9	490	733.656434424301	0
9	494	738.138118507774	0
9	497	740.266058939607	0
9	503	756.310439185602	0
9	506	768.837054689583	0
9	519	797.839134588221	0
9	527	808.052046407496	0
9	538	816.278860132989	0
9	542	823.897486002164	0
9	554	840.206101318034	0
9	557	848.704764157209	0
9	563	862.494438256029	0
9	566	862.717961191793	0.099430776768
9	572	864.37913183812	0
9	578	876.261372278053	0
9	590	896.460926709993	0
9	596	904.110779308726	0
9	599	910.463377176344	0
9	602	911.287792414425	0
9	611	943.402431156599	0
9	614	943.604430896224	0.064686265975
9	617	950.465128124486	0
9	620	953.720394224196	0
9	626	967.702635537441	0
9	629	1027.168625179255	0
9	635	1035.266702526067	0
9	638	1037.823378269568	0
9	643	1039.81727881098	1.359887718021
9	648	1041.832341909232	2.265463636466
9	649	1042.43064356069	1.655951590159
9	650	1042.87488437458	1.935841414897
9	653	1047.574771802914	0
9	659	1051.754615065918	0
9	662	1058.098947761014	0
9	665	1074.611867762944	0
9	668	1077.072304367609	0
9	671	1079.522613116392	0
9	674	1082.060265632053	2.174950626908
9	686	1107.158405041721	0
9	689	1111.687434111316	0
9	701	1156.339670452649	0
9	706	1159.093286891001	2.18324275402
9	707	1159.253507203679	2.23268482891
9	713	1171.019556632009	0
9	721	1186.38620712618	0
9	725	1190.418948067481	0
9	731	1201.982324467767	0
9	740	1216.716539773377	0
9	746	1223.965890547253	0
9	752	1230.519096898306	0
9	755	1233.654063395319	0
9	760	1237.659209860765	0
9	766	1248.58893608772	0
9	770	1258.436151260216	0
9	776	1273.447568760405	0
9	782	1279.026152222142	0
9	785	1285.48241053264	0
9	788	1288.373369043437	0
9	797	1332.425291462519	0
9	800	1335.847761942977	1.965275346601
9	803	1340.739146648657	0
9	814	1355.059510995763	0
9	821	1366.192367758333	0
9	824	1391.15989602435	0
9	827	1396.785635039665	0
9	830	1398.966200033083	0
9	833	1401.9904723866	0
9	839	1413.771848867949	0
9	869	1442.631011564897	0
9	872	1449.308064101655	0
9	881	1460.927780861829	0
9	884	1461.507977571655	0.425499243115
9	890	1471.860444708164	0
9	899	1478.059289493321	0
9	902	1479.409827869738	0.99044324206
9	905	1485.610144631893	0
9	914	1509.275917066536	0
9	917	1511.738571252546	0
9	923	1517.164233970553	0
9	929	1528.047566792139	0
9	932	1534.509124449333	0
9	935	1543.469681274384	0
9	938	1544.927267859	0
9	941	1551.900323378163	0
9	944	1556.398300646277	0
9	956	1573.664123264669	0
9	959	1577.611803772746	0
9	962	1579.978194443654	0
9	965	1582.054523884417	0.47443251924
9	968	1585.039002122364	0.674883245062
9	982	1600.254870312603	0
9	995	1635.362834056562	0
9	998	1642.770299022951	0
9	1004	1653.495019676678	0
9	1013	1675.954639766466	0
9	1016	1687.70903967485	0
9	1030	1703.528031796778	0
9	1045	1747.993458449229	0
9	1052	1757.918513575223	0
9	1055	1771.559189473317	0
9	1058	1772.770696140917	0.516644714666
9	1061	1780.657456020401	0
9	1067	1796.13477203708	0
9	1070	1802.762013082536	0
9	1073	1807.525063892719	0
9	1076	1810.990094542191	0
9	1082	1817.350627243513	0
9	1090	1824.114678924851	0
9	1094	1824.938724493886	0
9	1099	1834.071879541473	0
9	1102	1835.737343396305	0
9	1115	1860.425756514966	0
9	1118	1865.160801153471	0
9	1121	1867.033583306305	0
9	1124	1871.360714548949	0
9	1127	1876.659255825185	0
9	1130	1877.145961034932	0
9	1142	1903.421150625668	0
9	1148	1906.130385961851	0
9	1151	1909.770836731345	0
9	1154	1911.957932511068	0
9	1157	1918.238063923716	0
9	1160	1923.123009561976	0
9	1163	1930.052904660318	0
9	1172	1947.99798475923	0
9	1175	1963.234702189977	0
9	1190	1978.148863989711	0
9	1193	1978.62927294556	0.377013300102
9	1196	1994.524930435638	0
10	9	10.611543462452	0.102623825252
10	12	11.862408955869	0.562940707043
10	21	19.772943843631	1.432337120519
10	27	24.540256142815	0.532292625863
10	44	45.378336786781	0.283607677018
10	52	49.155482010975	1.256352252958
10	56	50.054758887452	0.148652792857
10	68	74.104893336838	0.29824117758
10	74	93.33048138998	0.40263895363
10	81	96.334935327714	1.125878673858
10	84	109.164100754083	0.086647338127
10	87	109.234232240387	0.041044384677
10	93	121.277046936753	1.114671797644
10	96	125.854213786778	0.125036788423
10	114	171.513877380231	1.642962629951
10	120	178.298844339914	0.008181633766
10	125	185.320304464787	4.059474396756
10	137	204.144451612615	3.937062413847
10	138	205.154121406118	4.659589638488
10	156	240.057241974639	0.924434061768
10	165	249.474356834085	0.243248372114
10	172	255.027624122595	1.890573545308
10	186	272.727011475724	0.796348765623
10	194	280.806291836809	0.785320199846
10	201	294.13433933673	0.788689297617
10	204	302.420784724409	0.053162122755
10	207	302.844561331036	0.266672422745
10	212	307.245410166235	1.262140094131
10	213	307.366139109042	0.199501973332
10	222	317.565804404872	0.305567596326
10	227	321.486986966199	0.69246594018
10	231	323.980406340385	0.909950803193
10	243	334.850026598369	0.165002508063
10	249	340.063058749246	2.018283595276
10	261	358.583484528175	0.76075404375
10	266	368.189256037509	0.634164760055
10	272	370.258872211099	0.489401390388
10	276	374.951880098665	0.200303760462
10	282	386.623139105503	1.165801954091
10	288	394.295811396194	0.740464767317
10	291	406.050294629454	0.466692562455
10	299	430.22851621601	1.028998032556
10	303	436.465961810262	2.921739372991
10	306	441.724079123186	0.819537036525
10	320	458.011330816406	1.502189790418
10	336	485.38114038202	0.944413189289
10	345	502.195971728028	0.936580939844
10	351	515.837936346005	1.216643326753
10	354	517.775661245769	0.955114832984
10	357	520.050335554831	0.154778453598
10	372	550.774513232124	1.029984758216
10	375	558.941256180266	3.670588080788
10	378	562.05740387741	0.312635514794
10	384	597.515191810871	0.40422386919
10	390	609.482020635666	1.386919135628
10	395	612.619858517311	2.416374871381
10	396	612.957894660552	0.380565789269
10	409	621.263912119591	0.94443566273
10	417	638.033160515924	1.235725126513
10	426	644.98722457507	1.509745331739
10	429	647.396469959131	0.06698072636
10	435	663.868958945113	1.65164895397
10	438	666.868530076002	1.170726566942
10	446	679.093469128317	1.291076504536
10	450	682.19991888379	0.803336749377
10	458	700.198795569659	0.086628692816
10	468	718.51539421747	0.807047332192
10	482	727.854694115233	2.2398000306
10	491	734.081890987496	0.425456563195
10	495	738.612043670252	0.473925162478
10	498	740.455541631567	0.18948269196
10	504	756.704750284838	0.394311099236
10	507	769.617793714709	0.780739025126
10	520	798.258868241203	0.419733652982
10	528	808.105203590177	0.053157182681
10	539	816.68579361327	0.406933480281
10	545	825.643646785444	1.74616078328
10	555	840.43452810659	0.228426788556
10	560	849.946324500672	1.241560343463
10	566	862.717961191793	0.223522935764
10	567	862.763133492397	0.144603077372
10	573	864.704714776456	0.325582938336
10	579	876.340996347673	0.07962406962
10	591	896.968830393431	0.507903683438
10	597	904.121177079086	0.01039777036
10	600	910.569146099129	0.105768922785
10	605	916.455927770166	5.168135355741
10	614	943.604430896224	0.201999739625
10	615	944.519332334134	0.979587703885
10	618	953.15066406306	2.685535938574
10	621	953.918526676255	0.198132452059
10	627	969.051705755826	1.349070218385
10	630	1027.621777046607	0.453151867352
10	636	1035.546625995258	0.279923469191
10	643	1039.81727881098	1.993900541412
10	648	1041.832341909232	3.374950816273
10	649	1042.43064356069	2.863765287924
10	650	1042.87488437458	2.100192404049
10	651	1046.428176594694	5.489133635011
10	654	1048.043079096402	0.468307293488
10	660	1051.900403881942	0.145788816024
10	663	1058.110719216782	0.011771455768
10	666	1075.869503295571	1.257635532627
10	669	1077.129872583626	0.057568216017
10	674	1082.060265632053	2.537652515661
10	677	1083.666693751899	3.781378746754
10	687	1109.897395331697	2.738990289976
10	690	1112.727039628355	1.039605517039
10	706	1159.093286891001	2.753616438352
10	707	1159.253507203679	2.343463066698
10	708	1160.37061153952	3.349789164751
10	714	1172.454128512199	1.43457188019
10	722	1189.182967812443	2.796760686263
10	726	1190.567280349474	0.148332281993
10	732	1202.725140422557	0.74281595479
10	743	1219.061067254333	2.344527480956
10	747	1224.56176902671	0.595878479457
10	753	1230.840067663203	0.320970764897
10	756	1233.685840572081	0.031777176762
10	761	1238.62566123321	0.966451372445
10	767	1250.548672805959	1.959736718239
10	771	1260.06446332725	1.628312067034
10	777	1273.649108365005	0.2015396046
10	783	1279.054915939513	0.028763717371
10	786	1286.785502075845	1.303091543205
10	789	1288.556290410631	0.182921367194
10	800	1335.847761942977	3.422470480458
10	801	1336.543667873493	2.661181277117
10	804	1343.025029442626	2.285882793969
10	815	1355.635307780182	0.575796784419
10	822	1367.990375742159	1.798007983826
10	825	1391.691847994579	0.531951970229
10	828	1397.678472468822	0.892837429157
10	831	1400.697568107795	1.731368074712
10	834	1402.439042167559	0.448569780959
10	840	1413.889296266695	0.117447398746
10	870	1442.81113237899	0.180120814093
10	873	1450.287090789266	0.979026687611
10	884	1461.507977571655	0.580196709826
10	885	1461.901495087609	0.819016759069
10	893	1473.288338520718	1.427893812554
10	902	1479.409827869738	1.350538376417
10	903	1479.993715051689	1.574330424011
10	906	1485.612168104068	0.002023472175
10	915	1509.415780917848	0.139863851312
10	918	1511.857490729667	0.118919477121
10	924	1517.365178675862	0.200944705309
10	930	1532.520549608769	4.47298281663
10	933	1540.47583039351	5.966705944177
10	936	1544.346201840707	0.876520566323
10	939	1545.240407098629	0.313139239629
10	942	1552.370358000442	0.470034622279
10	945	1558.496030171749	2.097729525472
10	957	1573.990591971055	0.326468706386
10	960	1577.790883257979	0.179079485233
10	965	1582.054523884417	2.076329440763
10	968	1585.039002122364	3.458910757187
10	969	1586.399938903834	2.035820026532
10	985	1600.765974308856	0.511103996253
10	996	1636.630932580071	1.268098523509
10	1001	1643.8278059724	1.057506949449
10	1005	1653.903361293745	0.408341617067
10	1014	1677.195043767721	1.240404001255
10	1017	1688.814865386039	1.105825711189
10	1031	1704.040437552883	0.512405756105
10	1046	1751.159819320482	3.166360871253
10	1053	1760.346960554306	2.428446979083
10	1058	1772.770696140917	1.2115066676
10	1059	1772.82612206761	0.572070641359
10	1062	1781.054072153547	0.396616133146
10	1068	1796.81837324712	0.68360121004
10	1071	1803.944549216926	1.18253613439
10	1074	1807.812264275438	0.287200382719
10	1077	1811.165072927202	0.174978385011
10	1083	1817.779060399268	0.428433155755
10	1091	1824.4937150008	0.379036075949
10	1095	1826.289212315753	1.350487821867
10	1100	1835.215043007988	1.143163466515
10	1103	1836.18543996801	0.448096571705
10	1116	1860.519270380797	0.093513865831
10	1119	1866.157061111059	0.996259957588
10	1122	1868.408719561066	1.375136254761
10	1125	1875.019291918873	3.658577369924
10	1128	1877.051341290716	0.392085465531
10	1131	1877.694433944595	0.548472909663
10	1143	1904.288194695249	0.867044069581
10	1149	1906.195745893607	0.065359931756
10	1152	1909.991215908977	0.220379177632
10	1155	1912.039779441093	0.081846930025
10	1158	1920.174630405919	1.936566482203
10	1161	1923.353512908683	0.230503346707
10	1164	1931.578386380094	1.525481719776
10	1173	1948.336990209679	0.339005450449
10	1180	1965.544553227952	2.309851037975
10	1193	1978.62927294556	0.480408955849
10	1194	1979.038718635981	0.786458990523
10	1197	1996.327876289125	1.802945853487
11	1198	2000	0.101
12	1198	2000	0.0985

