version 2
run Consistency_test_bosses_waiting_time-20-20221215-11:43:55-6258
attr configname Consistency_test_bosses_waiting_time
attr datetime 20221215-11:43:55
attr experiment Consistency_test_bosses_waiting_time
attr inifile omnetpp.ini
attr iterationvars $0=15
attr iterationvarsf 15-
attr measurement $0=15
attr network Network
attr processid 6258
attr repetition 0
attr replication #0
attr resultdir results
attr runnumber 20
attr seedset 0
param *.boss.arrival_mean 10
param *.boss.service_mean 15
param **.minion.arrival_distribution 0
param **.minion.service_distribution 0
param *.minion.arrival_mean 10
param *.minion.service_mean 1
param **.boss.arrival_distribution 0
param **.boss.service_distribution 0

vector 0 Network.player minion_jobs_number_stat:vector ETV
attr source signal_minion_jobs_number
vector 1 Network.player minion_jobs_queue_number_stat:vector ETV
attr source signal_minion_jobs_queue_number
vector 2 Network.player minion_recovered_stat:vector ETV
attr source signal_minion_recovered
vector 3 Network.player minion_defeated_stat:vector ETV
attr source signal_minion_defeated
vector 4 Network.player boss_jobs_number_stat:vector ETV
attr source signal_boss_jobs_number
vector 5 Network.player boss_jobs_queue_number_stat:vector ETV
attr source signal_boss_jobs_queue_number
vector 6 Network.player boss_defeated_stat:vector ETV
attr source signal_boss_defeated
vector 7 Network.player boss_waiting_time_stat:vector ETV
attr source signal_boss_waiting_time
vector 8 Network.player boss_response_time_stat:vector ETV
attr source signal_boss_response_time
vector 9 Network.player minion_waiting_time_stat:vector ETV
attr source signal_minion_waiting_time
vector 10 Network.player minion_response_time_stat:vector ETV
attr source signal_minion_response_time
vector 11 Network.player minion_throughput:vector ETV
attr source signal_minion_throughput
vector 12 Network.player boss_throughput:vector ETV
attr source signal_boss_throughput
0	0	0	0
0	6	7.958745045658	1
0	10	16.944348930497	2
0	14	29.503656510971	3
0	21	48.099698631718	4
0	23	57.331929946426	5
0	32	76.847383305271	4
0	38	84.71939470509	5
0	52	103.509035247117	6
0	54	109.01952011382	7
0	58	118.789584377754	8
0	66	129.171177384393	9
0	68	134.022459021609	10
0	75	139.777650990439	11
0	77	143.309242381814	12
0	84	165.544486602177	13
0	86	166.128333293108	14
0	105	199.277456092391	15
0	109	202.461017500809	16
0	111	207.297038550293	17
0	115	213.791502032802	18
0	125	229.480463209032	19
0	130	246.202575212282	20
0	136	253.72931634541	21
0	140	260.268142017621	22
0	143	268.662470546623	23
0	148	273.651190636782	24
0	158	299.633731495272	25
0	167	317.717424138021	26
0	169	318.454277692672	27
0	171	322.570057655098	28
0	173	323.481667916341	29
0	175	333.927792999422	30
0	177	334.132048883413	31
0	179	338.724530255965	32
0	187	356.599406890352	33
0	209	388.101106177111	34
0	219	403.158948763485	35
0	223	404.671257300135	36
0	229	425.074399879554	37
0	241	445.483322038671	38
0	260	483.935540730089	39
0	262	490.35263245687	40
0	269	506.405028027485	41
0	278	522.545048776411	42
0	281	528.734343372678	43
0	286	536.083987584576	44
0	291	551.249347324478	45
0	293	562.60873674158	46
0	295	563.867480835961	47
0	298	576.619757858197	48
0	300	586.834076601689	49
0	305	595.55728855211	50
0	307	597.10458535711	51
0	315	604.812931941783	52
0	325	633.757136721654	53
0	329	647.970783522591	54
0	331	655.34905644015	55
0	333	656.468518046476	56
0	335	661.824175248755	57
0	338	668.241122269066	58
0	343	671.313925790591	59
0	345	673.375958610896	60
0	353	688.258506868413	61
0	356	701.611408714652	62
0	358	707.702232946483	63
0	362	710.142717853848	64
0	364	718.54606490997	65
0	366	719.998845182892	66
0	368	720.188530874903	67
0	370	724.10623898167	68
0	374	733.720048372328	69
0	376	735.341413266788	70
0	378	744.811380038538	71
0	380	747.325799359286	72
0	382	756.921279132968	73
0	386	761.806849626048	74
0	400	790.585999838825	75
0	410	813.875133580967	76
0	412	825.326523127968	77
0	416	831.303983896152	78
0	420	835.759168846664	79
0	426	845.254114681631	80
0	429	850.999438749043	81
0	434	874.262949365986	82
0	436	886.224027360557	83
0	438	887.269639618309	84
0	440	887.890792522973	85
0	454	922.892929367519	86
0	458	933.882054043028	87
0	460	944.470395357904	88
0	467	955.576369814776	89
0	469	957.450630474955	90
0	471	959.812697535782	91
0	473	964.246737821988	92
0	475	965.627024706273	93
0	480	979.517451604183	94
0	483	983.30707124701	95
0	487	992.667686844724	96
0	491	997.18870744697	97
0	497	1001.119833020011	98
0	504	1009.564110955288	99
0	506	1009.955942519419	100
0	511	1015.729185627484	101
0	520	1025.78789567915	102
0	528	1070.332864140911	103
0	536	1102.262330561447	104
0	538	1103.338681643008	105
0	541	1113.91694577653	106
0	543	1116.259960964286	107
0	548	1126.340153418487	108
0	550	1128.099288872743	109
0	559	1181.700292375175	110
0	563	1192.287719526116	111
0	567	1201.006878062373	112
0	569	1203.927683395045	113
0	573	1209.278330165878	114
0	576	1215.55774597579	115
0	581	1221.995555991815	116
0	583	1224.798326076605	117
0	587	1234.566966817312	118
0	589	1236.298241378774	119
0	595	1240.423253677999	120
0	598	1241.592807775924	121
0	601	1252.824490791257	122
0	606	1263.505212762752	123
0	609	1267.320771196494	124
0	611	1268.807893889015	125
0	619	1283.87424722174	126
0	621	1286.063053186813	127
0	637	1315.934952105333	128
0	639	1320.535091682736	129
0	642	1331.397785491519	130
0	647	1348.601102068685	131
0	649	1348.737747852994	132
0	651	1349.759196668243	133
0	654	1359.510216009806	134
0	659	1377.70840520265	135
0	664	1388.906548860189	136
0	666	1389.916896613279	137
0	678	1425.652780336723	138
0	695	1463.143094932568	139
0	700	1484.19630794049	140
0	704	1490.519673904448	141
0	706	1497.64550983778	142
0	719	1535.26478268282	143
0	721	1535.838051947058	144
0	728	1545.122836916072	145
0	732	1551.122305782482	146
0	737	1564.564758504005	147
0	739	1564.766659785467	148
0	741	1565.16642277605	149
0	748	1570.99520666472	150
0	752	1574.319309074357	151
0	765	1613.23501030281	152
0	767	1614.515577955922	153
0	771	1618.96977257512	154
0	773	1622.481533468933	155
0	778	1629.037996312569	156
0	782	1630.301882676822	157
0	785	1641.970617942308	158
0	790	1645.797627430926	159
0	799	1667.039999400943	160
0	801	1672.388843158512	161
0	808	1697.427960989364	162
0	810	1698.090935004186	163
0	814	1700.534889485004	164
0	820	1712.326784755656	165
0	824	1720.655219916318	166
0	828	1729.016195236021	167
0	832	1749.048600461093	168
0	835	1752.132748862071	169
0	838	1759.245228234243	170
0	842	1766.652817738713	171
0	854	1791.508641308481	172
0	856	1792.495144392664	173
0	865	1817.898189472251	174
0	870	1826.477145882993	175
0	872	1827.344850706389	176
0	877	1853.837409993153	177
0	879	1857.090814148443	178
0	881	1860.926416289429	179
0	883	1861.02042379607	180
0	887	1872.028882896978	181
0	894	1890.502159406996	182
0	897	1891.915466542604	183
0	905	1902.333273084399	184
0	909	1914.932611185489	185
0	915	1933.34543590036	186
0	920	1936.761977570621	187
0	923	1939.837154808245	188
0	925	1941.860659193917	189
0	931	1946.932660426483	190
0	935	1955.763950846076	191
0	937	1963.81192484409	192
0	939	1964.015049432046	193
0	941	1965.817571951894	194
0	949	1983.474982676025	195
0	951	1988.09229163647	196
0	953	1988.139357041393	197
0	955	1989.722772103698	198
1	0	0	0
1	6	7.958745045658	0
1	10	16.944348930497	1
1	14	29.503656510971	2
1	21	48.099698631718	3
1	23	57.331929946426	4
1	26	70.484062391481	4
1	30	75.556775838366	3
1	32	76.847383305271	3
1	38	84.71939470509	4
1	52	103.509035247117	5
1	54	109.01952011382	6
1	58	118.789584377754	7
1	66	129.171177384393	8
1	68	134.022459021609	9
1	75	139.777650990439	10
1	77	143.309242381814	11
1	84	165.544486602177	12
1	86	166.128333293108	13
1	105	199.277456092391	14
1	109	202.461017500809	15
1	111	207.297038550293	16
1	115	213.791502032802	17
1	125	229.480463209032	18
1	130	246.202575212282	19
1	136	253.72931634541	20
1	140	260.268142017621	21
1	143	268.662470546623	22
1	148	273.651190636782	23
1	158	299.633731495272	24
1	167	317.717424138021	25
1	169	318.454277692672	26
1	171	322.570057655098	27
1	173	323.481667916341	28
1	175	333.927792999422	29
1	177	334.132048883413	30
1	179	338.724530255965	31
1	187	356.599406890352	32
1	209	388.101106177111	33
1	219	403.158948763485	34
1	223	404.671257300135	35
1	229	425.074399879554	36
1	241	445.483322038671	37
1	260	483.935540730089	38
1	262	490.35263245687	39
1	269	506.405028027485	40
1	278	522.545048776411	41
1	281	528.734343372678	42
1	286	536.083987584576	43
1	291	551.249347324478	44
1	293	562.60873674158	45
1	295	563.867480835961	46
1	298	576.619757858197	47
1	300	586.834076601689	48
1	305	595.55728855211	49
1	307	597.10458535711	50
1	315	604.812931941783	51
1	325	633.757136721654	52
1	329	647.970783522591	53
1	331	655.34905644015	54
1	333	656.468518046476	55
1	335	661.824175248755	56
1	338	668.241122269066	57
1	343	671.313925790591	58
1	345	673.375958610896	59
1	353	688.258506868413	60
1	356	701.611408714652	61
1	358	707.702232946483	62
1	362	710.142717853848	63
1	364	718.54606490997	64
1	366	719.998845182892	65
1	368	720.188530874903	66
1	370	724.10623898167	67
1	374	733.720048372328	68
1	376	735.341413266788	69
1	378	744.811380038538	70
1	380	747.325799359286	71
1	382	756.921279132968	72
1	386	761.806849626048	73
1	400	790.585999838825	74
1	410	813.875133580967	75
1	412	825.326523127968	76
1	416	831.303983896152	77
1	420	835.759168846664	78
1	426	845.254114681631	79
1	429	850.999438749043	80
1	434	874.262949365986	81
1	436	886.224027360557	82
1	438	887.269639618309	83
1	440	887.890792522973	84
1	454	922.892929367519	85
1	458	933.882054043028	86
1	460	944.470395357904	87
1	467	955.576369814776	88
1	469	957.450630474955	89
1	471	959.812697535782	90
1	473	964.246737821988	91
1	475	965.627024706273	92
1	480	979.517451604183	93
1	483	983.30707124701	94
1	487	992.667686844724	95
1	491	997.18870744697	96
1	497	1001.119833020011	97
1	504	1009.564110955288	98
1	506	1009.955942519419	99
1	511	1015.729185627484	100
1	520	1025.78789567915	101
1	528	1070.332864140911	102
1	536	1102.262330561447	103
1	538	1103.338681643008	104
1	541	1113.91694577653	105
1	543	1116.259960964286	106
1	548	1126.340153418487	107
1	550	1128.099288872743	108
1	559	1181.700292375175	109
1	563	1192.287719526116	110
1	567	1201.006878062373	111
1	569	1203.927683395045	112
1	573	1209.278330165878	113
1	576	1215.55774597579	114
1	581	1221.995555991815	115
1	583	1224.798326076605	116
1	587	1234.566966817312	117
1	589	1236.298241378774	118
1	595	1240.423253677999	119
1	598	1241.592807775924	120
1	601	1252.824490791257	121
1	606	1263.505212762752	122
1	609	1267.320771196494	123
1	611	1268.807893889015	124
1	619	1283.87424722174	125
1	621	1286.063053186813	126
1	637	1315.934952105333	127
1	639	1320.535091682736	128
1	642	1331.397785491519	129
1	647	1348.601102068685	130
1	649	1348.737747852994	131
1	651	1349.759196668243	132
1	654	1359.510216009806	133
1	659	1377.70840520265	134
1	664	1388.906548860189	135
1	666	1389.916896613279	136
1	678	1425.652780336723	137
1	695	1463.143094932568	138
1	700	1484.19630794049	139
1	704	1490.519673904448	140
1	706	1497.64550983778	141
1	719	1535.26478268282	142
1	721	1535.838051947058	143
1	728	1545.122836916072	144
1	732	1551.122305782482	145
1	737	1564.564758504005	146
1	739	1564.766659785467	147
1	741	1565.16642277605	148
1	748	1570.99520666472	149
1	752	1574.319309074357	150
1	765	1613.23501030281	151
1	767	1614.515577955922	152
1	771	1618.96977257512	153
1	773	1622.481533468933	154
1	778	1629.037996312569	155
1	782	1630.301882676822	156
1	785	1641.970617942308	157
1	790	1645.797627430926	158
1	799	1667.039999400943	159
1	801	1672.388843158512	160
1	808	1697.427960989364	161
1	810	1698.090935004186	162
1	814	1700.534889485004	163
1	820	1712.326784755656	164
1	824	1720.655219916318	165
1	828	1729.016195236021	166
1	832	1749.048600461093	167
1	835	1752.132748862071	168
1	838	1759.245228234243	169
1	842	1766.652817738713	170
1	854	1791.508641308481	171
1	856	1792.495144392664	172
1	865	1817.898189472251	173
1	870	1826.477145882993	174
1	872	1827.344850706389	175
1	877	1853.837409993153	176
1	879	1857.090814148443	177
1	881	1860.926416289429	178
1	883	1861.02042379607	179
1	887	1872.028882896978	180
1	894	1890.502159406996	181
1	897	1891.915466542604	182
1	905	1902.333273084399	183
1	909	1914.932611185489	184
1	915	1933.34543590036	185
1	920	1936.761977570621	186
1	923	1939.837154808245	187
1	925	1941.860659193917	188
1	931	1946.932660426483	189
1	935	1955.763950846076	190
1	937	1963.81192484409	191
1	939	1964.015049432046	192
1	941	1965.817571951894	193
1	949	1983.474982676025	194
1	951	1988.09229163647	195
1	953	1988.139357041393	196
1	955	1989.722772103698	197
2	0	0	0
2	28	72.342486677844	1
2	34	78.057489859078	2
3	0	0	0
3	26	70.484062391481	1
3	30	75.556775838366	2
4	0	0	0
4	2	5.726919896272	1
4	4	7.773598739036	2
4	8	8.036281107502	3
4	16	34.851463712067	2
4	19	42.82904295107	2
4	28	72.342486677844	1
4	34	78.057489859078	1
4	36	84.68850291046	2
4	41	90.142118082639	2
4	43	94.006634772857	3
4	45	98.016409006097	4
4	47	99.693812917996	5
4	50	101.983525865318	5
4	56	113.985415231046	6
4	60	123.642088882469	7
4	62	124.919860611726	8
4	64	128.481678085776	9
4	71	135.120978274419	9
4	73	138.224717930629	10
4	80	148.241508487805	10
4	82	157.947231069218	11
4	88	174.997182010426	12
4	94	182.529171095525	9
4	100	194.018526212898	6
4	102	195.463928954085	7
4	107	202.366665437672	7
4	113	209.573455050852	8
4	119	218.411617355084	7
4	122	220.450418524696	7
4	127	233.171301665966	7
4	132	248.558074593608	7
4	134	251.548849894072	8
4	146	270.788644205775	5
4	150	278.689792499808	6
4	152	285.506660332849	7
4	155	290.737461585122	7
4	161	309.482015452319	6
4	163	311.429819405681	7
4	165	312.259782660741	8
4	183	347.203575464	7
4	185	354.240523356049	8
4	189	357.764768395909	9
4	191	358.439920572452	10
4	193	361.834852000695	11
4	195	367.423153762008	12
4	198	368.658323072961	12
4	200	369.67345700987	13
4	202	371.679050037973	14
4	204	373.039079874238	15
4	206	379.856994250432	16
4	211	388.938863516827	16
4	213	397.280560685999	17
4	215	399.842549820485	18
4	217	402.35071891873	19
4	221	403.481797683628	20
4	225	418.070068724639	21
4	227	420.558608809694	22
4	231	429.169725444641	23
4	233	433.47488243005	24
4	236	435.311987412524	24
4	239	441.619111465673	24
4	243	446.199409395428	25
4	246	448.452659021105	25
4	248	454.776446263453	26
4	251	465.004263081158	26
4	255	475.625124205418	25
4	258	482.223599051989	25
4	265	497.978300260093	25
4	267	505.015058728469	26
4	272	515.893616077965	26
4	275	520.785768446561	26
4	283	530.279841615083	25
4	289	546.061048799718	24
4	303	593.003245474391	23
4	309	601.678350744244	24
4	311	602.950831618096	25
4	313	604.7217673223	26
4	317	606.33008591941	27
4	320	618.394923578166	27
4	327	637.519360402144	25
4	341	670.915985983231	24
4	347	678.039813616732	25
4	349	684.971452703235	26
4	351	687.421126379221	27
4	360	709.45033942804	27
4	384	759.456632516112	26
4	388	763.636266232068	27
4	390	767.423974372871	28
4	392	775.797479017886	29
4	394	778.791425272269	30
4	396	784.369653609072	31
4	402	800.93365355957	30
4	405	806.673921950161	30
4	407	811.038455784235	31
4	414	826.024543018273	31
4	418	832.332700668221	32
4	422	840.002880895119	33
4	424	843.207320232624	34
4	432	873.942576879873	33
4	442	889.947377862305	34
4	444	897.804568412318	35
4	449	914.632099004161	33
4	451	915.488711936872	34
4	462	945.071231785982	32
4	465	949.633697054565	32
4	477	966.943236849065	33
4	485	985.971298188676	32
4	489	993.210230971233	33
4	493	998.423622080102	34
4	495	1000.921040720454	35
4	499	1001.196832721302	36
4	509	1014.925932569701	33
4	513	1017.765187102879	34
4	516	1023.413391162244	34
4	518	1024.108439419263	35
4	524	1046.028160558552	34
4	534	1096.944462109245	29
4	546	1125.279457445573	28
4	553	1160.540370069861	28
4	556	1167.532269079515	28
4	561	1183.639574082103	28
4	565	1195.747602741362	29
4	571	1204.956041520397	30
4	579	1217.216249094466	29
4	585	1231.696238927894	30
4	591	1238.255172069064	31
4	593	1240.109140223235	32
4	613	1272.376640157936	27
4	615	1275.84421489915	28
4	617	1281.395866190636	29
4	624	1288.820645542104	29
4	628	1292.719627829461	28
4	630	1297.129891853787	29
4	633	1311.481797115517	29
4	635	1311.949348610701	30
4	645	1338.92468962851	29
4	661	1379.760778742017	26
4	668	1392.181584463408	26
4	670	1398.003993694257	27
4	673	1405.290302376764	27
4	676	1412.302104751674	27
4	681	1433.884493604358	27
4	683	1437.793332681767	28
4	686	1445.859489585829	28
4	688	1448.867091804362	29
4	690	1457.391862593291	30
4	693	1462.283969839487	30
4	697	1467.291622025803	31
4	702	1485.130541021534	31
4	710	1511.24160211214	30
4	713	1524.588001745812	30
4	715	1524.643600229639	31
4	717	1529.411233542209	32
4	724	1542.449109778282	32
4	726	1542.58013783896	33
4	730	1546.976878383214	34
4	735	1562.942339260814	34
4	743	1565.336761344345	35
4	745	1568.475499709296	36
4	750	1572.970099246879	36
4	755	1581.709236052978	36
4	759	1602.771222564513	35
4	761	1603.030052961451	36
4	763	1607.545026537934	37
4	769	1618.398099143238	38
4	775	1625.393915860621	39
4	780	1630.296361721288	39
4	788	1644.884507269628	38
4	793	1651.757625567091	38
4	803	1676.347157909631	35
4	805	1681.706982669721	36
4	812	1699.215154618233	36
4	816	1703.536406663697	37
4	818	1708.842378670838	38
4	822	1716.849210497688	39
4	826	1726.814533694438	40
4	840	1762.900694935712	37
4	844	1767.08485511841	38
4	846	1768.281435468211	39
4	849	1773.089136284833	39
4	851	1776.847109930347	40
4	860	1809.670479361191	38
4	862	1810.097442974776	39
4	867	1820.51071820149	39
4	874	1833.920095420257	39
4	885	1865.584274562065	39
4	890	1876.299472351279	39
4	899	1892.567964953863	37
4	901	1894.984041488582	38
4	903	1897.589717815743	39
4	907	1902.981170423502	40
4	911	1924.117528436408	41
4	917	1934.441334727157	40
4	928	1943.418388944268	38
4	933	1954.250149114804	38
4	943	1969.675993867417	39
4	945	1971.545039881552	40
4	947	1979.140996530529	41
5	0	0	0
5	2	5.726919896272	0
5	4	7.773598739036	1
5	8	8.036281107502	2
5	11	17.731155759661	2
5	12	18.831412329127	1
5	16	34.851463712067	1
5	17	37.304030007755	1
5	19	42.82904295107	1
5	24	64.787975440518	1
5	25	69.944456564969	0
5	28	72.342486677844	0
5	29	74.282650600206	0
5	34	78.057489859078	0
5	36	84.68850291046	1
5	39	88.783094319443	1
5	41	90.142118082639	1
5	43	94.006634772857	2
5	45	98.016409006097	3
5	47	99.693812917996	4
5	48	101.418641067901	4
5	50	101.983525865318	4
5	56	113.985415231046	5
5	60	123.642088882469	6
5	62	124.919860611726	7
5	64	128.481678085776	8
5	69	134.935103761792	8
5	71	135.120978274419	8
5	73	138.224717930629	9
5	78	143.553888883963	9
5	80	148.241508487805	9
5	82	157.947231069218	10
5	88	174.997182010426	11
5	89	177.546687017916	11
5	90	177.830576750065	10
5	91	179.843584985222	9
5	92	180.465773416249	8
5	94	182.529171095525	8
5	95	183.949349153282	8
5	96	188.222405620257	7
5	97	189.014989385435	6
5	98	190.488305246987	5
5	100	194.018526212898	5
5	102	195.463928954085	6
5	103	199.207290477806	6
5	107	202.366665437672	6
5	113	209.573455050852	7
5	116	217.010272921027	7
5	117	217.465246917123	6
5	119	218.411617355084	6
5	120	219.821549288317	6
5	122	220.450418524696	6
5	123	228.976632272243	6
5	127	233.171301665966	6
5	128	238.03095501536	6
5	132	248.558074593608	6
5	134	251.548849894072	7
5	137	253.741648162815	7
5	138	257.383751349538	6
5	141	262.279830496848	5
5	144	268.831963097178	4
5	146	270.788644205775	4
5	150	278.689792499808	5
5	152	285.506660332849	6
5	153	285.748945274462	6
5	155	290.737461585122	6
5	156	295.926841706221	6
5	159	309.332413015368	5
5	161	309.482015452319	5
5	163	311.429819405681	6
5	165	312.259782660741	7
5	180	346.012185288231	7
5	181	346.37629724478	6
5	183	347.203575464	6
5	185	354.240523356049	7
5	189	357.764768395909	8
5	191	358.439920572452	9
5	193	361.834852000695	10
5	195	367.423153762008	11
5	196	368.151683988087	11
5	198	368.658323072961	11
5	200	369.67345700987	12
5	202	371.679050037973	13
5	204	373.039079874238	14
5	206	379.856994250432	15
5	207	380.427377772229	15
5	211	388.938863516827	15
5	213	397.280560685999	16
5	215	399.842549820485	17
5	217	402.35071891873	18
5	221	403.481797683628	19
5	225	418.070068724639	20
5	227	420.558608809694	21
5	231	429.169725444641	22
5	233	433.47488243005	23
5	234	434.970698646842	23
5	236	435.311987412524	23
5	237	439.472129546976	23
5	239	441.619111465673	23
5	243	446.199409395428	24
5	244	447.193646363607	24
5	246	448.452659021105	24
5	248	454.776446263453	25
5	249	455.238392837424	25
5	251	465.004263081158	25
5	252	467.308692319896	25
5	253	472.309872987789	24
5	255	475.625124205418	24
5	256	477.796919323752	24
5	258	482.223599051989	24
5	263	495.517272548081	24
5	265	497.978300260093	24
5	267	505.015058728469	25
5	270	508.768091715716	25
5	272	515.893616077965	25
5	273	517.477527354707	25
5	275	520.785768446561	25
5	276	522.299628860734	25
5	279	524.859100491273	24
5	283	530.279841615083	24
5	284	533.952851179039	24
5	287	545.753152527618	23
5	289	546.061048799718	23
5	296	567.014680915723	23
5	301	589.748073311855	22
5	303	593.003245474391	22
5	309	601.678350744244	23
5	311	602.950831618096	24
5	313	604.7217673223	25
5	317	606.33008591941	26
5	318	615.268964232247	26
5	320	618.394923578166	26
5	321	620.756073379704	26
5	322	625.223782668927	25
5	323	628.988402012895	24
5	327	637.519360402144	24
5	336	662.521428517924	24
5	339	669.886068998485	23
5	341	670.915985983231	23
5	347	678.039813616732	24
5	349	684.971452703235	25
5	351	687.421126379221	26
5	354	688.896257082667	26
5	360	709.45033942804	26
5	371	730.219529275165	26
5	372	730.531978478198	25
5	384	759.456632516112	25
5	388	763.636266232068	26
5	390	767.423974372871	27
5	392	775.797479017886	28
5	394	778.791425272269	29
5	396	784.369653609072	30
5	397	786.474642935402	30
5	398	788.784456599506	29
5	402	800.93365355957	29
5	403	805.52313820684	29
5	405	806.673921950161	29
5	407	811.038455784235	30
5	408	811.425582508498	30
5	414	826.024543018273	30
5	418	832.332700668221	31
5	422	840.002880895119	32
5	424	843.207320232624	33
5	427	846.395614677904	33
5	430	871.222283230264	32
5	432	873.942576879873	32
5	442	889.947377862305	33
5	444	897.804568412318	34
5	445	899.260077320593	34
5	446	906.897256768573	33
5	447	914.019340962801	32
5	449	914.632099004161	32
5	451	915.488711936872	33
5	452	922.312337464564	33
5	455	923.763586388462	32
5	456	931.772919526847	31
5	462	945.071231785982	31
5	463	947.667149711043	31
5	465	949.633697054565	31
5	477	966.943236849065	32
5	478	970.873853137761	32
5	481	983.115131121891	31
5	485	985.971298188676	31
5	489	993.210230971233	32
5	493	998.423622080102	33
5	495	1000.921040720454	34
5	499	1001.196832721302	35
5	500	1001.868824948306	35
5	501	1008.599850529716	34
5	502	1008.950685087099	33
5	507	1012.775123759981	32
5	509	1014.925932569701	32
5	513	1017.765187102879	33
5	514	1018.46698084672	33
5	516	1023.413391162244	33
5	518	1024.108439419263	34
5	521	1026.293255209255	34
5	522	1038.702697113093	33
5	524	1046.028160558552	33
5	525	1048.195908092619	33
5	526	1068.880175126961	32
5	529	1073.585137262166	31
5	530	1087.69479787994	30
5	531	1092.870075907778	29
5	532	1096.280258833143	28
5	534	1096.944462109245	28
5	539	1105.458921488952	28
5	544	1121.362674073034	27
5	546	1125.279457445573	27
5	551	1150.911681105229	27
5	553	1160.540370069861	27
5	554	1167.212808409672	27
5	556	1167.532269079515	27
5	557	1180.4503138921	27
5	561	1183.639574082103	27
5	565	1195.747602741362	28
5	571	1204.956041520397	29
5	574	1211.177837334485	29
5	577	1216.17823867234	28
5	579	1217.216249094466	28
5	585	1231.696238927894	29
5	591	1238.255172069064	30
5	593	1240.109140223235	31
5	596	1241.186449429584	31
5	599	1246.071934277632	30
5	602	1253.100996887173	29
5	603	1262.195141348694	28
5	604	1263.367809908848	27
5	607	1266.816751638625	26
5	613	1272.376640157936	26
5	615	1275.84421489915	27
5	617	1281.395866190636	28
5	622	1288.259696263234	28
5	624	1288.820645542104	28
5	625	1291.632722727194	28
5	626	1292.621131143853	27
5	628	1292.719627829461	27
5	630	1297.129891853787	28
5	631	1303.445412916011	28
5	633	1311.481797115517	28
5	635	1311.949348610701	29
5	640	1331.032062571634	29
5	643	1332.401122381963	28
5	645	1338.92468962851	28
5	652	1350.096850927181	28
5	655	1360.009535013043	27
5	656	1368.865698489343	26
5	657	1375.611097010442	25
5	661	1379.760778742017	25
5	662	1382.36035859566	25
5	668	1392.181584463408	25
5	670	1398.003993694257	26
5	671	1400.80929129751	26
5	673	1405.290302376764	26
5	674	1411.697279587843	26
5	676	1412.302104751674	26
5	679	1432.297727885273	26
5	681	1433.884493604358	26
5	683	1437.793332681767	27
5	684	1441.46659619003	27
5	686	1445.859489585829	27
5	688	1448.867091804362	28
5	690	1457.391862593291	29
5	691	1459.087317682167	29
5	693	1462.283969839487	29
5	697	1467.291622025803	30
5	698	1483.869542467502	30
5	702	1485.130541021534	30
5	707	1501.397682255992	30
5	708	1507.100883746283	29
5	710	1511.24160211214	29
5	711	1514.117378605539	29
5	713	1524.588001745812	29
5	715	1524.643600229639	30
5	717	1529.411233542209	31
5	722	1541.965410030373	31
5	724	1542.449109778282	31
5	726	1542.58013783896	32
5	730	1546.976878383214	33
5	733	1558.510806507715	33
5	735	1562.942339260814	33
5	743	1565.336761344345	34
5	745	1568.475499709296	35
5	746	1568.590143853984	35
5	750	1572.970099246879	35
5	753	1574.819436450649	35
5	755	1581.709236052978	35
5	756	1586.47126884633	35
5	757	1599.228598323831	34
5	759	1602.771222564513	34
5	761	1603.030052961451	35
5	763	1607.545026537934	36
5	769	1618.398099143238	37
5	775	1625.393915860621	38
5	776	1625.470143005262	38
5	780	1630.296361721288	38
5	783	1631.383729469459	38
5	786	1642.443486593465	37
5	788	1644.884507269628	37
5	791	1651.279214906722	37
5	793	1651.757625567091	37
5	794	1653.586964343539	37
5	795	1654.539513062778	36
5	796	1659.938221823899	35
5	797	1664.107672043756	34
5	803	1676.347157909631	34
5	805	1681.706982669721	35
5	806	1688.785410799524	35
5	812	1699.215154618233	35
5	816	1703.536406663697	36
5	818	1708.842378670838	37
5	822	1716.849210497688	38
5	826	1726.814533694438	39
5	829	1742.207281064299	39
5	830	1747.981083478732	38
5	833	1751.912939911372	37
5	836	1752.234753593463	36
5	840	1762.900694935712	36
5	844	1767.08485511841	37
5	846	1768.281435468211	38
5	847	1769.87416163535	38
5	849	1773.089136284833	38
5	851	1776.847109930347	39
5	852	1779.753777084364	39
5	857	1795.521559818709	38
5	858	1795.917123971101	37
5	860	1809.670479361191	37
5	862	1810.097442974776	38
5	863	1815.224132741368	38
5	867	1820.51071820149	38
5	868	1825.78950127359	38
5	874	1833.920095420257	38
5	875	1835.457388349923	38
5	885	1865.584274562065	38
5	888	1872.978421735696	38
5	890	1876.299472351279	38
5	891	1886.598193223017	38
5	892	1890.076533535444	37
5	895	1891.116293117829	36
5	899	1892.567964953863	36
5	901	1894.984041488582	37
5	903	1897.589717815743	38
5	907	1902.981170423502	39
5	911	1924.117528436408	40
5	912	1930.117578149312	40
5	913	1931.247520367775	39
5	917	1934.441334727157	39
5	918	1936.119414979896	39
5	921	1939.447380999369	38
5	926	1942.352283016586	37
5	928	1943.418388944268	37
5	929	1944.822944009647	37
5	933	1954.250149114804	37
5	943	1969.675993867417	38
5	945	1971.545039881552	39
5	947	1979.140996530529	40
6	0	0	0
6	11	17.731155759661	1
6	12	18.831412329127	2
6	17	37.304030007755	3
6	24	64.787975440518	4
6	25	69.944456564969	5
6	29	74.282650600206	6
6	39	88.783094319443	7
6	48	101.418641067901	8
6	69	134.935103761792	9
6	78	143.553888883963	10
6	89	177.546687017916	11
6	90	177.830576750065	12
6	91	179.843584985222	13
6	92	180.465773416249	14
6	95	183.949349153282	15
6	96	188.222405620257	16
6	97	189.014989385435	17
6	98	190.488305246987	18
6	103	199.207290477806	19
6	116	217.010272921027	20
6	117	217.465246917123	21
6	120	219.821549288317	22
6	123	228.976632272243	23
6	128	238.03095501536	24
6	137	253.741648162815	25
6	138	257.383751349538	26
6	141	262.279830496848	27
6	144	268.831963097178	28
6	153	285.748945274462	29
6	156	295.926841706221	30
6	159	309.332413015368	31
6	180	346.012185288231	32
6	181	346.37629724478	33
6	196	368.151683988087	34
6	207	380.427377772229	35
6	234	434.970698646842	36
6	237	439.472129546976	37
6	244	447.193646363607	38
6	249	455.238392837424	39
6	252	467.308692319896	40
6	253	472.309872987789	41
6	256	477.796919323752	42
6	263	495.517272548081	43
6	270	508.768091715716	44
6	273	517.477527354707	45
6	276	522.299628860734	46
6	279	524.859100491273	47
6	284	533.952851179039	48
6	287	545.753152527618	49
6	296	567.014680915723	50
6	301	589.748073311855	51
6	318	615.268964232247	52
6	321	620.756073379704	53
6	322	625.223782668927	54
6	323	628.988402012895	55
6	336	662.521428517924	56
6	339	669.886068998485	57
6	354	688.896257082667	58
6	371	730.219529275165	59
6	372	730.531978478198	60
6	397	786.474642935402	61
6	398	788.784456599506	62
6	403	805.52313820684	63
6	408	811.425582508498	64
6	427	846.395614677904	65
6	430	871.222283230264	66
6	445	899.260077320593	67
6	446	906.897256768573	68
6	447	914.019340962801	69
6	452	922.312337464564	70
6	455	923.763586388462	71
6	456	931.772919526847	72
6	463	947.667149711043	73
6	478	970.873853137761	74
6	481	983.115131121891	75
6	500	1001.868824948306	76
6	501	1008.599850529716	77
6	502	1008.950685087099	78
6	507	1012.775123759981	79
6	514	1018.46698084672	80
6	521	1026.293255209255	81
6	522	1038.702697113093	82
6	525	1048.195908092619	83
6	526	1068.880175126961	84
6	529	1073.585137262166	85
6	530	1087.69479787994	86
6	531	1092.870075907778	87
6	532	1096.280258833143	88
6	539	1105.458921488952	89
6	544	1121.362674073034	90
6	551	1150.911681105229	91
6	554	1167.212808409672	92
6	557	1180.4503138921	93
6	574	1211.177837334485	94
6	577	1216.17823867234	95
6	596	1241.186449429584	96
6	599	1246.071934277632	97
6	602	1253.100996887173	98
6	603	1262.195141348694	99
6	604	1263.367809908848	100
6	607	1266.816751638625	101
6	622	1288.259696263234	102
6	625	1291.632722727194	103
6	626	1292.621131143853	104
6	631	1303.445412916011	105
6	640	1331.032062571634	106
6	643	1332.401122381963	107
6	652	1350.096850927181	108
6	655	1360.009535013043	109
6	656	1368.865698489343	110
6	657	1375.611097010442	111
6	662	1382.36035859566	112
6	671	1400.80929129751	113
6	674	1411.697279587843	114
6	679	1432.297727885273	115
6	684	1441.46659619003	116
6	691	1459.087317682167	117
6	698	1483.869542467502	118
6	707	1501.397682255992	119
6	708	1507.100883746283	120
6	711	1514.117378605539	121
6	722	1541.965410030373	122
6	733	1558.510806507715	123
6	746	1568.590143853984	124
6	753	1574.819436450649	125
6	756	1586.47126884633	126
6	757	1599.228598323831	127
6	776	1625.470143005262	128
6	783	1631.383729469459	129
6	786	1642.443486593465	130
6	791	1651.279214906722	131
6	794	1653.586964343539	132
6	795	1654.539513062778	133
6	796	1659.938221823899	134
6	797	1664.107672043756	135
6	806	1688.785410799524	136
6	829	1742.207281064299	137
6	830	1747.981083478732	138
6	833	1751.912939911372	139
6	836	1752.234753593463	140
6	847	1769.87416163535	141
6	852	1779.753777084364	142
6	857	1795.521559818709	143
6	858	1795.917123971101	144
6	863	1815.224132741368	145
6	868	1825.78950127359	146
6	875	1835.457388349923	147
6	888	1872.978421735696	148
6	891	1886.598193223017	149
6	892	1890.076533535444	150
6	895	1891.116293117829	151
6	912	1930.117578149312	152
6	913	1931.247520367775	153
6	918	1936.119414979896	154
6	921	1939.447380999369	155
6	926	1942.352283016586	156
6	929	1944.822944009647	157
7	2	5.726919896272	0
7	11	17.731155759661	9.957557020625
7	12	18.831412329127	10.795131221625
7	17	37.304030007755	2.452566295688
7	24	64.787975440518	21.958932489448
7	28	72.342486677844	0
7	34	78.057489859078	0
7	39	88.783094319443	4.094591408983
7	48	101.418641067901	11.276522985262
7	69	134.935103761792	40.928468988935
7	78	143.553888883963	45.537479877866
7	89	177.546687017916	77.85287409992
7	90	177.830576750065	75.847050884747
7	91	179.843584985222	65.858169754176
7	92	180.465773416249	56.82368453378
7	95	183.949349153282	59.029488541556
7	96	188.222405620257	59.740727534481
7	97	189.014989385435	53.894011111016
7	98	190.488305246987	52.263587316358
7	103	199.207290477806	50.965781990001
7	116	217.010272921027	59.063041851809
7	117	217.465246917123	42.468064906697
7	120	219.821549288317	37.292378192792
7	123	228.976632272243	34.958106059345
7	128	238.03095501536	42.567026061275
7	137	253.741648162815	51.374982725143
7	138	257.383751349538	47.810296298686
7	141	262.279830496848	43.868213141764
7	144	268.831963097178	48.381544572482
7	153	285.748945274462	52.577643608496
7	156	295.926841706221	47.368767112613
7	159	309.332413015368	57.783563121296
7	180	346.012185288231	75.223541082456
7	181	346.37629724478	67.686504744972
7	196	368.151683988087	82.645023655238
7	207	380.427377772229	89.689916187107
7	234	434.970698646842	125.48868319452
7	237	439.472129546976	128.04231014129
7	244	447.193646363607	134.93386370287
7	249	455.238392837424	108.03481737342
7	252	467.308692319896	113.06816896385
7	253	472.309872987789	114.54510459188
7	256	477.796919323752	119.3569987513
7	263	495.517272548081	133.68242054739
7	270	508.768091715716	141.34493795371
7	273	517.477527354707	148.81920428175
7	276	522.299628860734	152.62617185086
7	279	524.859100491273	153.1800504533
7	284	533.952851179039	160.9137713048
7	287	545.753152527618	165.89615827719
7	296	567.014680915723	178.0758173989
7	301	589.748073311855	192.46751262586
7	318	615.268964232247	215.42641441176
7	321	620.756073379704	218.40535446097
7	322	625.223782668927	221.7419849853
7	323	628.988402012895	210.91833328826
7	336	662.521428517924	241.96281970823
7	339	669.886068998485	240.71634355384
7	354	688.896257082667	255.42137465262
7	371	730.219529275165	294.90754186264
7	372	730.531978478198	288.91286701252
7	397	786.474642935402	340.27523353997
7	398	788.784456599506	340.3317975784
7	403	805.52313820684	350.74669194339
7	408	811.425582508498	346.42131942734
7	427	846.395614677904	370.77049047249
7	430	871.222283230264	388.99868417827
7	445	899.260077320593	401.2817770605
7	446	906.897256768573	401.8821980401
7	447	914.019340962801	398.12572488484
7	452	922.312337464564	401.526569018
7	455	923.763586388462	393.48374477338
7	456	931.772919526847	385.71187072713
7	463	947.667149711043	354.66390423665
7	478	970.873853137761	369.19550239352
7	481	983.115131121891	380.1642995038
7	500	1001.868824948306	397.14705762601
7	501	1008.599850529716	402.26976461031
7	502	1008.950685087099	390.55576150893
7	507	1012.775123759981	375.25576335784
7	514	1018.46698084672	347.55099486349
7	521	1026.293255209255	348.25344159252
7	522	1038.702697113093	353.73124440986
7	525	1048.195908092619	360.7747817134
7	526	1068.880175126961	359.42983569892
7	529	1073.585137262166	314.12850474605
7	530	1087.69479787994	324.05853164787
7	531	1092.870075907778	325.44610153491
7	532	1096.280258833143	320.48277981526
7	539	1105.458921488952	326.66749621668
7	544	1121.362674073034	336.99302046396
7	551	1150.911681105229	349.97802754566
7	554	1167.212808409672	360.53888645951
7	557	1180.4503138921	369.41185810786
7	574	1211.177837334485	385.15329431621
7	577	1216.17823867234	383.84553800412
7	596	1241.186449429584	401.18356853446
7	599	1246.071934277632	402.86461404501
7	602	1253.100996887173	379.1584200073
7	603	1262.195141348694	372.24776348639
7	604	1263.367809908848	365.56324149653
7	607	1266.816751638625	352.18465263446
7	622	1288.259696263234	372.77098432636
7	625	1291.632722727194	346.56149094121
7	626	1292.621131143853	342.98743408929
7	631	1303.445412916011	336.50217606695
7	640	1331.032062571634	345.06076438296
7	643	1332.401122381963	339.19089141073
7	652	1350.096850927181	351.67322884708
7	655	1360.009535013043	359.08849429259
7	656	1368.865698489343	367.66886576804
7	657	1375.611097010442	360.68516444074
7	662	1382.36035859566	364.59517149278
7	671	1400.80929129751	377.39590013527
7	674	1411.697279587843	387.58884016858
7	679	1432.297727885273	386.26956732672
7	684	1441.46659619003	344.52213408079
7	691	1459.087317682167	333.80786023659
7	698	1483.869542467502	323.32917239764
7	707	1501.397682255992	333.86541317648
7	708	1507.100883746283	323.46130966418
7	711	1514.117378605539	318.36977586418
7	722	1541.965410030373	337.00936850998
7	733	1558.510806507715	341.29455741325
7	746	1568.590143853984	336.89390492609
7	753	1574.819436450649	336.56426438159
7	756	1586.47126884633	346.36212862309
7	757	1599.228598323831	326.85195816589
7	776	1625.470143005262	349.62592810611
7	783	1631.383729469459	349.98786327882
7	786	1642.443486593465	353.62284105136
7	791	1651.279214906722	358.55958707726
7	794	1653.586964343539	356.45707248975
7	795	1654.539513062778	343.05771594726
7	796	1659.938221823899	347.9888732132
7	797	1664.107672043756	325.18298241525
7	806	1688.785410799524	309.02463205751
7	829	1742.207281064299	350.02569660089
7	830	1747.981083478732	349.97708978447
7	833	1751.912939911372	346.62263753461
7	836	1752.234753593463	339.93264884179
7	847	1769.87416163535	335.98966803099
7	852	1779.753777084364	341.9604444026
7	857	1795.521559818709	349.66207023288
7	858	1795.917123971101	347.05003216674
7	863	1815.224132741368	357.83227014808
7	868	1825.78950127359	363.5055314341
7	875	1835.457388349923	368.16576632412
7	888	1872.978421735696	387.84788071416
7	891	1886.598193223017	375.35659111088
7	892	1890.076533535444	365.48853178963
7	895	1891.116293117829	366.47269288819
7	912	1930.117578149312	400.7063446071
7	913	1931.247520367775	388.79841058949
7	918	1936.119414979896	393.53927714094
7	921	1939.447380999369	392.47050261615
7	926	1942.352283016586	379.40994375577
7	929	1944.822944009647	379.4861826653
8	11	17.731155759661	12.004235863389
8	12	18.831412329127	11.057813590091
8	17	37.304030007755	29.267748900253
8	24	64.787975440518	29.936511728451
8	25	69.944456564969	27.115413613899
8	29	74.282650600206	1.940163922362
8	39	88.783094319443	10.725604460365
8	48	101.418641067901	16.730138157441
8	69	134.935103761792	44.792985679153
8	78	143.553888883963	49.547254111106
8	89	177.546687017916	79.530278011819
8	90	177.830576750065	78.136763832069
8	91	179.843584985222	77.860059119904
8	92	180.465773416249	66.480358185203
8	95	183.949349153282	60.307260270813
8	96	188.222405620257	63.302545008531
8	97	189.014989385435	60.533311299659
8	98	190.488305246987	55.367326972568
8	103	199.207290477806	60.982572547177
8	116	217.010272921027	68.768764433222
8	117	217.465246917123	59.518015847905
8	120	219.821549288317	44.824367277891
8	123	228.976632272243	46.447461176718
8	128	238.03095501536	44.012428802462
8	137	253.741648162815	58.27771920873
8	138	257.383751349538	55.017085911866
8	141	262.279830496848	52.706375445996
8	144	268.831963097178	50.420345742094
8	153	285.748945274462	65.298526749766
8	156	295.926841706221	62.755540040255
8	159	309.332413015368	60.77433842176
8	180	346.012185288231	94.463335394159
8	181	346.37629724478	75.587653039005
8	196	368.151683988087	89.461891488279
8	207	380.427377772229	94.92071743938
8	234	434.970698646842	144.23323706172
8	237	439.472129546976	129.99011409466
8	244	447.193646363607	135.76382695793
8	249	455.238392837424	142.97861017668
8	252	467.308692319896	120.1051168559
8	253	472.309872987789	118.06934963174
8	256	477.796919323752	120.03215092784
8	263	495.517272548081	137.07735197563
8	270	508.768091715716	146.93323971502
8	273	517.477527354707	150.0543735927
8	276	522.299628860734	153.64130578777
8	279	524.859100491273	155.1856434814
8	284	533.952851179039	162.27380114107
8	287	545.753152527618	172.71407265338
8	296	567.014680915723	187.15768666529
8	301	589.748073311855	200.80920979503
8	318	615.268964232247	217.98840354625
8	321	620.756073379704	220.91352355922
8	322	625.223782668927	222.8730637502
8	323	628.988402012895	225.50660432927
8	336	662.521428517924	244.45135979329
8	339	669.886068998485	249.32746018879
8	354	688.896257082667	259.72653163803
8	371	730.219529275165	296.74464684511
8	372	730.531978478198	295.21999106567
8	397	786.474642935402	344.85553146973
8	398	788.784456599506	342.58504720408
8	403	805.52313820684	357.07047918573
8	408	811.425582508498	356.64913624504
8	427	846.395614677904	381.39135159675
8	430	871.222283230264	395.59715902485
8	445	899.260077320593	417.0364782686
8	446	906.897256768573	408.91895650848
8	447	914.019340962801	409.00428223433
8	452	922.312337464564	406.4187213866
8	455	923.763586388462	402.9778179419
8	456	931.772919526847	401.49307791176
8	463	947.667149711043	401.60610091132
8	478	970.873853137761	377.87060766337
8	481	983.115131121891	381.43678037765
8	500	1001.868824948306	398.91799333021
8	501	1008.599850529716	403.87808320742
8	502	1008.950685087099	402.62059916769
8	507	1012.775123759981	394.38020018181
8	514	1018.46698084672	380.94762044458
8	521	1026.293255209255	355.37726922602
8	522	1038.702697113093	360.66288349636
8	525	1048.195908092619	363.22445538938
8	526	1068.880175126961	381.45904874774
8	529	1073.585137262166	364.13479783413
8	530	1087.69479787994	328.23816536383
8	531	1092.870075907778	329.23380967571
8	532	1096.280258833143	328.85628446027
8	539	1105.458921488952	329.66144247107
8	544	1121.362674073034	342.57124880076
8	551	1150.911681105229	366.54202749616
8	554	1167.212808409672	366.2791548501
8	557	1180.4503138921	373.77639194194
8	574	1211.177837334485	400.13938155025
8	577	1216.17823867234	390.15369565407
8	596	1241.186449429584	408.85374876136
8	599	1246.071934277632	406.06905338251
8	602	1253.100996887173	409.89367665455
8	603	1262.195141348694	388.25256446882
8	604	1263.367809908848	373.42043204654
8	607	1266.816751638625	369.01218322631
8	622	1288.259696263234	373.62759725907
8	625	1291.632722727194	376.14401079032
8	626	1292.621131143853	347.54989935787
8	631	1303.445412916011	353.81171586145
8	640	1331.032062571634	364.08882572257
8	643	1332.401122381963	346.42982419329
8	652	1350.096850927181	356.88661995595
8	655	1360.009535013043	361.58591293294
8	656	1368.865698489343	367.94465776889
8	657	1375.611097010442	374.41426428914
8	662	1382.36035859566	367.43442602596
8	671	1400.80929129751	383.04410419463
8	674	1411.697279587843	388.2838884256
8	679	1432.297727885273	408.18928846601
8	684	1441.46659619003	395.43843563148
8	691	1459.087317682167	362.14285557292
8	698	1483.869542467502	358.59008502193
8	707	1501.397682255992	340.85731218613
8	708	1507.100883746283	339.56861466677
8	711	1514.117378605539	330.47780452344
8	722	1541.965410030373	346.21780728901
8	733	1558.510806507715	353.55476498732
8	746	1568.590143853984	351.37389475952
8	753	1574.819436450649	343.12319752275
8	756	1586.47126884633	348.21609677727
8	757	1599.228598323831	359.1194581006
8	776	1625.470143005262	353.09350284733
8	783	1631.383729469459	355.53951457031
8	786	1642.443486593465	361.04762040283
8	791	1651.279214906722	362.45856936462
8	794	1653.586964343539	360.86733651408
8	795	1654.539513062778	357.40962120899
8	796	1659.938221823899	348.45642470838
8	797	1664.107672043756	352.15832343305
8	806	1688.785410799524	349.86072117101
8	829	1742.207281064299	362.44650232228
8	830	1747.981083478732	355.79949901532
8	833	1751.912939911372	353.90894621711
8	836	1752.234753593463	346.9444512167
8	847	1769.87416163535	357.57205688368
8	852	1779.753777084364	345.86928348001
8	857	1795.521559818709	357.72822713694
8	858	1795.917123971101	350.05763438527
8	863	1815.224132741368	366.35704093701
8	868	1825.78950127359	368.3976386803
8	875	1835.457388349923	373.17341851044
8	888	1872.978421735696	405.68679970989
8	891	1886.598193223017	401.46765220148
8	892	1890.076533535444	378.8349314233
8	895	1891.116293117829	366.52829137202
8	912	1930.117578149312	405.47397791967
8	913	1931.247520367775	401.83628682557
8	918	1936.119414979896	393.67030520161
8	921	1939.447380999369	396.86724316041
8	926	1942.352283016586	395.37540463337
8	929	1944.822944009647	381.88060474883
9	25	69.944456564969	61.985711519311
9	26	70.484062391481	53.539713460984
9	29	74.282650600206	44.778994089235
9	30	75.556775838366	27.457077206648
10	26	70.484062391481	62.525317345823
10	30	75.556775838366	46.053119327395
11	956	2000	0.001
12	956	2000	0.0785

