version 2
run analysis_2kr_easy_game_mode-132-20230304-15:32:48-20870
attr configname analysis_2kr_easy_game_mode
attr datetime 20230304-15:32:48
attr experiment analysis_2kr_easy_game_mode
attr inifile omnetpp.ini
attr iterationvars "$0=30, $1=7.5, $2=10, $3=3.5, $4=0"
attr iterationvarsf 30,7.5,10,3.5,0-
attr measurement "$0=30, $1=7.5, $2=10, $3=3.5, $4=0"
attr network Network
attr processid 20870
attr repetition 2
attr replication #2
attr resultdir results
attr runnumber 132
attr seedset 2
param *.boss.arrival_mean 30
param *.boss.service_mean 7.5
param *.minion.arrival_mean 10
param *.minion.service_mean 3.5
param *.player.recover_rate_x 0
param **.minion.arrival_distribution 0
param **.minion.service_distribution 0
param **.boss.arrival_distribution 0
param **.boss.service_distribution 0

vector 0 Network.player boss_jobs_number_stat:vector ETV
attr source signal_boss_jobs_number
vector 1 Network.player boss_jobs_queue_number_stat:vector ETV
attr source signal_boss_jobs_queue_number
vector 2 Network.player boss_waiting_time_stat:vector ETV
attr source signal_boss_waiting_time
vector 3 Network.player minion_jobs_number_stat:vector ETV
attr source signal_minion_jobs_number
vector 4 Network.player minion_jobs_queue_number_stat:vector ETV
attr source signal_minion_jobs_queue_number
vector 5 Network.player boss_defeated_stat:vector ETV
attr source signal_boss_defeated
vector 6 Network.player boss_response_time_stat:vector ETV
attr source signal_boss_response_time
vector 7 Network.player minion_waiting_time_stat:vector ETV
attr source signal_minion_waiting_time
vector 8 Network.player minion_defeated_stat:vector ETV
attr source signal_minion_defeated
vector 9 Network.player minion_response_time_stat:vector ETV
attr source signal_minion_response_time
vector 10 Network.player minion_recovered_stat:vector ETV
attr source signal_minion_recovered
vector 11 Network.player minion_throughput:vector ETV
attr source signal_minion_throughput
vector 12 Network.player boss_throughput:vector ETV
attr source signal_boss_throughput
0	146	360.563777950559	1
0	152	369.823437496583	1
0	154	375.381203536285	2
0	159	384.560774436847	2
0	165	387.335413309351	3
0	169	392.224320651685	4
0	180	426.914087462371	2
0	200	461.457246401535	1
0	236	553.437603758979	1
0	253	604.320475682479	1
0	255	604.439158151511	2
0	264	616.726586392182	2
0	272	638.261604292271	1
0	299	704.703372373406	1
0	330	754.942025664163	1
0	337	761.565982796694	1
0	354	790.009184370493	1
0	356	790.942038269855	2
0	367	829.319669743967	1
0	382	892.337158669343	1
0	386	902.691243247334	2
0	416	941.687644309456	1
0	446	1016.63620090871	1
0	455	1039.989571702946	1
0	464	1077.602933700969	1
0	467	1081.831118922544	1
0	478	1105.293380265788	1
0	484	1121.309421337766	1
0	486	1125.909903032852	2
0	505	1171.160890137435	1
0	523	1185.181460965343	1
0	540	1211.486449424174	1
0	551	1245.12448508443	1
0	557	1251.174440244616	1
0	569	1268.667362010699	1
0	578	1321.142545848953	1
0	586	1338.21812368407	1
0	590	1341.559542662263	1
0	602	1370.411288633291	1
0	609	1380.415810387932	1
0	618	1402.009062269573	1
0	620	1404.043402969798	2
0	638	1435.572130525238	1
0	641	1437.315123431991	1
0	656	1464.8818680639	1
0	667	1508.385206963064	1
0	691	1557.46223702778	1
0	693	1557.817978894505	2
0	703	1579.940178275986	1
0	714	1608.338295609274	1
0	737	1680.129639274647	1
0	744	1692.228364982624	1
0	750	1703.764556429293	2
0	763	1728.370007580682	1
0	767	1731.214475203443	1
0	773	1743.476071357903	1
0	776	1754.206337144157	1
0	786	1770.095509420512	2
0	790	1773.726129804286	3
0	792	1776.125214902578	4
0	809	1829.052110276993	1
0	833	1886.580566597369	1
0	835	1888.021514216396	2
0	839	1905.415396892295	1
0	848	1934.943423605723	1
0	850	1938.845117563528	2
0	854	1962.639855231211	1
0	866	2002.113212525367	1
0	881	2053.438566885625	1
0	884	2057.920811426925	1
0	887	2064.57567663793	1
0	904	2108.261740607993	1
0	914	2166.577670362266	1
0	937	2220.089581922891	1
0	948	2233.08944217134	1
0	952	2244.211704389751	1
0	962	2286.363507756744	1
0	972	2313.67144743344	1
0	976	2324.199123195525	2
0	1004	2385.962997380867	1
0	1033	2450.57152504087	1
1	146	360.563777950559	0
1	149	365.575308492821	0
1	152	369.823437496583	0
1	154	375.381203536285	1
1	157	382.946508293654	1
1	159	384.560774436847	1
1	165	387.335413309351	2
1	169	392.224320651685	3
1	176	404.276389946108	3
1	177	405.006935791054	2
1	178	419.275195688762	1
1	180	426.914087462371	1
1	181	435.809887776295	1
1	184	445.628900680959	0
1	200	461.457246401535	0
1	205	470.839232010003	0
1	236	553.437603758979	0
1	237	554.300963848064	0
1	253	604.320475682479	0
1	255	604.439158151511	1
1	258	609.792480695606	1
1	264	616.726586392182	1
1	267	626.618074491789	1
1	270	638.160026031934	0
1	272	638.261604292271	0
1	275	652.856528432178	0
1	299	704.703372373406	0
1	302	711.347781484527	0
1	330	754.942025664163	0
1	331	756.29523035537	0
1	337	761.565982796694	0
1	340	771.578322893829	0
1	354	790.009184370493	0
1	356	790.942038269855	1
1	359	797.513537390766	1
1	360	805.885776125406	0
1	367	829.319669743967	0
1	368	829.474892068113	0
1	382	892.337158669343	0
1	386	902.691243247334	1
1	399	918.654111906292	1
1	400	919.585106190569	0
1	416	941.687644309456	0
1	421	975.229978357007	0
1	446	1016.63620090871	0
1	449	1019.488709704807	0
1	455	1039.989571702946	0
1	456	1051.281143205457	0
1	464	1077.602933700969	0
1	465	1078.891967146533	0
1	467	1081.831118922544	0
1	468	1082.022150807964	0
1	478	1105.293380265788	0
1	479	1115.964932657168	0
1	484	1121.309421337766	0
1	486	1125.909903032852	1
1	491	1140.373235873107	1
1	494	1153.162705943319	0
1	505	1171.160890137435	0
1	508	1175.129741466176	0
1	523	1185.181460965343	0
1	526	1188.350562856406	0
1	540	1211.486449424174	0
1	541	1213.064104941359	0
1	551	1245.12448508443	0
1	554	1248.003716861722	0
1	557	1251.174440244616	0
1	558	1252.885699313903	0
1	569	1268.667362010699	0
1	570	1269.555377825303	0
1	578	1321.142545848953	0
1	583	1336.106032504705	0
1	586	1338.21812368407	0
1	587	1338.875781941359	0
1	590	1341.559542662263	0
1	591	1342.823968581529	0
1	602	1370.411288633291	0
1	607	1379.766178042445	0
1	609	1380.415810387932	0
1	612	1391.597577848688	0
1	618	1402.009062269573	0
1	620	1404.043402969798	1
1	621	1408.87268628427	1
1	626	1413.822070654162	0
1	638	1435.572130525238	0
1	639	1436.001756712854	0
1	641	1437.315123431991	0
1	646	1448.784752349957	0
1	656	1464.8818680639	0
1	657	1469.783393339029	0
1	667	1508.385206963064	0
1	668	1508.72978908629	0
1	691	1557.46223702778	0
1	693	1557.817978894505	1
1	694	1561.314414566287	1
1	697	1568.596643309898	0
1	703	1579.940178275986	0
1	706	1594.068202921793	0
1	714	1608.338295609274	0
1	715	1612.720121330637	0
1	737	1680.129639274647	0
1	740	1689.619490671656	0
1	744	1692.228364982624	0
1	750	1703.764556429293	1
1	751	1709.324500286195	1
1	752	1716.235482001241	0
1	763	1728.370007580682	0
1	764	1728.906975241383	0
1	767	1731.214475203443	0
1	768	1737.243118932161	0
1	773	1743.476071357903	0
1	774	1748.77168056617	0
1	776	1754.206337144157	0
1	786	1770.095509420512	1
1	790	1773.726129804286	2
1	792	1776.125214902578	3
1	793	1776.54088315925	3
1	794	1781.230729617264	2
1	803	1813.615637933973	1
1	806	1822.135823548755	0
1	809	1829.052110276993	0
1	814	1832.146395573693	0
1	833	1886.580566597369	0
1	835	1888.021514216396	1
1	836	1891.559792659094	1
1	837	1893.616832370911	0
1	839	1905.415396892295	0
1	840	1909.593910802826	0
1	848	1934.943423605723	0
1	850	1938.845117563528	1
1	851	1946.881725636694	1
1	852	1950.690813928057	0
1	854	1962.639855231211	0
1	855	1963.133391629717	0
1	866	2002.113212525367	0
1	867	2002.442879386675	0
1	881	2053.438566885625	0
1	882	2056.840005750444	0
1	884	2057.920811426925	0
1	885	2059.558733156093	0
1	887	2064.57567663793	0
1	888	2065.120140711217	0
1	904	2108.261740607993	0
1	905	2113.115206572037	0
1	914	2166.577670362266	0
1	915	2169.463168429915	0
1	937	2220.089581922891	0
1	938	2220.371899915305	0
1	948	2233.08944217134	0
1	949	2233.636808480302	0
1	952	2244.211704389751	0
1	953	2244.256837545136	0
1	962	2286.363507756744	0
1	963	2288.934970773982	0
1	972	2313.67144743344	0
1	976	2324.199123195525	1
1	979	2332.984309474556	1
1	982	2344.692779951999	0
1	1004	2385.962997380867	0
1	1009	2394.451104558786	0
1	1033	2450.57152504087	0
1	1044	2468.257283412499	0
2	146	360.563777950559	0
2	152	369.823437496583	0
2	157	382.946508293654	7.565304757369
2	176	404.276389946108	19.715615509261
2	177	405.006935791054	17.671522481703
2	178	419.275195688762	27.050875037077
2	181	435.809887776295	8.895800313924
2	200	461.457246401535	0
2	236	553.437603758979	0
2	253	604.320475682479	0
2	258	609.792480695606	5.353322544095
2	267	626.618074491789	9.891488099607
2	272	638.261604292271	0
2	299	704.703372373406	0
2	330	754.942025664163	0
2	337	761.565982796694	0
2	354	790.009184370493	0
2	359	797.513537390766	6.571499120911
2	367	829.319669743967	0
2	382	892.337158669343	0
2	399	918.654111906292	15.962868658958
2	416	941.687644309456	0
2	446	1016.63620090871	0
2	455	1039.989571702946	0
2	464	1077.602933700969	0
2	467	1081.831118922544	0
2	478	1105.293380265788	0
2	484	1121.309421337766	0
2	491	1140.373235873107	14.463332840255
2	505	1171.160890137435	0
2	523	1185.181460965343	0
2	540	1211.486449424174	0
2	551	1245.12448508443	0
2	557	1251.174440244616	0
2	569	1268.667362010699	0
2	578	1321.142545848953	0
2	586	1338.21812368407	0
2	590	1341.559542662263	0
2	602	1370.411288633291	0
2	609	1380.415810387932	0
2	618	1402.009062269573	0
2	621	1408.87268628427	4.829283314472
2	638	1435.572130525238	0
2	641	1437.315123431991	0
2	656	1464.8818680639	0
2	667	1508.385206963064	0
2	691	1557.46223702778	0
2	694	1561.314414566287	3.496435671782
2	703	1579.940178275986	0
2	714	1608.338295609274	0
2	737	1680.129639274647	0
2	744	1692.228364982624	0
2	751	1709.324500286195	5.559943856902
2	763	1728.370007580682	0
2	767	1731.214475203443	0
2	773	1743.476071357903	0
2	776	1754.206337144157	0
2	793	1776.54088315925	6.445373738738
2	794	1781.230729617264	7.504599812978
2	803	1813.615637933973	37.490423031395
2	809	1829.052110276993	0
2	833	1886.580566597369	0
2	836	1891.559792659094	3.538278442698
2	839	1905.415396892295	0
2	848	1934.943423605723	0
2	851	1946.881725636694	8.036608073166
2	854	1962.639855231211	0
2	866	2002.113212525367	0
2	881	2053.438566885625	0
2	884	2057.920811426925	0
2	887	2064.57567663793	0
2	904	2108.261740607993	0
2	914	2166.577670362266	0
2	937	2220.089581922891	0
2	948	2233.08944217134	0
2	952	2244.211704389751	0
2	962	2286.363507756744	0
2	972	2313.67144743344	0
2	979	2332.984309474556	8.785186279031
2	1004	2385.962997380867	0
2	1033	2450.57152504087	0
3	148	361.253872248248	1
3	156	382.033569988247	1
3	161	386.094833956454	2
3	163	386.647961139654	3
3	167	389.11721552314	4
3	171	392.226410515015	5
3	173	392.907147651836	6
3	175	396.36227194133	7
3	183	437.031828547986	8
3	186	448.318011895377	9
3	188	449.686015902366	10
3	190	453.261598126964	11
3	193	457.149607354789	11
3	196	459.167132141822	11
3	198	459.902982320572	12
3	202	465.705246785592	13
3	204	468.251201226019	14
3	208	475.822507308272	14
3	210	480.825237471622	15
3	220	509.866602764496	8
3	227	532.51419919372	4
3	230	539.722009720888	4
3	232	543.960260144784	5
3	240	555.155696511461	3
3	245	596.98708789577	1
3	247	598.284845066716	2
3	249	598.576374058973	3
3	251	602.620604624623	4
3	257	606.95438653281	5
3	260	610.162704550092	6
3	262	614.958540455523	7
3	266	623.406264846895	8
3	269	637.852286977402	9
3	274	648.643934406955	10
3	282	676.580654484565	6
3	284	679.89463627924	7
3	286	683.746700318794	8
3	288	685.331815749873	9
3	291	690.996536964801	9
3	293	692.204779726722	10
3	295	695.353883843244	11
3	301	706.298540363435	10
3	307	722.445853962356	8
3	309	723.104634167044	9
3	313	733.272343944783	8
3	315	739.797730469372	9
3	319	740.509362681322	8
3	326	750.972521332418	4
3	334	760.22695815373	2
3	339	761.712095157267	2
3	344	777.587614563966	1
3	347	789.201234791078	1
3	349	789.526551019467	2
3	352	789.861488633681	2
3	358	795.939403761245	3
3	364	819.542236411746	2
3	370	835.156933545261	2
3	374	837.724076214384	1
3	377	882.462444236032	1
3	380	890.900647318088	1
3	384	899.670495225509	2
3	388	902.698546084606	3
3	390	903.095442213722	4
3	392	905.089861502072	5
3	394	911.003404036779	6
3	396	915.690760576577	7
3	398	917.775434736723	8
3	404	924.213556890148	7
3	407	934.076817536199	7
3	412	936.960064299383	5
3	414	939.38482909942	6
3	418	957.912134853835	7
3	420	959.548743667564	8
3	423	978.23760579542	9
3	430	985.919423558647	5
3	437	998.744812864239	1
3	439	999.8027166863	2
3	443	1005.637083893272	1
3	448	1018.773414308077	1
3	452	1026.72492787685	1
3	458	1054.801043001804	1
3	461	1064.652973912992	1
3	470	1093.355992575201	1
3	473	1100.282182876396	1
3	476	1104.978036121906	1
3	482	1118.356984565768	1
3	488	1127.414208507312	2
3	490	1133.514281915121	3
3	493	1144.360864369609	4
3	497	1153.951718723298	4
3	500	1161.097070572118	4
3	507	1172.04226562065	2
3	510	1178.407903726891	3
3	515	1184.211304218178	1
3	517	1184.300423029734	2
3	519	1184.435390764814	3
3	521	1185.138503952723	4
3	525	1185.401070630046	5
3	528	1191.107114039485	6
3	530	1194.270322303708	7
3	535	1199.917749928224	5
3	544	1215.207056702361	2
3	547	1217.263576943163	2
3	553	1245.863388766485	1
3	560	1253.407346792082	1
3	562	1254.654480348304	2
3	566	1263.794569950446	1
3	572	1277.485357624897	1
3	575	1290.248085656458	1
3	580	1328.607576263913	1
3	582	1332.266115075993	2
3	593	1345.999171837684	1
3	596	1351.180955470854	1
3	599	1358.024277942655	1
3	604	1375.328048318735	1
3	606	1376.578224452794	2
3	611	1385.424457924955	3
3	616	1400.686626234377	2
3	623	1412.945932439393	3
3	625	1413.277010384735	4
3	631	1420.422398902746	2
3	634	1421.552048863122	2
3	643	1439.27524498052	1
3	645	1441.998615398113	2
3	650	1454.752516381548	1
3	653	1458.614725343514	1
3	659	1478.733427612972	1
3	662	1505.301943959205	1
3	664	1507.576092677335	2
3	671	1513.948258337622	1
3	674	1517.494098948675	1
3	677	1523.807210772095	1
3	680	1530.266107318484	1
3	683	1547.121827412251	1
3	686	1553.926200376688	1
3	689	1556.691645862258	1
3	696	1566.048321592974	2
3	701	1575.850548390337	1
3	705	1592.939572376582	2
3	708	1600.440615470523	3
3	712	1607.942529139216	2
3	719	1617.209974063659	1
3	722	1645.212310001142	1
3	725	1648.295608035408	1
3	728	1661.146836982142	1
3	731	1666.811507272016	1
3	733	1668.780869812961	2
3	735	1675.853363345013	3
3	739	1685.52198025974	4
3	742	1690.619515589583	5
3	746	1698.881351353874	6
3	748	1702.270853690546	7
3	755	1716.684891854079	7
3	770	1742.107707459114	1
3	778	1758.540050622779	1
3	780	1763.847708067724	2
3	782	1767.394836815643	3
3	784	1769.754296063747	4
3	788	1771.243760096415	5
3	796	1797.197225012532	6
3	798	1807.286711899146	7
3	800	1812.682840100208	8
3	802	1812.766270975972	9
3	805	1814.271161976253	10
3	811	1829.810402453992	10
3	813	1830.86100559469	11
3	819	1837.834111699134	9
3	830	1863.053869228857	1
3	842	1921.548888446662	1
3	845	1925.084728108583	1
3	857	1966.461828507534	1
3	860	1996.442726234962	1
3	863	1999.018505728651	1
3	869	2003.133855187522	1
3	872	2022.102208161922	1
3	875	2026.984715526444	1
3	878	2043.741429300996	1
3	890	2068.035895002599	1
3	893	2070.729528780533	1
3	896	2082.060564272508	1
3	899	2092.756536328325	1
3	902	2107.788762825608	1
3	908	2145.586000304457	1
3	911	2157.470008204503	1
3	917	2170.621603874021	1
3	920	2197.669224470044	1
3	922	2198.674373501187	2
3	926	2203.554715304965	1
3	929	2210.498316660967	1
3	931	2212.274921811409	2
3	935	2218.480584148708	1
3	941	2221.48183917862	1
3	943	2221.489280892939	2
3	945	2223.125972974633	3
3	956	2268.169216379668	1
3	959	2280.874800280286	1
3	965	2301.881038404028	1
3	967	2309.910991732672	2
3	970	2312.359914615875	2
3	974	2318.170158082466	3
3	978	2327.468414806708	4
3	981	2343.996904793849	5
3	986	2350.382606851478	4
3	992	2358.611579696822	1
3	995	2363.060537216027	1
3	998	2373.50460996526	1
3	1001	2381.039792987798	1
3	1006	2386.087771682966	1
3	1008	2394.407798511697	2
3	1013	2404.565149470387	1
3	1016	2422.495692925158	1
3	1018	2423.823415495132	2
3	1020	2424.472143381992	3
3	1023	2430.129653405028	3
3	1027	2439.453006626528	2
3	1031	2446.289358719912	1
3	1035	2453.293347744151	2
3	1037	2458.70246381101	3
3	1039	2460.449554175474	4
3	1041	2464.794619718189	5
3	1043	2466.366369433583	6
3	1049	2477.751206080727	4
3	1053	2487.907921574443	3
3	1055	2491.854625862879	4
4	148	361.253872248248	0
4	150	369.422891524101	0
4	156	382.033569988247	0
4	161	386.094833956454	1
4	163	386.647961139654	2
4	167	389.11721552314	3
4	171	392.226410515015	4
4	173	392.907147651836	5
4	175	396.36227194133	6
4	183	437.031828547986	7
4	186	448.318011895377	8
4	188	449.686015902366	9
4	190	453.261598126964	10
4	191	456.170925745809	10
4	193	457.149607354789	10
4	194	458.948925721205	10
4	196	459.167132141822	10
4	198	459.902982320572	11
4	202	465.705246785592	12
4	204	468.251201226019	13
4	206	475.081571888702	13
4	208	475.822507308272	13
4	210	480.825237471622	14
4	211	485.126931959017	14
4	212	486.836814243879	13
4	213	490.312452722093	12
4	214	494.462069462948	11
4	215	497.37445364732	10
4	216	503.472256396075	9
4	217	507.043840585276	8
4	218	509.237426361713	7
4	220	509.866602764496	7
4	221	514.306294478046	7
4	222	524.183957173995	6
4	223	524.494260943112	5
4	224	526.140446162208	4
4	225	531.839544467306	3
4	227	532.51419919372	3
4	228	538.130973702044	3
4	230	539.722009720888	3
4	232	543.960260144784	4
4	233	552.466626505212	4
4	234	552.852767893436	3
4	238	554.590198264278	2
4	240	555.155696511461	2
4	241	557.167008700216	2
4	242	557.232792863809	1
4	243	557.478030794655	0
4	245	596.98708789577	0
4	247	598.284845066716	1
4	249	598.576374058973	2
4	251	602.620604624623	3
4	257	606.95438653281	4
4	260	610.162704550092	5
4	262	614.958540455523	6
4	266	623.406264846895	7
4	269	637.852286977402	8
4	274	648.643934406955	9
4	276	656.526313549233	9
4	277	657.348980366242	8
4	278	660.200152244792	7
4	279	667.1024073184	6
4	280	676.178785702442	5
4	282	676.580654484565	5
4	284	679.89463627924	6
4	286	683.746700318794	7
4	288	685.331815749873	8
4	289	688.551857540555	8
4	291	690.996536964801	8
4	293	692.204779726722	9
4	295	695.353883843244	10
4	296	702.352449222806	10
4	297	703.070761338795	9
4	301	706.298540363435	9
4	303	715.224185090299	9
4	304	716.199092048478	8
4	305	719.249969466318	7
4	307	722.445853962356	7
4	309	723.104634167044	8
4	310	726.483522303716	8
4	311	732.018496773238	7
4	313	733.272343944783	7
4	315	739.797730469372	8
4	316	740.304448105033	8
4	317	740.471837934118	7
4	319	740.509362681322	7
4	320	745.441722101032	7
4	321	746.070968434232	6
4	322	749.109389536809	5
4	323	750.60048758774	4
4	324	750.871504286139	3
4	326	750.972521332418	3
4	327	753.051141297211	3
4	328	753.661669982322	2
4	332	758.292794556393	1
4	334	760.22695815373	1
4	335	760.312898007193	1
4	339	761.712095157267	1
4	341	772.725321537939	1
4	342	775.878196655758	0
4	344	777.587614563966	0
4	345	779.862747253911	0
4	347	789.201234791078	0
4	349	789.526551019467	1
4	350	789.729758644954	1
4	352	789.861488633681	1
4	358	795.939403761245	2
4	361	813.907330068428	2
4	362	815.629600344949	1
4	364	819.542236411746	1
4	365	822.781383024379	1
4	370	835.156933545261	1
4	371	836.411483690156	1
4	372	837.137612597073	0
4	374	837.724076214384	0
4	375	847.018405453389	0
4	377	882.462444236032	0
4	378	886.535422458563	0
4	380	890.900647318088	0
4	384	899.670495225509	1
4	388	902.698546084606	2
4	390	903.095442213722	3
4	392	905.089861502072	4
4	394	911.003404036779	5
4	396	915.690760576577	6
4	398	917.775434736723	7
4	401	919.894625728431	7
4	402	924.149948373818	6
4	404	924.213556890148	6
4	405	925.345409735152	6
4	407	934.076817536199	6
4	408	934.420694282776	6
4	409	935.753837625861	5
4	410	935.894727517137	4
4	412	936.960064299383	4
4	414	939.38482909942	5
4	418	957.912134853835	6
4	420	959.548743667564	7
4	423	978.23760579542	8
4	424	978.875641052669	8
4	425	979.028930226812	7
4	426	982.585841005506	6
4	427	983.238475881529	5
4	428	985.406148059492	4
4	430	985.919423558647	4
4	431	994.784730689248	4
4	432	995.933172128853	3
4	433	996.123988412839	2
4	434	997.931867719596	1
4	435	998.069538387948	0
4	437	998.744812864239	0
4	439	999.8027166863	1
4	440	1002.664749729316	1
4	441	1003.314927856508	0
4	443	1005.637083893272	0
4	444	1006.595808815459	0
4	448	1018.773414308077	0
4	450	1025.027607803656	0
4	452	1026.72492787685	0
4	453	1027.408682960973	0
4	458	1054.801043001804	0
4	459	1055.422155275555	0
4	461	1064.652973912992	0
4	462	1065.133784682723	0
4	470	1093.355992575201	0
4	471	1093.878743251041	0
4	473	1100.282182876396	0
4	474	1100.536502312519	0
4	476	1104.978036121906	0
4	480	1117.173070718869	0
4	482	1118.356984565768	0
4	488	1127.414208507312	1
4	490	1133.514281915121	2
4	493	1144.360864369609	3
4	495	1153.743269121947	3
4	497	1153.951718723298	3
4	498	1156.062421541446	3
4	500	1161.097070572118	3
4	501	1163.206399800966	3
4	502	1167.393994917115	2
4	503	1168.924675506132	1
4	507	1172.04226562065	1
4	510	1178.407903726891	2
4	511	1178.546855932247	2
4	512	1178.670761042567	1
4	513	1179.756817404071	0
4	515	1184.211304218178	0
4	517	1184.300423029734	1
4	519	1184.435390764814	2
4	521	1185.138503952723	3
4	525	1185.401070630046	4
4	528	1191.107114039485	5
4	530	1194.270322303708	6
4	531	1196.758061917071	6
4	532	1199.024629220834	5
4	533	1199.105592830415	4
4	535	1199.917749928224	4
4	536	1203.422357457145	4
4	537	1203.680948154535	3
4	538	1205.326648358006	2
4	542	1213.843503537328	1
4	544	1215.207056702361	1
4	545	1215.8589829024	1
4	547	1217.263576943163	1
4	548	1221.567049798418	1
4	549	1223.036261799041	0
4	553	1245.863388766485	0
4	555	1248.019726883956	0
4	560	1253.407346792082	0
4	562	1254.654480348304	1
4	563	1255.462508226806	1
4	564	1256.321717390836	0
4	566	1263.794569950446	0
4	567	1266.207586520171	0
4	572	1277.485357624897	0
4	573	1282.06239084179	0
4	575	1290.248085656458	0
4	576	1292.120678988668	0
4	580	1328.607576263913	0
4	582	1332.266115075993	1
4	584	1337.454591818334	1
4	588	1338.956184746402	0
4	593	1345.999171837684	0
4	594	1348.7851603479	0
4	596	1351.180955470854	0
4	597	1352.035524422843	0
4	599	1358.024277942655	0
4	600	1358.15540635672	0
4	604	1375.328048318735	0
4	606	1376.578224452794	1
4	611	1385.424457924955	2
4	613	1397.54595885299	2
4	614	1397.821605862961	1
4	616	1400.686626234377	1
4	623	1412.945932439393	2
4	625	1413.277010384735	3
4	627	1416.376025188469	3
4	628	1416.759402359658	2
4	629	1418.641404982848	1
4	631	1420.422398902746	1
4	632	1421.206754877572	1
4	634	1421.552048863122	1
4	635	1424.275643349518	1
4	636	1430.610768716449	0
4	643	1439.27524498052	0
4	645	1441.998615398113	1
4	647	1451.171346590062	1
4	648	1451.199970975906	0
4	650	1454.752516381548	0
4	651	1456.720220050011	0
4	653	1458.614725343514	0
4	654	1460.053491983428	0
4	659	1478.733427612972	0
4	660	1483.378425062131	0
4	662	1505.301943959205	0
4	664	1507.576092677335	1
4	665	1508.293963164989	1
4	669	1511.482009773886	0
4	671	1513.948258337622	0
4	672	1514.455556187818	0
4	674	1517.494098948675	0
4	675	1518.755639251334	0
4	677	1523.807210772095	0
4	678	1524.362827010655	0
4	680	1530.266107318484	0
4	681	1542.633444397813	0
4	683	1547.121827412251	0
4	684	1547.317466868668	0
4	686	1553.926200376688	0
4	687	1554.817612530375	0
4	689	1556.691645862258	0
4	696	1566.048321592974	1
4	698	1570.673925406355	1
4	699	1571.196799848366	0
4	701	1575.850548390337	0
4	705	1592.939572376582	1
4	708	1600.440615470523	2
4	709	1601.51103764643	2
4	710	1604.851215604167	1
4	712	1607.942529139216	1
4	716	1615.090090155686	1
4	717	1616.015318501983	0
4	719	1617.209974063659	0
4	720	1620.149642570006	0
4	722	1645.212310001142	0
4	723	1645.920370988316	0
4	725	1648.295608035408	0
4	726	1653.723451653163	0
4	728	1661.146836982142	0
4	729	1661.551994924481	0
4	731	1666.811507272016	0
4	733	1668.780869812961	1
4	735	1675.853363345013	2
4	739	1685.52198025974	3
4	742	1690.619515589583	4
4	746	1698.881351353874	5
4	748	1702.270853690546	6
4	753	1716.37700783904	6
4	755	1716.684891854079	6
4	756	1719.921219718488	6
4	757	1721.116483255037	5
4	758	1722.273242883762	4
4	759	1722.378991135509	3
4	760	1722.759649985384	2
4	761	1726.973331919079	1
4	765	1729.871136218525	0
4	770	1742.107707459114	0
4	771	1742.673392441829	0
4	778	1758.540050622779	0
4	780	1763.847708067724	1
4	782	1767.394836815643	2
4	784	1769.754296063747	3
4	788	1771.243760096415	4
4	796	1797.197225012532	5
4	798	1807.286711899146	6
4	800	1812.682840100208	7
4	802	1812.766270975972	8
4	805	1814.271161976253	9
4	807	1825.635548851779	9
4	811	1829.810402453992	9
4	813	1830.86100559469	10
4	815	1832.281876495791	10
4	816	1832.388029613818	9
4	817	1834.814800252856	8
4	819	1837.834111699134	8
4	820	1841.153048700635	8
4	821	1841.458390814746	7
4	822	1842.990214845752	6
4	823	1848.474521725535	5
4	824	1851.615326592043	4
4	825	1854.05735462891	3
4	826	1859.023737160455	2
4	827	1859.049330657549	1
4	828	1860.113966740514	0
4	830	1863.053869228857	0
4	831	1868.892583324656	0
4	842	1921.548888446662	0
4	843	1921.920990801206	0
4	845	1925.084728108583	0
4	846	1934.89515330516	0
4	857	1966.461828507534	0
4	858	1975.181165526379	0
4	860	1996.442726234962	0
4	861	1997.04890288553	0
4	863	1999.018505728651	0
4	864	2001.568927541266	0
4	869	2003.133855187522	0
4	870	2016.922297317794	0
4	872	2022.102208161922	0
4	873	2022.603894497161	0
4	875	2026.984715526444	0
4	876	2035.054264293641	0
4	878	2043.741429300996	0
4	879	2044.159312992128	0
4	890	2068.035895002599	0
4	891	2068.285921316346	0
4	893	2070.729528780533	0
4	894	2077.179649398567	0
4	896	2082.060564272508	0
4	897	2086.662054962911	0
4	899	2092.756536328325	0
4	900	2095.52091584045	0
4	902	2107.788762825608	0
4	906	2114.768624777807	0
4	908	2145.586000304457	0
4	909	2146.644679573771	0
4	911	2157.470008204503	0
4	912	2162.47052435722	0
4	917	2170.621603874021	0
4	918	2173.623240221206	0
4	920	2197.669224470044	0
4	922	2198.674373501187	1
4	923	2202.203047583873	1
4	924	2203.521367435583	0
4	926	2203.554715304965	0
4	927	2209.341765303259	0
4	929	2210.498316660967	0
4	931	2212.274921811409	1
4	932	2215.987741956594	1
4	933	2217.571656565023	0
4	935	2218.480584148708	0
4	939	2221.140883411738	0
4	941	2221.48183917862	0
4	943	2221.489280892939	1
4	945	2223.125972974633	2
4	946	2230.407493122993	2
4	950	2236.389947876967	1
4	954	2245.502411130971	0
4	956	2268.169216379668	0
4	957	2270.740383830004	0
4	959	2280.874800280286	0
4	960	2281.023771202284	0
4	965	2301.881038404028	0
4	967	2309.910991732672	1
4	968	2310.047472549318	1
4	970	2312.359914615875	1
4	974	2318.170158082466	2
4	978	2327.468414806708	3
4	981	2343.996904793849	4
4	983	2345.698755285626	4
4	984	2349.571730117662	3
4	986	2350.382606851478	3
4	987	2352.510042802374	3
4	988	2355.089796673378	2
4	989	2355.139837486754	1
4	990	2357.606305271335	0
4	992	2358.611579696822	0
4	993	2361.568843980956	0
4	995	2363.060537216027	0
4	996	2368.930138572118	0
4	998	2373.50460996526	0
4	999	2380.028487391332	0
4	1001	2381.039792987798	0
4	1002	2381.305832378245	0
4	1006	2386.087771682966	0
4	1008	2394.407798511697	1
4	1010	2394.729011251218	1
4	1011	2401.061042600616	0
4	1013	2404.565149470387	0
4	1014	2409.827472088654	0
4	1016	2422.495692925158	0
4	1018	2423.823415495132	1
4	1020	2424.472143381992	2
4	1021	2428.203645307742	2
4	1023	2430.129653405028	2
4	1024	2433.157709876582	2
4	1025	2434.982669249226	1
4	1027	2439.453006626528	1
4	1028	2440.831728494495	1
4	1029	2440.961691177789	0
4	1031	2446.289358719912	0
4	1035	2453.293347744151	1
4	1037	2458.70246381101	2
4	1039	2460.449554175474	3
4	1041	2464.794619718189	4
4	1043	2466.366369433583	5
4	1045	2468.591193853364	5
4	1046	2473.693521931209	4
4	1047	2473.814025889894	3
4	1049	2477.751206080727	3
4	1050	2477.790335742296	3
4	1051	2483.283582323131	2
4	1053	2487.907921574443	2
4	1055	2491.854625862879	3
4	1056	2492.077082402599	3
4	1057	2495.075839930083	2
4	1058	2497.950748728847	1
5	149	365.575308492821	15
5	157	382.946508293654	16
5	176	404.276389946108	17
5	177	405.006935791054	18
5	178	419.275195688762	19
5	181	435.809887776295	20
5	184	445.628900680959	21
5	205	470.839232010003	22
5	237	554.300963848064	23
5	258	609.792480695606	24
5	267	626.618074491789	25
5	270	638.160026031934	26
5	275	652.856528432178	27
5	302	711.347781484527	28
5	331	756.29523035537	29
5	340	771.578322893829	30
5	359	797.513537390766	31
5	360	805.885776125406	32
5	368	829.474892068113	33
5	399	918.654111906292	34
5	400	919.585106190569	35
5	421	975.229978357007	36
5	449	1019.488709704807	37
5	456	1051.281143205457	38
5	465	1078.891967146533	39
5	468	1082.022150807964	40
5	479	1115.964932657168	41
5	491	1140.373235873107	42
5	494	1153.162705943319	43
5	508	1175.129741466176	44
5	526	1188.350562856406	45
5	541	1213.064104941359	46
5	554	1248.003716861722	47
5	558	1252.885699313903	48
5	570	1269.555377825303	49
5	583	1336.106032504705	50
5	587	1338.875781941359	51
5	591	1342.823968581529	52
5	607	1379.766178042445	53
5	612	1391.597577848688	54
5	621	1408.87268628427	55
5	626	1413.822070654162	56
5	639	1436.001756712854	57
5	646	1448.784752349957	58
5	657	1469.783393339029	59
5	668	1508.72978908629	60
5	694	1561.314414566287	61
5	697	1568.596643309898	62
5	706	1594.068202921793	63
5	715	1612.720121330637	64
5	740	1689.619490671656	65
5	751	1709.324500286195	66
5	752	1716.235482001241	67
5	764	1728.906975241383	68
5	768	1737.243118932161	69
5	774	1748.77168056617	70
5	793	1776.54088315925	71
5	794	1781.230729617264	72
5	803	1813.615637933973	73
5	806	1822.135823548755	74
5	814	1832.146395573693	75
5	836	1891.559792659094	76
5	837	1893.616832370911	77
5	840	1909.593910802826	78
5	851	1946.881725636694	79
5	852	1950.690813928057	80
5	855	1963.133391629717	81
5	867	2002.442879386675	82
5	882	2056.840005750444	83
5	885	2059.558733156093	84
5	888	2065.120140711217	85
5	905	2113.115206572037	86
5	915	2169.463168429915	87
5	938	2220.371899915305	88
5	949	2233.636808480302	89
5	953	2244.256837545136	90
5	963	2288.934970773982	91
5	979	2332.984309474556	92
5	982	2344.692779951999	93
5	1009	2394.451104558786	94
5	1044	2468.257283412499	95
6	149	365.575308492821	5.011530542262
6	157	382.946508293654	13.123070797071
6	176	404.276389946108	28.895186409823
6	177	405.006935791054	20.446161354207
6	178	419.275195688762	31.939782379411
6	181	435.809887776295	43.58556712461
6	184	445.628900680959	18.714813218588
6	205	470.839232010003	9.381985608468
6	237	554.300963848064	0.863360089085
6	258	609.792480695606	5.472005013127
6	267	626.618074491789	22.178916340278
6	270	638.160026031934	21.433439639752
6	275	652.856528432178	14.594924139907
6	302	711.347781484527	6.644409111121
6	331	756.29523035537	1.353204691207
6	340	771.578322893829	10.012340097135
6	359	797.513537390766	7.504353020273
6	360	805.885776125406	14.943737855551
6	368	829.474892068113	0.155222324146
6	399	918.654111906292	26.316953236949
6	400	919.585106190569	16.893862943235
6	421	975.229978357007	33.542334047551
6	449	1019.488709704807	2.852508796097
6	456	1051.281143205457	11.291571502511
6	465	1078.891967146533	1.289033445564
6	468	1082.022150807964	0.19103188542
6	479	1115.964932657168	10.67155239138
6	491	1140.373235873107	19.063814535341
6	494	1153.162705943319	27.252802910467
6	508	1175.129741466176	3.968851328741
6	526	1188.350562856406	3.169101891063
6	541	1213.064104941359	1.577655517185
6	554	1248.003716861722	2.879231777292
6	558	1252.885699313903	1.711259069287
6	570	1269.555377825303	0.888015814604
6	583	1336.106032504705	14.963486655752
6	587	1338.875781941359	0.657658257289
6	591	1342.823968581529	1.264425919266
6	607	1379.766178042445	9.354889409154
6	612	1391.597577848688	11.181767460756
6	621	1408.87268628427	6.863624014697
6	626	1413.822070654162	9.778667684364
6	639	1436.001756712854	0.429626187616
6	646	1448.784752349957	11.469628917966
6	657	1469.783393339029	4.901525275129
6	668	1508.72978908629	0.344582123226
6	694	1561.314414566287	3.852177538507
6	697	1568.596643309898	10.778664415393
6	706	1594.068202921793	14.128024645807
6	715	1612.720121330637	4.381825721363
6	740	1689.619490671656	9.489851397009
6	751	1709.324500286195	17.096135303571
6	752	1716.235482001241	12.470925571948
6	764	1728.906975241383	0.536967660701
6	768	1737.243118932161	6.028643728718
6	774	1748.77168056617	5.295609208267
6	793	1776.54088315925	22.334546015093
6	794	1781.230729617264	11.135220196752
6	803	1813.615637933973	39.889508129687
6	806	1822.135823548755	46.010608646177
6	814	1832.146395573693	3.0942852967
6	836	1891.559792659094	4.979226061725
6	837	1893.616832370911	5.595318154515
6	840	1909.593910802826	4.178513910531
6	851	1946.881725636694	11.938302030971
6	852	1950.690813928057	11.845696364529
6	855	1963.133391629717	0.493536398506
6	867	2002.442879386675	0.329666861308
6	882	2056.840005750444	3.401438864819
6	885	2059.558733156093	1.637921729168
6	888	2065.120140711217	0.544464073287
6	905	2113.115206572037	4.853465964044
6	915	2169.463168429915	2.885498067649
6	938	2220.371899915305	0.282317992414
6	949	2233.636808480302	0.547366308962
6	953	2244.256837545136	0.045133155385
6	963	2288.934970773982	2.571463017238
6	979	2332.984309474556	19.312862041116
6	982	2344.692779951999	20.493656756474
6	1009	2394.451104558786	8.488107177919
6	1044	2468.257283412499	17.685758371629
7	149	365.575308492821	4.321436244573
7	184	445.628900680959	63.595330692712
7	191	456.170925745809	70.076091789355
7	194	458.948925721205	72.300964581551
7	205	470.839232010003	81.722016486863
7	206	475.081571888702	82.855161373687
7	211	485.126931959017	92.219784307181
7	212	486.836814243879	90.474542302549
7	213	490.312452722093	53.280624174107
7	214	494.462069462948	46.144057567571
7	215	497.37445364732	47.688437744954
7	216	503.472256396075	50.210658269111
7	217	507.043840585276	49.894233230487
7	218	509.237426361713	50.070294219891
7	221	514.306294478046	54.403312157474
7	222	524.183957173995	62.72671077246
7	223	524.494260943112	58.78901415752
7	224	526.140446162208	57.889244936189
7	225	531.839544467306	56.017037159034
7	228	538.130973702044	57.305736230422
7	233	552.466626505212	42.600023740716
7	234	552.852767893436	20.338568699716
7	237	554.300963848064	14.578954127176
7	238	554.590198264278	10.629938119494
7	241	557.167008700216	3.729404941237
7	242	557.232792863809	2.077096352348
7	245	596.98708789577	0
7	270	638.160026031934	39.875180965218
7	275	652.856528432178	54.280154373205
7	276	656.526313549233	53.90570892461
7	277	657.348980366242	53.028504683763
7	278	660.200152244792	53.245765711982
7	279	667.1024073184	56.939702768308
7	280	676.178785702442	61.220245246919
7	289	688.551857540555	65.14559269366
7	296	702.352449222806	64.500162245404
7	297	703.070761338795	64.809157046524
7	302	711.347781484527	62.703847077572
7	303	715.224185090299	38.643530605734
7	304	716.199092048478	36.304455769238
7	305	719.249969466318	35.503269147524
7	310	726.483522303716	41.151706553843
7	311	732.018496773238	41.021959808437
7	316	740.304448105033	48.099668378311
7	317	740.471837934118	45.117954090874
7	320	745.441722101032	40.738349727626
7	321	746.070968434232	39.772428070797
7	322	749.109389536809	26.663535574453
7	323	750.60048758774	27.495853420696
7	324	750.871504286139	17.599160341356
7	327	753.051141297211	13.253410827839
7	328	753.661669982322	13.152307301
7	331	756.29523035537	5.322709022952
7	332	758.292794556393	3.35076889223
7	335	760.312898007193	0.085939853463
7	340	771.578322893829	10.012340097135
7	341	772.725321537939	11.013226380672
7	344	777.587614563966	0
7	347	789.201234791078	0
7	350	789.729758644954	0.203207625487
7	360	805.885776125406	16.024287491725
7	361	813.907330068428	23.898145697935
7	362	815.629600344949	19.690196583704
7	365	822.781383024379	3.239146612633
7	368	829.474892068113	0.155222324146
7	371	836.411483690156	1.254550144895
7	374	837.724076214384	0
7	377	882.462444236032	0
7	380	890.900647318088	0
7	400	919.585106190569	27.247947521226
7	401	919.894625728431	20.224130502922
7	402	924.149948373818	21.451402289212
7	405	925.345409735152	22.24996752143
7	408	934.420694282776	29.330832780704
7	409	935.753837625861	24.750433589082
7	410	935.894727517137	20.20396694056
7	421	975.229978357007	57.454543620284
7	424	978.875641052669	54.662084162521
7	425	979.028930226812	44.952112690613
7	426	982.585841005506	45.625776706123
7	427	983.238475881529	43.853646782109
7	428	985.406148059492	43.718503750036
7	431	994.784730689248	36.872595835413
7	432	995.933172128853	36.384428461289
7	433	996.123988412839	17.886382617419
7	434	997.931867719596	12.012444160949
7	437	998.744812864239	0
7	440	1002.664749729316	2.862033043016
7	443	1005.637083893272	0
7	449	1019.488709704807	0.71529539673
7	452	1026.72492787685	0
7	458	1054.801043001804	0
7	461	1064.652973912992	0
7	470	1093.355992575201	0
7	473	1100.282182876396	0
7	476	1104.978036121906	0
7	479	1115.964932657168	10.67155239138
7	482	1118.356984565768	0
7	494	1153.162705943319	31.853284605553
7	495	1153.743269121947	26.329060614635
7	498	1156.062421541446	22.548139626325
7	501	1163.206399800966	18.845535431357
7	502	1167.393994917115	13.442276193817
7	503	1168.924675506132	7.827604934014
7	508	1175.129741466176	3.968851328741
7	511	1178.546855932247	6.504590311597
7	512	1178.670761042567	0.262857315676
7	515	1184.211304218178	0
7	526	1188.350562856406	4.050139826672
7	531	1196.758061917071	12.322671152257
7	532	1199.024629220834	13.886125268111
7	533	1199.105592830415	13.924131865072
7	536	1203.422357457145	18.021286827099
7	537	1203.680948154535	12.57383411505
7	538	1205.326648358006	11.056326054298
7	541	1213.064104941359	13.146355013135
7	542	1213.843503537328	2.357054113154
7	545	1215.8589829024	0.651926200039
7	548	1221.567049798418	4.303472855255
7	554	1248.003716861722	2.140328095237
7	560	1253.407346792082	0
7	563	1255.462508226806	0.808027878502
7	566	1263.794569950446	0
7	572	1277.485357624897	0
7	575	1290.248085656458	0
7	583	1336.106032504705	7.498456240792
7	584	1337.454591818334	5.188476742341
7	587	1338.875781941359	0.657658257289
7	593	1345.999171837684	0
7	596	1351.180955470854	0
7	599	1358.024277942655	0
7	607	1379.766178042445	4.43812972371
7	612	1391.597577848688	15.019353395894
7	613	1397.54595885299	17.130148465058
7	614	1397.821605862961	12.397147938006
7	626	1413.822070654162	13.135444419785
7	627	1416.376025188469	14.366962918896
7	628	1416.759402359658	3.813469920265
7	629	1418.641404982848	5.364394598113
7	632	1421.206754877572	0.784355974826
7	635	1424.275643349518	2.723594486396
7	646	1448.784752349957	9.509507369437
7	647	1451.171346590062	9.172731191949
7	650	1454.752516381548	0
7	653	1458.614725343514	0
7	659	1478.733427612972	0
7	662	1505.301943959205	0
7	665	1508.293963164989	0.717870487654
7	668	1508.72978908629	0.344582123226
7	671	1513.948258337622	0
7	674	1517.494098948675	0
7	677	1523.807210772095	0
7	680	1530.266107318484	0
7	683	1547.121827412251	0
7	686	1553.926200376688	0
7	689	1556.691645862258	0
7	697	1568.596643309898	11.134406282118
7	698	1570.673925406355	4.625603813381
7	701	1575.850548390337	0
7	706	1594.068202921793	14.128024645807
7	709	1601.51103764643	8.571465269848
7	710	1604.851215604167	4.410600133644
7	715	1612.720121330637	4.777592191421
7	716	1615.090090155686	6.751794546412
7	719	1617.209974063659	0
7	722	1645.212310001142	0
7	725	1648.295608035408	0
7	728	1661.146836982142	0
7	731	1666.811507272016	0
7	740	1689.619490671656	20.838620858695
7	752	1716.235482001241	40.382118656228
7	753	1716.37700783904	36.247368564393
7	756	1719.921219718488	34.399239458748
7	757	1721.116483255037	30.496967665454
7	758	1722.273242883762	30.044877901138
7	759	1722.378991135509	23.497639781635
7	760	1722.759649985384	20.488796294838
7	761	1726.973331919079	10.288440065
7	764	1728.906975241383	0.536967660701
7	770	1742.107707459114	0
7	806	1822.135823548755	63.595772925976
7	807	1825.635548851779	61.787840784055
7	814	1832.146395573693	64.75155875805
7	815	1832.281876495791	62.527580432044
7	816	1832.388029613818	61.144269517403
7	817	1834.814800252856	37.617575240324
7	820	1841.153048700635	33.866336801489
7	821	1841.458390814746	28.775550714538
7	822	1842.990214845752	30.22394386978
7	823	1848.474521725535	34.203359749282
7	824	1851.615326592043	22.56321631505
7	825	1854.05735462891	24.246952174918
7	826	1859.023737160455	28.162731565765
7	827	1859.049330657549	21.215218958415
7	830	1863.053869228857	0
7	842	1921.548888446662	0
7	845	1925.084728108583	0
7	857	1966.461828507534	0
7	860	1996.442726234962	0
7	863	1999.018505728651	0
7	869	2003.133855187522	0
7	872	2022.102208161922	0
7	875	2026.984715526444	0
7	878	2043.741429300996	0
7	890	2068.035895002599	0
7	893	2070.729528780533	0
7	896	2082.060564272508	0
7	899	2092.756536328325	0
7	902	2107.788762825608	0
7	905	2113.115206572037	4.853465964044
7	908	2145.586000304457	0
7	911	2157.470008204503	0
7	917	2170.621603874021	0
7	920	2197.669224470044	0
7	923	2202.203047583873	3.528674082686
7	926	2203.554715304965	0
7	929	2210.498316660967	0
7	932	2215.987741956594	3.712820145185
7	935	2218.480584148708	0
7	938	2220.371899915305	0.282317992414
7	941	2221.48183917862	0
7	946	2230.407493122993	8.918212230054
7	949	2233.636808480302	10.510835505669
7	950	2236.389947876967	3.300505705627
7	953	2244.256837545136	0.045133155385
7	956	2268.169216379668	0
7	959	2280.874800280286	0
7	965	2301.881038404028	0
7	968	2310.047472549318	0.136480816646
7	982	2344.692779951999	32.332865336124
7	983	2345.698755285626	32.027307852186
7	984	2349.571730117662	31.401572035196
7	987	2352.510042802374	25.041627995666
7	988	2355.089796673378	11.092891879529
7	989	2355.139837486754	4.757230635276
7	992	2358.611579696822	0
7	995	2363.060537216027	0
7	998	2373.50460996526	0
7	1001	2381.039792987798	0
7	1009	2394.451104558786	8.36333287582
7	1010	2394.729011251218	0.321212739521
7	1013	2404.565149470387	0
7	1016	2422.495692925158	0
7	1021	2428.203645307742	4.38022981261
7	1024	2433.157709876582	8.68556649459
7	1025	2434.982669249226	4.853015844198
7	1028	2440.831728494495	1.378721867967
7	1031	2446.289358719912	0
7	1044	2468.257283412499	17.685758371629
7	1045	2468.591193853364	15.297846109213
7	1046	2473.693521931209	14.991058120199
7	1047	2473.814025889894	13.36447171442
7	1050	2477.790335742296	12.995716024107
7	1051	2483.283582323131	16.917212889548
7	1056	2492.077082402599	14.325876321872
7	1057	2495.075839930083	7.16791835564
7	1058	2497.950748728847	6.096122865968
8	150	369.422891524101	35
8	191	456.170925745809	36
8	194	458.948925721205	37
8	206	475.081571888702	38
8	211	485.126931959017	39
8	212	486.836814243879	40
8	213	490.312452722093	41
8	214	494.462069462948	42
8	215	497.37445364732	43
8	216	503.472256396075	44
8	217	507.043840585276	45
8	218	509.237426361713	46
8	221	514.306294478046	47
8	222	524.183957173995	48
8	223	524.494260943112	49
8	224	526.140446162208	50
8	225	531.839544467306	51
8	228	538.130973702044	52
8	233	552.466626505212	53
8	234	552.852767893436	54
8	238	554.590198264278	55
8	241	557.167008700216	56
8	242	557.232792863809	57
8	243	557.478030794655	58
8	276	656.526313549233	59
8	277	657.348980366242	60
8	278	660.200152244792	61
8	279	667.1024073184	62
8	280	676.178785702442	63
8	289	688.551857540555	64
8	296	702.352449222806	65
8	297	703.070761338795	66
8	303	715.224185090299	67
8	304	716.199092048478	68
8	305	719.249969466318	69
8	310	726.483522303716	70
8	311	732.018496773238	71
8	316	740.304448105033	72
8	317	740.471837934118	73
8	320	745.441722101032	74
8	321	746.070968434232	75
8	322	749.109389536809	76
8	323	750.60048758774	77
8	324	750.871504286139	78
8	327	753.051141297211	79
8	328	753.661669982322	80
8	332	758.292794556393	81
8	335	760.312898007193	82
8	341	772.725321537939	83
8	342	775.878196655758	84
8	345	779.862747253911	85
8	350	789.729758644954	86
8	361	813.907330068428	87
8	362	815.629600344949	88
8	365	822.781383024379	89
8	371	836.411483690156	90
8	372	837.137612597073	91
8	375	847.018405453389	92
8	378	886.535422458563	93
8	401	919.894625728431	94
8	402	924.149948373818	95
8	405	925.345409735152	96
8	408	934.420694282776	97
8	409	935.753837625861	98
8	410	935.894727517137	99
8	424	978.875641052669	100
8	425	979.028930226812	101
8	426	982.585841005506	102
8	427	983.238475881529	103
8	428	985.406148059492	104
8	431	994.784730689248	105
8	432	995.933172128853	106
8	433	996.123988412839	107
8	434	997.931867719596	108
8	435	998.069538387948	109
8	440	1002.664749729316	110
8	441	1003.314927856508	111
8	444	1006.595808815459	112
8	450	1025.027607803656	113
8	453	1027.408682960973	114
8	459	1055.422155275555	115
8	462	1065.133784682723	116
8	471	1093.878743251041	117
8	474	1100.536502312519	118
8	480	1117.173070718869	119
8	495	1153.743269121947	120
8	498	1156.062421541446	121
8	501	1163.206399800966	122
8	502	1167.393994917115	123
8	503	1168.924675506132	124
8	511	1178.546855932247	125
8	512	1178.670761042567	126
8	513	1179.756817404071	127
8	531	1196.758061917071	128
8	532	1199.024629220834	129
8	533	1199.105592830415	130
8	536	1203.422357457145	131
8	537	1203.680948154535	132
8	538	1205.326648358006	133
8	542	1213.843503537328	134
8	545	1215.8589829024	135
8	548	1221.567049798418	136
8	549	1223.036261799041	137
8	555	1248.019726883956	138
8	563	1255.462508226806	139
8	564	1256.321717390836	140
8	567	1266.207586520171	141
8	573	1282.06239084179	142
8	576	1292.120678988668	143
8	584	1337.454591818334	144
8	588	1338.956184746402	145
8	594	1348.7851603479	146
8	597	1352.035524422843	147
8	600	1358.15540635672	148
8	613	1397.54595885299	149
8	614	1397.821605862961	150
8	627	1416.376025188469	151
8	628	1416.759402359658	152
8	629	1418.641404982848	153
8	632	1421.206754877572	154
8	635	1424.275643349518	155
8	636	1430.610768716449	156
8	647	1451.171346590062	157
8	648	1451.199970975906	158
8	651	1456.720220050011	159
8	654	1460.053491983428	160
8	660	1483.378425062131	161
8	665	1508.293963164989	162
8	669	1511.482009773886	163
8	672	1514.455556187818	164
8	675	1518.755639251334	165
8	678	1524.362827010655	166
8	681	1542.633444397813	167
8	684	1547.317466868668	168
8	687	1554.817612530375	169
8	698	1570.673925406355	170
8	699	1571.196799848366	171
8	709	1601.51103764643	172
8	710	1604.851215604167	173
8	716	1615.090090155686	174
8	717	1616.015318501983	175
8	720	1620.149642570006	176
8	723	1645.920370988316	177
8	726	1653.723451653163	178
8	729	1661.551994924481	179
8	753	1716.37700783904	180
8	756	1719.921219718488	181
8	757	1721.116483255037	182
8	758	1722.273242883762	183
8	759	1722.378991135509	184
8	760	1722.759649985384	185
8	761	1726.973331919079	186
8	765	1729.871136218525	187
8	771	1742.673392441829	188
8	807	1825.635548851779	189
8	815	1832.281876495791	190
8	816	1832.388029613818	191
8	817	1834.814800252856	192
8	820	1841.153048700635	193
8	821	1841.458390814746	194
8	822	1842.990214845752	195
8	823	1848.474521725535	196
8	824	1851.615326592043	197
8	825	1854.05735462891	198
8	826	1859.023737160455	199
8	827	1859.049330657549	200
8	828	1860.113966740514	201
8	831	1868.892583324656	202
8	843	1921.920990801206	203
8	846	1934.89515330516	204
8	858	1975.181165526379	205
8	861	1997.04890288553	206
8	864	2001.568927541266	207
8	870	2016.922297317794	208
8	873	2022.603894497161	209
8	876	2035.054264293641	210
8	879	2044.159312992128	211
8	891	2068.285921316346	212
8	894	2077.179649398567	213
8	897	2086.662054962911	214
8	900	2095.52091584045	215
8	906	2114.768624777807	216
8	909	2146.644679573771	217
8	912	2162.47052435722	218
8	918	2173.623240221206	219
8	923	2202.203047583873	220
8	924	2203.521367435583	221
8	927	2209.341765303259	222
8	932	2215.987741956594	223
8	933	2217.571656565023	224
8	939	2221.140883411738	225
8	946	2230.407493122993	226
8	950	2236.389947876967	227
8	954	2245.502411130971	228
8	957	2270.740383830004	229
8	960	2281.023771202284	230
8	968	2310.047472549318	231
8	983	2345.698755285626	232
8	984	2349.571730117662	233
8	987	2352.510042802374	234
8	988	2355.089796673378	235
8	989	2355.139837486754	236
8	990	2357.606305271335	237
8	993	2361.568843980956	238
8	996	2368.930138572118	239
8	999	2380.028487391332	240
8	1002	2381.305832378245	241
8	1010	2394.729011251218	242
8	1011	2401.061042600616	243
8	1014	2409.827472088654	244
8	1021	2428.203645307742	245
8	1024	2433.157709876582	246
8	1025	2434.982669249226	247
8	1028	2440.831728494495	248
8	1029	2440.961691177789	249
8	1045	2468.591193853364	250
8	1046	2473.693521931209	251
8	1047	2473.814025889894	252
8	1050	2477.790335742296	253
8	1051	2483.283582323131	254
8	1056	2492.077082402599	255
8	1057	2495.075839930083	256
8	1058	2497.950748728847	257
9	150	369.422891524101	8.169019275853
9	191	456.170925745809	74.137355757562
9	194	458.948925721205	72.854091764751
9	206	475.081571888702	85.964356365562
9	211	485.126931959017	92.900521444002
9	212	486.836814243879	93.929666592043
9	213	490.312452722093	93.950180780763
9	214	494.462069462948	57.430240914962
9	215	497.37445364732	49.056441751943
9	216	503.472256396075	53.786240493709
9	217	507.043840585276	53.782242458312
9	218	509.237426361713	52.087819006924
9	221	514.306294478046	55.139162336224
9	222	524.183957173995	64.280974853423
9	223	524.494260943112	63.037014541577
9	224	526.140446162208	60.435199376616
9	225	531.839544467306	63.588343241287
9	228	538.130973702044	62.308466393772
9	233	552.466626505212	71.64138903359
9	234	552.852767893436	42.98616512894
9	238	554.590198264278	14.86818854339
9	241	557.167008700216	13.206748555432
9	242	557.232792863809	3.79518910483
9	243	557.478030794655	2.322334283194
9	276	656.526313549233	57.94993949026
9	277	657.348980366242	54.728375741619
9	278	660.200152244792	55.879676562313
9	279	667.1024073184	60.14802078559
9	280	676.178785702442	66.01608115235
9	289	688.551857540555	73.593317085032
9	296	702.352449222806	78.946184375911
9	297	703.070761338795	65.218474361393
9	303	715.224185090299	66.580250683344
9	304	716.199092048478	39.618437563913
9	305	719.249969466318	39.355333187078
9	310	726.483522303716	42.736821984922
9	311	732.018496773238	46.686681023365
9	316	740.304448105033	49.307911140232
9	317	740.471837934118	48.267058207396
9	320	745.441722101032	50.087838257788
9	321	746.070968434232	41.367596060826
9	322	749.109389536809	42.810849173374
9	323	750.60048758774	28.154633625384
9	324	750.871504286139	27.766870119095
9	327	753.051141297211	19.778797352428
9	328	753.661669982322	13.86393951295
9	332	758.292794556393	7.320273223975
9	335	760.312898007193	5.37087234303
9	341	772.725321537939	11.159338741245
9	342	775.878196655758	14.166101498491
9	345	779.862747253911	2.275132689945
9	350	789.729758644954	0.528523853876
9	361	813.907330068428	24.045841434747
9	362	815.629600344949	25.620415974456
9	365	822.781383024379	26.841979263134
9	371	836.411483690156	7.091813946189
9	372	837.137612597073	1.980679051812
9	375	847.018405453389	9.294329239005
9	378	886.535422458563	4.072978222531
9	401	919.894625728431	27.557467059088
9	402	924.149948373818	24.479453148309
9	405	925.345409735152	22.646863650546
9	408	934.420694282776	31.325252069054
9	409	935.753837625861	30.663976123789
9	410	935.894727517137	24.891323480358
9	424	978.875641052669	61.100206315946
9	425	979.028930226812	54.815373336664
9	426	982.585841005506	48.509023469307
9	427	983.238475881529	46.278411582146
9	428	985.406148059492	46.021318960072
9	431	994.784730689248	53.097086379792
9	432	995.933172128853	38.021037275018
9	433	996.123988412839	36.575244745275
9	434	997.931867719596	19.694261924176
9	435	998.069538387948	12.150114829301
9	440	1002.664749729316	3.919936865077
9	441	1003.314927856508	3.512211170208
9	444	1006.595808815459	0.958724922187
9	450	1025.027607803656	6.254193495579
9	453	1027.408682960973	0.683755084123
9	459	1055.422155275555	0.621112273751
9	462	1065.133784682723	0.480810769731
9	471	1093.878743251041	0.52275067584
9	474	1100.536502312519	0.254319436123
9	480	1117.173070718869	11.879690453081
9	495	1153.743269121947	32.433847784181
9	498	1156.062421541446	28.648213034134
9	501	1163.206399800966	29.692117885845
9	502	1167.393994917115	23.033130547506
9	503	1168.924675506132	14.972956782834
9	511	1178.546855932247	7.385965794812
9	512	1178.670761042567	6.628495421917
9	513	1179.756817404071	1.34891367718
9	531	1196.758061917071	12.457638887337
9	532	1199.024629220834	14.58923845602
9	533	1199.105592830415	13.967088877692
9	536	1203.422357457145	18.240896491802
9	537	1203.680948154535	18.279877524489
9	538	1205.326648358006	14.219534318521
9	542	1213.843503537328	13.925753609104
9	545	1215.8589829024	4.372533478226
9	548	1221.567049798418	6.359993096057
9	549	1223.036261799041	5.772684855878
9	555	1248.019726883956	2.156338117471
9	563	1255.462508226806	2.055161434724
9	564	1256.321717390836	1.667237042532
9	567	1266.207586520171	2.413016569725
9	573	1282.06239084179	4.577033216893
9	576	1292.120678988668	1.87259333221
9	584	1337.454591818334	8.847015554421
9	588	1338.956184746402	0.738061062332
9	594	1348.7851603479	2.785988510216
9	597	1352.035524422843	0.854568951989
9	600	1358.15540635672	0.131128414065
9	613	1397.54595885299	20.967734400196
9	614	1397.821605862961	17.405795475029
9	627	1416.376025188469	15.689398954092
9	628	1416.759402359658	14.750340090085
9	629	1418.641404982848	5.695472543455
9	632	1421.206754877572	7.929744492837
9	635	1424.275643349518	3.853244446772
9	636	1430.610768716449	9.058719853327
9	647	1451.171346590062	11.896101609542
9	648	1451.199970975906	9.201355577793
9	651	1456.720220050011	1.967703668463
9	654	1460.053491983428	1.438766639914
9	660	1483.378425062131	4.644997449159
9	665	1508.293963164989	2.992019205784
9	669	1511.482009773886	3.096802810822
9	672	1514.455556187818	0.507297850196
9	675	1518.755639251334	1.261540302659
9	678	1524.362827010655	0.55561623856
9	681	1542.633444397813	12.367337079329
9	684	1547.317466868668	0.195639456417
9	687	1554.817612530375	0.891412153687
9	698	1570.673925406355	13.211688378575
9	699	1571.196799848366	5.148478255392
9	709	1601.51103764643	21.570859370444
9	710	1604.851215604167	11.911643227585
9	716	1615.090090155686	7.14756101647
9	717	1616.015318501983	7.677022892709
9	720	1620.149642570006	2.939668506347
9	723	1645.920370988316	0.708060987174
9	726	1653.723451653163	5.427843617755
9	729	1661.551994924481	0.405157942339
9	753	1716.37700783904	40.523644494027
9	756	1719.921219718488	39.791580443841
9	757	1721.116483255037	35.594502995297
9	758	1722.273242883762	31.653727294179
9	759	1722.378991135509	30.150626152885
9	760	1722.759649985384	23.87829863151
9	761	1726.973331919079	24.702478228533
9	765	1729.871136218525	1.501128637843
9	771	1742.673392441829	0.565684982715
9	807	1825.635548851779	67.095498229
9	815	1832.281876495791	64.887039680148
9	816	1832.388029613818	62.633733550071
9	817	1834.814800252856	63.571040156441
9	820	1841.153048700635	43.955823688103
9	821	1841.458390814746	34.1716789156
9	822	1842.990214845752	30.307374745544
9	823	1848.474521725535	35.708250749563
9	824	1851.615326592043	37.34416461579
9	825	1854.05735462891	25.005244351917
9	826	1859.023737160455	29.213334706463
9	827	1859.049330657549	28.188325062859
9	828	1860.113966740514	22.27985504138
9	831	1868.892583324656	5.838714095799
9	843	1921.920990801206	0.372102354544
9	846	1934.89515330516	9.810425196577
9	858	1975.181165526379	8.719337018845
9	861	1997.04890288553	0.606176650568
9	864	2001.568927541266	2.550421812615
9	870	2016.922297317794	13.788442130272
9	873	2022.603894497161	0.501686335239
9	876	2035.054264293641	8.069548767197
9	879	2044.159312992128	0.417883691132
9	891	2068.285921316346	0.250026313747
9	894	2077.179649398567	6.450120618034
9	897	2086.662054962911	4.601490690403
9	900	2095.52091584045	2.764379512125
9	906	2114.768624777807	6.506884169814
9	909	2146.644679573771	1.058679269314
9	912	2162.47052435722	5.000516152717
9	918	2173.623240221206	3.001636347185
9	923	2202.203047583873	4.533823113829
9	924	2203.521367435583	4.846993934396
9	927	2209.341765303259	5.787049998294
9	932	2215.987741956594	5.489425295627
9	933	2217.571656565023	5.296734753614
9	939	2221.140883411738	1.051301488847
9	946	2230.407493122993	8.925653944373
9	950	2236.389947876967	13.263974902334
9	954	2245.502411130971	1.29070674122
9	957	2270.740383830004	2.571167450336
9	960	2281.023771202284	0.148970921998
9	968	2310.047472549318	8.16643414529
9	983	2345.698755285626	33.338840669751
9	984	2349.571730117662	35.900282684222
9	987	2352.510042802374	34.339884719908
9	988	2355.089796673378	27.62138186667
9	989	2355.139837486754	11.142932692905
9	990	2357.606305271335	7.223698419857
9	993	2361.568843980956	2.957264284134
9	996	2368.930138572118	5.869601356091
9	999	2380.028487391332	6.523877426072
9	1002	2381.305832378245	0.266039390447
9	1010	2394.729011251218	8.641239568252
9	1011	2401.061042600616	6.653244088919
9	1014	2409.827472088654	5.262322618267
9	1021	2428.203645307742	5.707952382584
9	1024	2433.157709876582	9.33429438145
9	1025	2434.982669249226	10.510525867234
9	1028	2440.831728494495	10.702075089467
9	1029	2440.961691177789	1.508684551261
9	1045	2468.591193853364	18.019668812494
9	1046	2473.693521931209	20.400174187058
9	1047	2473.814025889894	15.111562078884
9	1050	2477.790335742296	17.340781566822
9	1051	2483.283582323131	18.488962604942
9	1056	2492.077082402599	25.710712969016
9	1057	2495.075839930083	17.324633849356
9	1058	2497.950748728847	10.042827154404
10	200	461.457246401535	8
10	236	553.437603758979	9
10	253	604.320475682479	10
10	272	638.261604292271	11
10	299	704.703372373406	12
10	330	754.942025664163	13
10	337	761.565982796694	14
10	354	790.009184370493	15
10	367	829.319669743967	16
10	382	892.337158669343	17
10	416	941.687644309456	18
10	478	1105.293380265788	19
10	484	1121.309421337766	20
10	505	1171.160890137435	21
10	523	1185.181460965343	22
10	540	1211.486449424174	23
10	586	1338.21812368407	24
10	609	1380.415810387932	25
10	618	1402.009062269573	26
10	667	1508.385206963064	27
10	691	1557.46223702778	28
10	703	1579.940178275986	29
10	714	1608.338295609274	30
10	737	1680.129639274647	31
10	744	1692.228364982624	32
10	763	1728.370007580682	33
10	809	1829.052110276993	34
10	904	2108.261740607993	35
10	937	2220.089581922891	36
10	948	2233.08944217134	37
10	952	2244.211704389751	38
10	972	2313.67144743344	39
10	1033	2450.57152504087	40
11	1059	2500	0.1028
12	1059	2500	0.038

