file 39575 1677940362                                           
version 2
run analysis_2kr_easy_game_mode-101-20230304-15:32:42-20714
attr configname analysis_2kr_easy_game_mode
attr datetime 20230304-15:32:42
attr experiment analysis_2kr_easy_game_mode
attr inifile omnetpp.ini
attr iterationvars "$0=30, $1=5, $2=15, $3=1, $4=0"
attr iterationvarsf 30,5,15,1,0-
attr measurement "$0=30, $1=5, $2=15, $3=1, $4=0"
attr network Network
attr processid 20714
attr repetition 1
attr replication #1
attr resultdir results
attr runnumber 101
attr seedset 1
param *.boss.arrival_mean 30
param *.boss.service_mean 5
param *.minion.arrival_mean 15
param *.minion.service_mean 1
param *.player.recover_rate_x 0
param **.minion.arrival_distribution 0
param **.minion.service_distribution 0
param **.boss.arrival_distribution 0
param **.boss.service_distribution 0

vector 0 Network.player minion_jobs_number_stat:vector ETV
attr source signal_minion_jobs_number
vector 1 Network.player minion_jobs_queue_number_stat:vector ETV
attr source signal_minion_jobs_queue_number
vector 2 Network.player minion_waiting_time_stat:vector ETV
attr source signal_minion_waiting_time
vector 3 Network.player boss_jobs_number_stat:vector ETV
attr source signal_boss_jobs_number
vector 4 Network.player boss_jobs_queue_number_stat:vector ETV
attr source signal_boss_jobs_queue_number
vector 5 Network.player minion_recovered_stat:vector ETV
attr source signal_minion_recovered
vector 6 Network.player boss_waiting_time_stat:vector ETV
attr source signal_boss_waiting_time
vector 7 Network.player boss_defeated_stat:vector ETV
attr source signal_boss_defeated
vector 8 Network.player boss_response_time_stat:vector ETV
attr source signal_boss_response_time
vector 9 Network.player minion_defeated_stat:vector ETV
attr source signal_minion_defeated
vector 10 Network.player minion_response_time_stat:vector ETV
attr source signal_minion_response_time
vector 11 Network.player minion_throughput:vector ETV
attr source signal_minion_throughput
vector 12 Network.player boss_throughput:vector ETV
attr source signal_boss_throughput
0	2036 3945 80 731 371.428454236413 2486.563364433927 154 1 3 178 234
1	5981 7890 80 732 371.428454236413 2487.046913895316 308 0 2 48 64
2	13871 4563 80 731 371.428454236413 2486.563364433927 157 0 14.656517961524 122.92332328388 898.05464010604
3	18434 1636 82 728 372.807283725043 2468.811627233916 64 1 2 68 76
4	20070 3270 82 729 372.807283725043 2476.130691154245 128 0 1 8 8
5	23340 75 82 694 372.807283725043 2337.747266007813 3 1 3 6 14
6	23415 1689 82 728 372.807283725043 2468.811627233916 64 0 10.192033142401 17.227249302292 133.22819582025
7	25104 1698 83 729 374.6482225898 2476.130691154245 64 10 73 2656 132064
8	26802 2470 83 729 374.6482225898 2476.130691154245 64 0.080191438015 19.720973196564 302.40798899034 2661.9612497047
9	29272 4171 84 732 377.960222727739 2487.046913895316 154 18 171 14553 1679601
10	33443 6093 84 732 377.960222727739 2487.046913895316 154 0.002216670229 15.376619347036 277.70170321627 1411.7315767564
11	39536 19 733 733 2500 2500 1 0.0684 0.0684 0.0684 0.00467856
12	39555 19 733 733 2500 2500 1 0.0292 0.0292 0.0292 0.00085264

