version 2
run factors_calibration_recover_rate-131-20230304-08:58:55-6932
attr configname factors_calibration_recover_rate
attr datetime 20230304-08:58:55
attr experiment factors_calibration_recover_rate
attr inifile omnetpp.ini
attr iterationvars $0=100
attr iterationvarsf 100-
attr measurement $0=100
attr network Network
attr processid 6932
attr repetition 11
attr replication #11
attr resultdir results
attr runnumber 131
attr seedset 11
param *.minion.arrival_mean 5
param *.minion.service_mean 2
param *.boss.arrival_mean 10
param *.boss.service_mean 3
param *.player.recover_rate_x 100
param **.minion.arrival_distribution 0
param **.minion.service_distribution 0
param **.boss.arrival_distribution 0
param **.boss.service_distribution 0

vector 0 Network.player boss_defeated_stat:vector ETV
attr source signal_boss_defeated
vector 1 Network.player boss_jobs_queue_number_stat:vector ETV
attr source signal_boss_jobs_queue_number
vector 2 Network.player boss_response_time_stat:vector ETV
attr source signal_boss_response_time
vector 3 Network.player minion_waiting_time_stat:vector ETV
attr source signal_minion_waiting_time
vector 4 Network.player minion_defeated_stat:vector ETV
attr source signal_minion_defeated
vector 5 Network.player minion_jobs_queue_number_stat:vector ETV
attr source signal_minion_jobs_queue_number
vector 6 Network.player minion_response_time_stat:vector ETV
attr source signal_minion_response_time
vector 7 Network.player minion_jobs_number_stat:vector ETV
attr source signal_minion_jobs_number
vector 8 Network.player boss_jobs_number_stat:vector ETV
attr source signal_boss_jobs_number
vector 9 Network.player minion_recovered_stat:vector ETV
attr source signal_minion_recovered
vector 10 Network.player boss_waiting_time_stat:vector ETV
attr source signal_boss_waiting_time
vector 11 Network.player minion_throughput:vector ETV
attr source signal_minion_throughput
vector 12 Network.player boss_throughput:vector ETV
attr source signal_boss_throughput
0	316	350.469658015754	34
0	333	367.883031681865	35
0	343	372.192838410522	36
0	349	377.143913442729	37
0	358	381.529703731998	38
0	363	388.789792337323	39
0	371	397.176661460005	40
0	376	406.44103854306	41
0	385	411.359462157356	42
0	386	411.767315051161	43
0	391	419.468610996223	44
0	392	423.594850508637	45
0	402	431.861126356741	46
0	405	435.169671539456	47
0	411	439.540115822707	48
0	416	446.254054655115	49
0	421	450.807615684668	50
0	452	496.699083851938	51
0	472	523.333999495179	52
0	480	530.363406809863	53
0	489	549.445978633146	54
0	503	558.950061613331	55
0	508	565.260503743975	56
0	509	567.416659001287	57
0	514	569.38721663723	58
0	515	569.97384578692	59
0	520	577.186169725063	60
0	523	579.495384892828	61
0	532	586.572797627455	62
0	533	587.614923258448	63
0	534	587.701836042231	64
0	535	587.733812000089	65
0	540	596.140308275113	66
0	578	633.876066967118	67
0	579	635.153886902676	68
0	587	644.985583094369	69
0	595	652.710523566935	70
0	615	675.864699464059	71
0	618	681.422097386955	72
0	625	685.520929125811	73
0	626	686.817746875363	74
0	627	687.750437018476	75
0	642	711.698281874508	76
0	646	716.324221871033	77
0	654	723.757043762604	78
0	686	763.515693732409	79
0	704	784.643620513641	80
0	705	787.0184482892	81
0	706	788.059472458147	82
0	717	808.305805887203	83
0	734	821.479531853525	84
0	735	822.055325429615	85
0	755	840.368416694511	86
0	762	851.58896442494	87
0	776	863.66272843382	88
0	777	864.115832988578	89
0	788	871.376769605947	90
0	793	875.314474791487	91
0	794	875.65650741802	92
0	799	878.856799234808	93
0	816	893.174471313663	94
0	830	905.503701884275	95
0	833	907.209155649453	96
0	834	907.681108787414	97
0	838	909.392262451681	98
0	849	917.635485624591	99
0	865	943.473093322591	100
0	870	945.723210062525	101
0	873	950.495677883447	102
0	889	959.067605003401	103
0	918	991.066436700546	104
0	919	991.588335481956	105
0	932	1005.233991711418	106
0	935	1007.959789293821	107
0	938	1013.231107633134	108
0	939	1013.559644377527	109
0	942	1014.641857732991	110
0	953	1017.159611267244	111
0	964	1029.220688761305	112
0	965	1030.685467167966	113
0	970	1034.739607874196	114
0	971	1035.005190337648	115
0	974	1039.156545742968	116
0	975	1041.633149198099	117
0	1027	1086.782899830275	118
0	1041	1098.391369861584	119
0	1059	1120.142124628482	120
0	1069	1124.021974471381	121
0	1070	1124.689019861939	122
0	1092	1142.32539837691	123
0	1099	1149.357232755718	124
0	1106	1158.601687869008	125
0	1115	1166.066614448613	126
0	1116	1166.249128846933	127
0	1119	1167.867577253546	128
0	1124	1174.233528219032	129
0	1125	1174.772189888498	130
0	1129	1182.136212625898	131
0	1144	1192.591725852179	132
0	1172	1219.724543380842	133
0	1188	1248.019006034038	134
0	1195	1255.874616068226	135
0	1196	1258.517301243792	136
0	1201	1260.282314933097	137
0	1202	1260.477654930462	138
0	1222	1279.345773188092	139
0	1226	1280.848788250567	140
0	1249	1299.678973352509	141
0	1254	1302.777431721108	142
0	1260	1307.361117237271	143
0	1266	1314.325696232008	144
0	1271	1320.85788619272	145
0	1284	1331.125030547094	146
0	1291	1347.218870819011	147
0	1322	1388.48956337369	148
0	1323	1390.459906799262	149
0	1334	1406.350895398711	150
0	1342	1409.76840839101	151
0	1343	1410.186270364702	152
0	1356	1419.767076143351	153
0	1380	1449.266754671078	154
0	1381	1451.519928031004	155
0	1413	1487.72159286887	156
0	1414	1490.532180211776	157
0	1429	1498.675743088441	158
0	1432	1500.910612109663	159
0	1437	1504.505689729917	160
0	1452	1515.951488077686	161
0	1453	1518.746908050557	162
0	1456	1521.511118492381	163
0	1461	1528.431774977859	164
0	1490	1549.163929294048	165
0	1493	1554.210461698432	166
0	1494	1554.478187865939	167
0	1499	1557.06669049958	168
0	1507	1568.645972379956	169
0	1516	1583.865263794625	170
0	1527	1595.61815751053	171
0	1552	1612.43206406703	172
0	1566	1622.0351314996	173
0	1567	1622.076148406913	174
0	1568	1622.809569919431	175
0	1573	1628.001990125954	176
0	1587	1652.279800285294	177
0	1593	1667.200912757883	178
0	1598	1671.370435719686	179
0	1628	1715.9641289151	180
0	1640	1720.488387110433	181
0	1649	1728.47564078927	182
0	1652	1730.400896390522	183
0	1666	1751.730301147507	184
0	1677	1762.525788214548	185
0	1684	1765.939923253717	186
0	1689	1768.609480661446	187
0	1690	1769.279734966846	188
0	1693	1770.525482535215	189
0	1710	1784.696411714701	190
0	1722	1799.817767882723	191
0	1728	1810.167582427859	192
0	1738	1826.510329447485	193
0	1745	1831.768803499891	194
0	1752	1839.419183282733	195
0	1761	1849.78571787077	196
0	1770	1863.685283103087	197
0	1783	1871.468934540722	198
0	1784	1874.713442547752	199
0	1795	1885.376634568009	200
0	1796	1887.775488996548	201
0	1805	1900.59941234854	202
0	1812	1905.424641410805	203
0	1813	1906.014164027049	204
0	1818	1913.621475177462	205
0	1843	1933.602105005935	206
0	1844	1933.720676866602	207
0	1849	1938.133490263446	208
0	1850	1943.089518850204	209
0	1853	1946.228601129697	210
0	1858	1950.998313442114	211
0	1861	1953.075705695282	212
0	1862	1954.060881515639	213
0	1888	1983.460370574541	214
0	1891	1985.283699895744	215
0	1908	1999.603115590482	216
0	1913	2001.123861145787	217
0	1914	2003.147295543359	218
0	1922	2015.724406346336	219
0	1928	2020.376449903271	220
0	1935	2025.732069605833	221
0	1938	2027.576138861929	222
0	1954	2041.828370227858	223
0	1967	2049.662402082864	224
0	1973	2050.945773558619	225
0	1998	2075.854481673011	226
0	2003	2078.69190078758	227
0	2008	2080.064641354745	228
0	2009	2081.33575066318	229
0	2016	2087.816429930116	230
0	2017	2089.771265798153	231
0	2018	2092.054589011416	232
0	2029	2105.602203552891	233
0	2049	2123.060497569359	234
0	2052	2123.836340085239	235
0	2061	2134.321628104694	236
0	2085	2162.159776956931	237
0	2086	2162.162641330602	238
0	2105	2182.367913563688	239
0	2106	2183.254806305797	240
0	2107	2186.9840067306	241
0	2111	2198.23279610806	242
0	2125	2213.708500095789	243
0	2130	2217.084714869097	244
0	2148	2233.000296649616	245
0	2153	2246.751438773742	246
0	2157	2247.553278643127	247
0	2163	2250.760184405785	248
0	2177	2270.026419728999	249
0	2180	2271.145082506001	250
0	2185	2272.213347314006	251
0	2195	2281.358966083288	252
0	2222	2323.229911663108	253
0	2228	2326.664182673786	254
0	2235	2329.194703975015	255
0	2240	2333.270841749821	256
0	2245	2336.493091406947	257
0	2265	2364.899803852426	258
0	2268	2370.825234834892	259
0	2279	2387.66918414346	260
0	2312	2448.909281764973	261
0	2323	2462.413722798523	262
0	2326	2469.377370717746	263
0	2333	2477.499238949844	264
0	2334	2477.979632747268	265
0	2341	2482.167287970641	266
0	2350	2486.993651929396	267
0	2353	2488.685998342691	268
0	2354	2489.579308551656	269
0	2355	2490.681188153997	270
0	2363	2497.384185248708	271
1	316	350.469658015754	0
1	328	360.409283811401	0
1	333	367.883031681865	0
1	340	371.173503734935	0
1	343	372.192838410522	0
1	348	376.19599468781	0
1	349	377.143913442729	0
1	351	377.948662242251	0
1	358	381.529703731998	0
1	362	387.831044191754	0
1	363	388.789792337323	0
1	368	395.04026741644	0
1	370	395.40678837798	1
1	371	397.176661460005	1
1	375	403.525662631662	1
1	376	406.44103854306	1
1	378	407.091095707291	1
1	380	409.825669589371	2
1	382	410.313930014622	3
1	385	411.359462157356	3
1	386	411.767315051161	2
1	391	419.468610996223	1
1	392	423.594850508637	0
1	401	430.49840349668	0
1	402	431.861126356741	0
1	404	435.153916374813	0
1	405	435.169671539456	0
1	410	437.379970209784	0
1	411	439.540115822707	0
1	415	440.423712324732	0
1	416	446.254054655115	0
1	418	446.535078190184	0
1	421	450.807615684668	0
1	449	493.127333277703	0
1	452	496.699083851938	0
1	471	522.919973343766	0
1	472	523.333999495179	0
1	479	527.947644250368	0
1	480	530.363406809863	0
1	488	547.064017488764	0
1	489	549.445978633146	0
1	494	550.739054872564	0
1	498	551.757633159105	1
1	500	554.256373907472	2
1	502	556.226346577834	3
1	503	558.950061613331	3
1	507	563.039027326864	3
1	508	565.260503743975	3
1	509	567.416659001287	2
1	511	568.639468796434	2
1	513	569.235643970711	3
1	514	569.38721663723	3
1	515	569.97384578692	2
1	519	575.374575279457	2
1	520	577.186169725063	2
1	522	578.795254539745	2
1	523	579.495384892828	2
1	525	581.915004590374	2
1	531	584.59315053204	3
1	532	586.572797627455	3
1	533	587.614923258448	2
1	534	587.701836042231	1
1	535	587.733812000089	0
1	539	594.333336005154	0
1	540	596.140308275113	0
1	571	627.418721012098	0
1	577	632.218020867006	1
1	578	633.876066967118	1
1	579	635.153886902676	0
1	586	641.780658871784	0
1	587	644.985583094369	0
1	594	647.462070929159	0
1	595	652.710523566935	0
1	610	667.309493403745	0
1	614	675.724615060903	1
1	615	675.864699464059	1
1	617	676.668658769998	1
1	618	681.422097386955	1
1	620	682.003934191433	1
1	624	683.617235247999	2
1	625	685.520929125811	2
1	626	686.817746875363	1
1	627	687.750437018476	0
1	635	703.811654052786	0
1	642	711.698281874508	0
1	645	714.976615598601	0
1	646	716.324221871033	0
1	653	722.64500892872	0
1	654	723.757043762604	0
1	685	761.273492518352	0
1	686	763.515693732409	0
1	697	782.366044891507	0
1	699	782.601019156934	1
1	701	783.579064935801	2
1	704	784.643620513641	2
1	705	787.0184482892	1
1	706	788.059472458147	0
1	716	807.407876331147	0
1	717	808.305805887203	0
1	731	820.861755107194	0
1	733	821.459799917703	1
1	734	821.479531853525	1
1	735	822.055325429615	0
1	752	836.154603739412	0
1	755	840.368416694511	0
1	761	850.246771939846	0
1	762	851.58896442494	0
1	773	862.885902373897	0
1	775	863.553743492777	1
1	776	863.66272843382	1
1	777	864.115832988578	0
1	787	870.88255346745	0
1	788	871.376769605947	0
1	790	873.83611358819	0
1	792	875.082885501818	1
1	793	875.314474791487	1
1	794	875.65650741802	0
1	796	876.941456615925	0
1	799	878.856799234808	0
1	815	892.928388602948	0
1	816	893.174471313663	0
1	819	895.099100078108	0
1	827	900.895113712182	1
1	829	902.021839417516	2
1	830	905.503701884275	2
1	833	907.209155649453	1
1	834	907.681108787414	0
1	837	908.113117590851	0
1	838	909.392262451681	0
1	848	915.469272871588	0
1	849	917.635485624591	0
1	860	942.09346134393	0
1	862	942.156120051135	1
1	864	942.339694740398	2
1	865	943.473093322591	2
1	870	945.723210062525	1
1	873	950.495677883447	0
1	888	957.975027695413	0
1	889	959.067605003401	0
1	899	973.563066403077	0
1	901	975.056317299243	1
1	903	975.780107577378	2
1	905	976.913420634174	3
1	909	987.670625241841	4
1	918	991.066436700546	4
1	919	991.588335481956	3
1	923	993.284819736379	3
1	925	994.618843071189	4
1	927	997.090297090786	5
1	929	998.087854874931	6
1	932	1005.233991711418	6
1	935	1007.959789293821	5
1	938	1013.231107633134	4
1	939	1013.559644377527	3
1	942	1014.641857732991	2
1	944	1016.157706749793	2
1	946	1016.356808757721	3
1	948	1016.415729162452	4
1	953	1017.159611267244	4
1	955	1025.037997592616	4
1	959	1026.643475602598	5
1	964	1029.220688761305	5
1	965	1030.685467167966	4
1	970	1034.739607874196	3
1	971	1035.005190337648	2
1	974	1039.156545742968	1
1	975	1041.633149198099	0
1	1026	1083.273712009621	0
1	1027	1086.782899830275	0
1	1034	1095.258386564379	0
1	1041	1098.391369861584	0
1	1058	1119.171322462318	0
1	1059	1120.142124628482	0
1	1062	1120.768432521426	0
1	1064	1121.233298298426	1
1	1069	1124.021974471381	1
1	1070	1124.689019861939	0
1	1087	1141.696038396732	0
1	1089	1141.97171976986	1
1	1092	1142.32539837691	1
1	1098	1149.186902802394	1
1	1099	1149.357232755718	1
1	1101	1152.093990049477	1
1	1105	1157.624369222406	2
1	1106	1158.601687869008	2
1	1110	1160.432939703849	2
1	1112	1160.624445586746	3
1	1115	1166.066614448613	3
1	1116	1166.249128846933	2
1	1119	1167.867577253546	1
1	1123	1170.723509676108	1
1	1124	1174.233528219032	1
1	1125	1174.772189888498	0
1	1128	1177.542138996658	0
1	1129	1182.136212625898	0
1	1137	1189.547606851514	0
1	1144	1192.591725852179	0
1	1171	1218.851571102707	0
1	1172	1219.724543380842	0
1	1181	1237.51137602908	0
1	1183	1241.754850078178	1
1	1187	1246.82248801478	2
1	1188	1248.019006034038	2
1	1192	1252.053644648257	2
1	1195	1255.874616068226	2
1	1196	1258.517301243792	1
1	1200	1260.268802235598	1
1	1201	1260.282314933097	1
1	1202	1260.477654930462	0
1	1219	1277.925418064961	0
1	1222	1279.345773188092	0
1	1225	1280.43284342461	0
1	1226	1280.848788250567	0
1	1244	1292.951016551003	0
1	1246	1296.486738682005	1
1	1249	1299.678973352509	1
1	1254	1302.777431721108	0
1	1257	1303.153188973806	0
1	1260	1307.361117237271	0
1	1265	1313.740786481238	0
1	1266	1314.325696232008	0
1	1270	1316.39013935346	0
1	1271	1320.85788619272	0
1	1283	1329.73446412743	0
1	1284	1331.125030547094	0
1	1286	1340.881773789299	0
1	1291	1347.218870819011	0
1	1319	1379.162156647238	0
1	1321	1387.805182179456	1
1	1322	1388.48956337369	1
1	1323	1390.459906799262	0
1	1331	1402.736864065567	0
1	1334	1406.350895398711	0
1	1337	1408.685926029236	0
1	1341	1409.419570943823	1
1	1342	1409.76840839101	1
1	1343	1410.186270364702	0
1	1355	1418.011894498142	0
1	1356	1419.767076143351	0
1	1373	1444.216694327778	0
1	1377	1447.94324536589	1
1	1380	1449.266754671078	1
1	1381	1451.519928031004	0
1	1400	1476.897292679376	0
1	1412	1487.454871551072	1
1	1413	1487.72159286887	1
1	1414	1490.532180211776	0
1	1424	1497.547881882029	0
1	1428	1498.501440355677	1
1	1429	1498.675743088441	1
1	1431	1499.410361505714	1
1	1432	1500.910612109663	1
1	1436	1503.987185299263	1
1	1437	1504.505689729917	1
1	1441	1506.678973331682	1
1	1451	1515.169294602837	2
1	1452	1515.951488077686	2
1	1453	1518.746908050557	1
1	1456	1521.511118492381	0
1	1460	1527.108186464722	0
1	1461	1528.431774977859	0
1	1485	1543.753113980184	0
1	1489	1547.588379641401	1
1	1490	1549.163929294048	1
1	1492	1553.872904737098	1
1	1493	1554.210461698432	1
1	1494	1554.478187865939	0
1	1498	1556.846556782399	0
1	1499	1557.06669049958	0
1	1506	1566.635975919891	0
1	1507	1568.645972379956	0
1	1511	1580.544060030215	0
1	1516	1583.865263794625	0
1	1522	1588.700997016128	0
1	1527	1595.61815751053	0
1	1551	1610.52787037836	0
1	1552	1612.43206406703	0
1	1559	1614.566367107468	0
1	1561	1617.707324717466	1
1	1563	1619.183222695166	2
1	1566	1622.0351314996	2
1	1567	1622.076148406913	1
1	1568	1622.809569919431	0
1	1572	1627.295339769671	0
1	1573	1628.001990125954	0
1	1586	1650.744215570874	0
1	1587	1652.279800285294	0
1	1592	1666.40924544859	0
1	1593	1667.200912757883	0
1	1595	1669.006926820633	0
1	1598	1671.370435719686	0
1	1627	1715.019778212979	0
1	1628	1715.9641289151	0
1	1631	1717.407372213872	0
1	1639	1720.038016141211	1
1	1640	1720.488387110433	1
1	1644	1721.995534845175	1
1	1649	1728.47564078927	1
1	1652	1730.400896390522	0
1	1665	1749.388705263137	0
1	1666	1751.730301147507	0
1	1672	1760.03837803681	0
1	1676	1762.270339841964	1
1	1677	1762.525788214548	1
1	1679	1762.794219298681	1
1	1684	1765.939923253717	1
1	1688	1768.43727068518	1
1	1689	1768.609480661446	1
1	1690	1769.279734966846	0
1	1692	1769.396649355495	0
1	1693	1770.525482535215	0
1	1709	1783.459310527003	0
1	1710	1784.696411714701	0
1	1721	1795.561084858444	0
1	1722	1799.817767882723	0
1	1727	1807.760989170958	0
1	1728	1810.167582427859	0
1	1733	1820.672102687735	0
1	1738	1826.510329447485	0
1	1744	1830.227321057385	0
1	1745	1831.768803499891	0
1	1751	1837.477540472493	0
1	1752	1839.419183282733	0
1	1756	1846.958215714485	0
1	1761	1849.78571787077	0
1	1765	1857.718955316991	0
1	1767	1860.625000295579	1
1	1770	1863.685283103087	1
1	1772	1864.342964619316	1
1	1774	1866.923552828266	2
1	1776	1867.744110389014	3
1	1783	1871.468934540722	3
1	1784	1874.713442547752	2
1	1788	1876.615502411451	2
1	1795	1885.376634568009	2
1	1796	1887.775488996548	1
1	1798	1889.162415231729	1
1	1804	1899.632033191065	2
1	1805	1900.59941234854	2
1	1812	1905.424641410805	1
1	1813	1906.014164027049	0
1	1817	1912.487447544114	0
1	1818	1913.621475177462	0
1	1830	1924.814771468195	0
1	1832	1925.049409947819	1
1	1836	1926.607140097547	2
1	1838	1927.918939666465	3
1	1840	1928.68033645609	4
1	1843	1933.602105005935	4
1	1844	1933.720676866602	3
1	1846	1934.637593830675	3
1	1849	1938.133490263446	3
1	1850	1943.089518850204	2
1	1852	1943.19574811059	2
1	1853	1946.228601129697	2
1	1855	1947.036098860944	2
1	1858	1950.998313442114	2
1	1861	1953.075705695282	1
1	1862	1954.060881515639	0
1	1869	1962.664302461839	0
1	1875	1969.327919103555	1
1	1888	1983.460370574541	1
1	1891	1985.283699895744	0
1	1905	1998.845633853626	0
1	1907	1998.922037722472	1
1	1908	1999.603115590482	1
1	1912	2001.091776104848	1
1	1913	2001.123861145787	1
1	1914	2003.147295543359	0
1	1919	2006.523924416656	0
1	1922	2015.724406346336	0
1	1927	2018.818629882161	0
1	1928	2020.376449903271	0
1	1934	2024.441189299408	0
1	1935	2025.732069605833	0
1	1937	2026.152365272502	0
1	1938	2027.576138861929	0
1	1953	2041.644573176964	0
1	1954	2041.828370227858	0
1	1966	2048.193289222042	0
1	1967	2049.662402082864	0
1	1972	2050.935708923166	0
1	1973	2050.945773558619	0
1	1993	2072.688279215453	0
1	1995	2075.006941169214	1
1	1997	2075.369789573536	2
1	1998	2075.854481673011	2
1	2000	2076.241899633652	2
1	2003	2078.69190078758	2
1	2005	2079.726223318149	2
1	2007	2079.858408575431	3
1	2008	2080.064641354745	3
1	2009	2081.33575066318	2
1	2015	2082.469363466365	2
1	2016	2087.816429930116	2
1	2017	2089.771265798153	1
1	2018	2092.054589011416	0
1	2020	2093.394677603156	0
1	2029	2105.602203552891	0
1	2046	2119.086032386407	0
1	2049	2123.060497569359	0
1	2051	2123.18561464143	0
1	2052	2123.836340085239	0
1	2060	2132.388618939407	0
1	2061	2134.321628104694	0
1	2082	2160.983927972809	0
1	2084	2162.041293571091	1
1	2085	2162.159776956931	1
1	2086	2162.162641330602	0
1	2098	2171.082298131178	0
1	2102	2176.878517046148	1
1	2104	2181.214560228553	2
1	2105	2182.367913563688	2
1	2106	2183.254806305797	1
1	2107	2186.9840067306	0
1	2110	2194.181023635168	0
1	2111	2198.23279610806	0
1	2124	2209.492911153626	0
1	2125	2213.708500095789	0
1	2129	2213.925150331612	0
1	2130	2217.084714869097	0
1	2147	2232.751090414705	0
1	2148	2233.000296649616	0
1	2152	2246.15890269224	0
1	2153	2246.751438773742	0
1	2156	2247.506701987261	0
1	2157	2247.553278643127	0
1	2162	2250.663642847963	0
1	2163	2250.760184405785	0
1	2176	2269.472941024361	0
1	2177	2270.026419728999	0
1	2179	2270.167681859663	0
1	2180	2271.145082506001	0
1	2184	2272.095352319535	0
1	2185	2272.213347314006	0
1	2194	2281.126297054591	0
1	2195	2281.358966083288	0
1	2219	2319.635358806804	0
1	2222	2323.229911663108	0
1	2227	2325.146277146998	0
1	2228	2326.664182673786	0
1	2230	2326.698723788778	0
1	2235	2329.194703975015	0
1	2239	2332.214596350125	0
1	2240	2333.270841749821	0
1	2242	2333.404893352369	0
1	2245	2336.493091406947	0
1	2264	2361.810848570402	0
1	2265	2364.899803852426	0
1	2267	2370.332937913102	0
1	2268	2370.825234834892	0
1	2276	2384.518035803758	0
1	2279	2387.66918414346	0
1	2309	2446.739159097094	0
1	2312	2448.909281764973	0
1	2318	2460.982521493547	0
1	2320	2460.995104979324	1
1	2323	2462.413722798523	1
1	2326	2469.377370717746	0
1	2330	2473.946986795827	0
1	2332	2474.769086185738	1
1	2333	2477.499238949844	1
1	2334	2477.979632747268	0
1	2336	2478.214198769322	0
1	2338	2478.24121628673	1
1	2341	2482.167287970641	1
1	2343	2482.471116215921	1
1	2345	2483.20787356238	2
1	2350	2486.993651929396	2
1	2352	2488.028147135494	2
1	2353	2488.685998342691	2
1	2354	2489.579308551656	1
1	2355	2490.681188153997	0
1	2358	2492.165071389394	0
1	2360	2492.199178833457	1
1	2362	2496.011695091498	2
1	2363	2497.384185248708	2
2	316	350.469658015754	6.260714969694
2	333	367.883031681865	7.473747870464
2	343	372.192838410522	1.019334675587
2	349	377.143913442729	0.947918754919
2	358	381.529703731998	3.581041489747
2	363	388.789792337323	0.958748145569
2	371	397.176661460005	2.136394043565
2	376	406.44103854306	11.03425016508
2	385	411.359462157356	7.833799525694
2	386	411.767315051161	4.67621934387
2	391	419.468610996223	9.642941406852
2	392	423.594850508637	13.280920494015
2	402	431.861126356741	1.362722860061
2	405	435.169671539456	0.015755164643
2	411	439.540115822707	2.160145612923
2	416	446.254054655115	5.830342330383
2	421	450.807615684668	4.272537494484
2	452	496.699083851938	3.571750574235
2	472	523.333999495179	0.414026151413
2	480	530.363406809863	2.415762559495
2	489	549.445978633146	2.381961144382
2	503	558.950061613331	8.211006740767
2	508	565.260503743975	13.50287058487
2	509	567.416659001287	13.160285093815
2	514	569.38721663723	13.160870059396
2	515	569.97384578692	6.934818460056
2	520	577.186169725063	8.546700928629
2	523	579.495384892828	10.259740922117
2	532	586.572797627455	11.198222347998
2	533	587.614923258448	8.819668718703
2	534	587.701836042231	5.786831451857
2	535	587.733812000089	3.140661468049
2	540	596.140308275113	1.806972269959
2	578	633.876066967118	6.45734595502
2	579	635.153886902676	2.93586603567
2	587	644.985583094369	3.204924222585
2	595	652.710523566935	5.248452637776
2	615	675.864699464059	8.555206060314
2	618	681.422097386955	5.697482326052
2	625	685.520929125811	8.852270355813
2	626	686.817746875363	4.81381268393
2	627	687.750437018476	4.133201770477
2	642	711.698281874508	7.886627821722
2	646	716.324221871033	1.347606272432
2	654	723.757043762604	1.112034833884
2	686	763.515693732409	2.242201214057
2	704	784.643620513641	2.277575622134
2	705	787.0184482892	4.417429132266
2	706	788.059472458147	4.480407522346
2	717	808.305805887203	0.897929556056
2	734	821.479531853525	0.617776746331
2	735	822.055325429615	0.595525511912
2	755	840.368416694511	4.213812955099
2	762	851.58896442494	1.342192485094
2	776	863.66272843382	0.776826059923
2	777	864.115832988578	0.562089495801
2	788	871.376769605947	0.494216138497
2	793	875.314474791487	1.478361203297
2	794	875.65650741802	0.573621916202
2	799	878.856799234808	1.915342618883
2	816	893.174471313663	0.246082710715
2	830	905.503701884275	10.404601806167
2	833	907.209155649453	6.314041937271
2	834	907.681108787414	5.659269369898
2	838	909.392262451681	1.27914486083
2	849	917.635485624591	2.166212753003
2	865	943.473093322591	1.379631978661
2	870	945.723210062525	3.56709001139
2	873	950.495677883447	8.155983143049
2	889	959.067605003401	1.092577307988
2	918	991.066436700546	17.503370297469
2	919	991.588335481956	16.532018182713
2	932	1005.233991711418	29.45388413404
2	935	1007.959789293821	31.046368659647
2	938	1013.231107633134	25.560482391293
2	939	1013.559644377527	20.274824641148
2	942	1014.641857732991	20.023014661802
2	953	1017.159611267244	20.069314176458
2	964	1029.220688761305	31.132833886374
2	965	1030.685467167966	14.527760418173
2	970	1034.739607874196	18.382799116475
2	971	1035.005190337648	18.589461175196
2	974	1039.156545742968	14.118548150352
2	975	1041.633149198099	14.989673595501
2	1027	1086.782899830275	3.509187820654
2	1041	1098.391369861584	3.132983297205
2	1059	1120.142124628482	0.970802166164
2	1069	1124.021974471381	3.253541949955
2	1070	1124.689019861939	3.455721563513
2	1092	1142.32539837691	0.629359980178
2	1099	1149.357232755718	7.385512985858
2	1106	1158.601687869008	9.414785066614
2	1115	1166.066614448613	13.972624399136
2	1116	1166.249128846933	8.624759624527
2	1119	1167.867577253546	7.434637549697
2	1124	1174.233528219032	13.609082632286
2	1125	1174.772189888498	4.04868021239
2	1129	1182.136212625898	4.59407362924
2	1144	1192.591725852179	3.044119000665
2	1172	1219.724543380842	0.872972278135
2	1188	1248.019006034038	10.507630004958
2	1195	1255.874616068226	14.119765990048
2	1196	1258.517301243792	11.694813229012
2	1201	1260.282314933097	8.22867028484
2	1202	1260.477654930462	0.208852694864
2	1222	1279.345773188092	1.420355123131
2	1226	1280.848788250567	0.415944825957
2	1249	1299.678973352509	6.727956801506
2	1254	1302.777431721108	6.290693039103
2	1260	1307.361117237271	4.207928263465
2	1266	1314.325696232008	0.58490975077
2	1271	1320.85788619272	4.46774683926
2	1284	1331.125030547094	1.390566419664
2	1291	1347.218870819011	6.337097029712
2	1322	1388.48956337369	9.327406726452
2	1323	1390.459906799262	2.654724619806
2	1334	1406.350895398711	3.614031333144
2	1342	1409.76840839101	1.082482361774
2	1343	1410.186270364702	0.766699420879
2	1356	1419.767076143351	1.755181645209
2	1380	1449.266754671078	5.0500603433
2	1381	1451.519928031004	3.576682665114
2	1413	1487.72159286887	10.824300189494
2	1414	1490.532180211776	3.077308660704
2	1429	1498.675743088441	1.127861206412
2	1432	1500.910612109663	2.409171753986
2	1437	1504.505689729917	5.095328224203
2	1452	1515.951488077686	11.964302778423
2	1453	1518.746908050557	12.067934718875
2	1456	1521.511118492381	6.341823889544
2	1461	1528.431774977859	1.323588513137
2	1490	1549.163929294048	5.410815313864
2	1493	1554.210461698432	6.622082057031
2	1494	1554.478187865939	0.605283128841
2	1499	1557.06669049958	0.220133717181
2	1507	1568.645972379956	2.009996460065
2	1516	1583.865263794625	3.32120376441
2	1527	1595.61815751053	6.917160494402
2	1552	1612.43206406703	1.90419368867
2	1566	1622.0351314996	7.468764392132
2	1567	1622.076148406913	4.368823689447
2	1568	1622.809569919431	3.626347224265
2	1573	1628.001990125954	0.706650356283
2	1587	1652.279800285294	1.53558471442
2	1593	1667.200912757883	0.791667309293
2	1598	1671.370435719686	2.363508899053
2	1628	1715.9641289151	0.944350702121
2	1640	1720.488387110433	3.081014896561
2	1649	1728.47564078927	8.437624648059
2	1652	1730.400896390522	8.405361545347
2	1666	1751.730301147507	2.34159588437
2	1677	1762.525788214548	2.487410177738
2	1684	1765.939923253717	3.669583411753
2	1689	1768.609480661446	5.815261362765
2	1690	1769.279734966846	0.842464281666
2	1693	1770.525482535215	1.12883317972
2	1710	1784.696411714701	1.237101187698
2	1722	1799.817767882723	4.256683024279
2	1728	1810.167582427859	2.406593256901
2	1738	1826.510329447485	5.83822675975
2	1745	1831.768803499891	1.541482442506
2	1752	1839.419183282733	1.94164281024
2	1761	1849.78571787077	2.827502156285
2	1770	1863.685283103087	5.966327786096
2	1783	1871.468934540722	10.843934245143
2	1784	1874.713442547752	10.370477928436
2	1795	1885.376634568009	18.453081739743
2	1796	1887.775488996548	20.031378607534
2	1805	1900.59941234854	23.983909937089
2	1812	1905.424641410805	16.262226179076
2	1813	1906.014164027049	6.382130835984
2	1818	1913.621475177462	1.134027633348
2	1843	1933.602105005935	8.78733353774
2	1844	1933.720676866602	8.671266918783
2	1849	1938.133490263446	11.526350165899
2	1850	1943.089518850204	15.170579183739
2	1853	1946.228601129697	17.548264673607
2	1858	1950.998313442114	16.360719611439
2	1861	1953.075705695282	9.879957584692
2	1862	1954.060881515639	7.024782654695
2	1888	1983.460370574541	20.796068112702
2	1891	1985.283699895744	15.955780792189
2	1908	1999.603115590482	0.757481736856
2	1913	2001.123861145787	2.201823423315
2	1914	2003.147295543359	2.055519438511
2	1922	2015.724406346336	9.20048192968
2	1928	2020.376449903271	1.55782002111
2	1935	2025.732069605833	1.290880306425
2	1938	2027.576138861929	1.423773589427
2	1954	2041.828370227858	0.183797050894
2	1967	2049.662402082864	1.469112860822
2	1973	2050.945773558619	0.010064635453
2	1998	2075.854481673011	3.166202457558
2	2003	2078.69190078758	3.684959618366
2	2008	2080.064641354745	4.694851781209
2	2009	2081.33575066318	5.093851029528
2	2016	2087.816429930116	8.090206611967
2	2017	2089.771265798153	9.912857222722
2	2018	2092.054589011416	9.585225545051
2	2029	2105.602203552891	12.207525949735
2	2049	2123.060497569359	3.974465182952
2	2052	2123.836340085239	0.650725443809
2	2061	2134.321628104694	1.933009165287
2	2085	2162.159776956931	1.175848984122
2	2086	2162.162641330602	0.121347759511
2	2105	2182.367913563688	11.28561543251
2	2106	2183.254806305797	6.376289259649
2	2107	2186.9840067306	5.769446502047
2	2111	2198.23279610806	4.051772472892
2	2125	2213.708500095789	4.215588942163
2	2130	2217.084714869097	3.159564537485
2	2148	2233.000296649616	0.249206234911
2	2153	2246.751438773742	0.592536081502
2	2157	2247.553278643127	0.046576655866
2	2163	2250.760184405785	0.096541557822
2	2177	2270.026419728999	0.553478704638
2	2180	2271.145082506001	0.977400646338
2	2185	2272.213347314006	0.117994994471
2	2195	2281.358966083288	0.232669028697
2	2222	2323.229911663108	3.594552856304
2	2228	2326.664182673786	1.517905526788
2	2235	2329.194703975015	2.495980186237
2	2240	2333.270841749821	1.056245399696
2	2245	2336.493091406947	3.088198054578
2	2265	2364.899803852426	3.088955282024
2	2268	2370.825234834892	0.49229692179
2	2279	2387.66918414346	3.151148339702
2	2312	2448.909281764973	2.170122667879
2	2323	2462.413722798523	1.431201304976
2	2326	2469.377370717746	8.382265738422
2	2333	2477.499238949844	3.552252154017
2	2334	2477.979632747268	3.21054656153
2	2341	2482.167287970641	3.953089201319
2	2350	2486.993651929396	8.752435642666
2	2353	2488.685998342691	6.21488212677
2	2354	2489.579308551656	6.371434989276
2	2355	2490.681188153997	2.653041018503
2	2363	2497.384185248708	5.219113859314
3	316	350.469658015754	6.588848898644
3	317	351.045103288571	6.681137624082
3	320	357.296062716429	4.757877355304
3	323	358.52007467754	0.546070077284
3	326	360.343383422695	0
3	333	367.883031681865	7.473747870464
3	338	369.510693347621	7.611147563363
3	343	372.192838410522	6.667652563509
3	344	372.773409864865	3.665814497444
3	345	373.746224339558	4.335105327301
3	346	373.979834334039	2.806330599104
3	349	377.143913442729	5.10976982433
3	358	381.529703731998	5.333709044188
3	359	383.410126162681	5.46146392043
3	360	386.494895207291	8.252452896105
3	363	388.789792337323	8.053099726154
3	364	390.471940856029	9.358893718065
3	365	391.214282550052	3.383238358298
3	392	423.594850508637	23.732562346038
3	393	424.634722269074	14.061098762535
3	396	428.129296231675	16.228584979034
3	397	428.421719826905	10.046817553804
3	398	429.623463144929	3.084011548763
3	407	435.499235349788	0
3	413	440.415366961983	0
3	416	446.254054655115	5.830342330383
3	421	450.807615684668	4.272537494484
3	422	451.006087678402	4.397370081074
3	425	455.370422969934	2.035989471472
3	428	459.311645286711	0
3	431	462.019331593566	2.395156853607
3	434	472.927823863035	0
3	437	473.344055744072	0
3	440	484.015561654052	0
3	445	487.88962801755	2.813424657868
3	446	488.510426517988	2.93527630174
3	452	496.699083851938	2.502366853141
3	455	498.947855731531	1.702543890113
3	458	513.562612805819	0
3	461	516.956107988072	0
3	464	521.654228218305	0
3	467	522.231133813662	0
3	472	523.333999495179	0.517575405129
3	477	525.871495269227	2.951521925461
3	480	530.363406809863	6.712372248231
3	481	532.558627221605	8.639697477921
3	482	533.515470562245	5.567826311877
3	485	544.684319854164	0
3	491	550.035555949114	0
3	535	587.733812000089	36.114004928045
3	536	588.312689239384	27.321027885598
3	537	589.565049965269	17.200878551743
3	540	596.140308275113	12.571661941182
3	541	596.197837420778	11.732154178605
3	542	598.469191208863	4.135855203709
3	545	604.316072167871	0
3	548	609.362320842335	4.336366534768
3	551	610.391892038634	0.762436587587
3	554	611.966697262556	0.42835192459
3	557	617.225295686315	0
3	560	620.122592901444	1.060621111583
3	563	621.464435147374	0
3	566	624.205819631461	0
3	569	625.689711922884	0
3	579	635.153886902676	7.735165890578
3	582	637.925510513081	10.225969497555
3	583	638.70446751735	7.01817410848
3	584	640.886063548552	5.002249292981
3	587	644.985583094369	3.204924222585
3	590	646.752245406877	0
3	595	652.710523566935	5.457603518148
3	598	655.285322034759	7.8232511056
3	599	656.965477542403	1.957035861438
3	602	663.005322335122	0
3	605	664.268796298925	1.203713653894
3	608	666.970771605308	2.341329746138
3	627	687.750437018476	20.440943614731
3	628	687.89044440593	17.892275428589
3	629	688.044473032592	5.927345423096
3	632	692.625860870347	0
3	642	711.698281874508	7.471527007176
3	643	712.000373773433	6.729697892842
3	646	716.324221871033	10.973621611313
3	647	716.523353574198	1.546737975597
3	650	721.081868031887	2.123748176841
3	656	728.567993029483	0
3	659	731.931540681356	0
3	662	737.560525646697	0
3	671	746.933005513493	4.083666129318
3	674	748.311855910299	5.270473769301
3	677	752.549277453316	8.221967302124
3	678	754.335149184374	8.160139197161
3	679	754.686903081909	7.446073486006
3	680	759.133522353998	7.739265638055
3	683	760.652692934568	0
3	686	763.515693732409	2.242201214057
3	689	766.50478489506	1.344125286838
3	692	770.870028479427	0
3	695	777.846587836092	1.266662336891
3	706	788.059472458147	5.69342756664
3	709	790.073006753525	5.783615433457
3	710	791.570035164004	2.276411492478
3	713	794.786965198185	0
3	719	808.747045762649	0
3	722	811.421613402947	0
3	725	818.101893868606	0
3	728	818.450511205576	0.338708751586
3	737	824.941428871736	0
3	740	826.374332699543	0
3	743	826.950745019075	0
3	746	828.140828505412	0
3	749	831.543318819644	0
3	755	840.368416694511	1.91368578024
3	758	848.532410707696	0
3	764	856.661602956161	0
3	767	856.996294957164	0.242573029903
3	777	864.115832988578	6.958223285493
3	778	864.187411949943	6.019810541385
3	779	867.068453535251	4.182551161354
3	788	871.376769605947	4.029191991045
3	794	875.65650741802	7.711182501846
3	799	878.856799234808	9.618154175127
3	800	879.168913588759	8.286360121309
3	805	881.106601100495	7.270487512305
3	806	882.963178909593	6.021722293668
3	809	888.32757034034	9.492176942088
3	812	890.922294896834	11.407066451178
3	813	892.572338747587	12.808773301588
3	816	893.174471313663	6.182624644397
3	817	893.245349889364	2.793475114455
3	834	907.681108787414	14.752720184466
3	835	908.045832212465	12.946732134357
3	838	909.392262451681	14.283850622589
3	839	909.437802172917	10.832659860241
3	842	911.746407514048	12.051071364724
3	843	913.181653500606	6.251270768699
3	844	913.404041646203	5.290924055352
3	849	917.635485624591	6.033495366402
3	850	919.106207747555	5.36965834796
3	853	920.960093281169	5.490820409581
3	854	923.940646615129	3.217250239907
3	857	934.122089867887	0
3	873	950.495677883447	6.660732367054
3	876	951.113437658443	5.500786222861
3	877	951.655013047106	4.762792287632
3	882	952.501930964893	1.604606130157
3	889	959.067605003401	7.379374304344
3	892	962.383720124416	10.399099466182
3	895	966.058812681729	13.096370797153
3	896	968.203523331066	10.717951245903
3	897	969.338668890871	11.363641195458
3	975	1041.633149198099	80.866937436441
3	976	1041.939816398516	76.022888817887
3	977	1044.505525227376	70.942458824299
3	978	1047.067265156876	66.075706078194
3	983	1050.452110570284	62.70216819383
3	984	1052.661186090499	64.599777084067
3	987	1056.220527711615	67.638353289335
3	990	1057.704150289783	67.952185016899
3	993	1059.034086264471	67.16823351626
3	994	1059.741400904366	60.065439574235
3	999	1062.183086686296	56.663227876385
3	1002	1063.875616783198	50.791205865653
3	1003	1064.581163339935	50.491297297823
3	1008	1066.287738323453	49.763651919253
3	1011	1069.123603876922	52.586795081532
3	1012	1069.214480772594	43.984957971892
3	1013	1071.149134158523	44.362781884747
3	1016	1072.356717171971	45.378192385777
3	1017	1072.896963768959	39.913093031809
3	1022	1082.108723931943	48.874611475257
3	1023	1082.199897054049	46.251326569194
3	1024	1082.714114733794	35.059508738189
3	1027	1086.782899830275	37.206778602466
3	1028	1088.064948202483	32.317561240806
3	1031	1094.354060955703	37.414152827892
3	1032	1094.518334306783	36.383645667481
3	1041	1098.391369861584	38.379392671965
3	1044	1105.237573449047	43.676122268134
3	1047	1108.840216083218	44.965095167964
3	1048	1109.887286007022	44.848002415048
3	1051	1116.114150779368	50.366573077118
3	1052	1116.176045392406	49.863657898203
3	1055	1118.353144128279	46.385603806611
3	1056	1118.508541193291	43.200441725507
3	1059	1120.142124628482	41.269247605077
3	1060	1120.296865370811	37.02315336119
3	1070	1124.689019861939	36.388428895759
3	1071	1125.740618067136	30.482231502757
3	1072	1126.064532135944	28.024467926685
3	1073	1126.999109371461	28.674773532838
3	1076	1132.139620541513	33.813465478029
3	1077	1132.547580744087	33.821427670469
3	1078	1134.011879101005	27.734481477409
3	1081	1134.287842338923	24.255106399986
3	1082	1136.442362931342	18.551440433947
3	1083	1136.981549863665	17.810227401347
3	1084	1138.037430416896	17.26899789547
3	1085	1141.153053826215	17.52392249076
3	1125	1174.772189888498	50.811613512579
3	1126	1175.818036296495	44.513157721054
3	1129	1182.136212625898	48.020572613898
3	1130	1182.282149541915	40.586111145183
3	1131	1183.029216442805	40.847984470059
3	1132	1187.260314144652	42.951832072902
3	1133	1188.10818567359	43.724181403651
3	1134	1188.8614244032	35.261885539047
3	1135	1189.180947192555	28.763274976118
3	1144	1192.591725852179	28.864604088842
3	1145	1193.550088754991	26.224108937245
3	1146	1195.042114321452	26.218843963835
3	1149	1197.717494369232	20.175355372574
3	1152	1200.309193423686	10.761586572172
3	1155	1203.865836860043	12.850827399456
3	1156	1204.038716041193	12.401977404102
3	1157	1208.186053203467	15.961005235221
3	1158	1211.372649346167	14.360165532099
3	1165	1216.674776522166	17.717843254584
3	1166	1217.551129248656	16.426956251124
3	1169	1217.792105437632	5.957904356702
3	1172	1219.724543380842	4.288184484641
3	1173	1221.254312535127	5.721781160347
3	1174	1221.856280451826	4.072490775473
3	1175	1222.92368475046	4.072113647753
3	1178	1224.356344072955	0.527025214958
3	1202	1260.477654930462	16.916385900776
3	1203	1267.171181669384	16.780522889275
3	1204	1267.309780070105	14.317384926319
3	1209	1269.165569847116	9.277901708096
3	1210	1269.671443900732	1.651008659149
3	1211	1272.990772007498	4.375898446593
3	1214	1274.262610600661	0
3	1217	1277.063123301221	0.546275837041
3	1222	1279.345773188092	1.420355123131
3	1223	1279.478765558822	1.400978135576
3	1226	1280.848788250567	0.415944825957
3	1229	1282.55164343687	0.908694925311
3	1232	1287.753715172259	2.635842833449
3	1235	1288.702797782069	0.892387266678
3	1238	1290.405673990128	0
3	1241	1291.169332272086	0.197867025098
3	1254	1302.777431721108	5.291609046455
3	1255	1303.009365582842	2.736074510362
3	1260	1307.361117237271	4.831249012223
3	1261	1308.100442208462	4.947253234656
3	1262	1308.450223263902	3.38407353129
3	1268	1315.576624230646	0
3	1271	1320.85788619272	4.46774683926
3	1274	1323.36325422365	0
3	1277	1327.051927212029	0.601211118744
3	1280	1328.036143899335	0.789877528311
3	1291	1347.218870819011	6.242530627721
3	1292	1349.996667243488	8.018899660903
3	1295	1351.469693141169	0
3	1300	1355.554095572197	2.967307539241
3	1301	1356.962890836778	2.484854491449
3	1304	1362.342896349619	0.972545135949
3	1307	1368.008526047291	3.316141436699
3	1310	1370.11039887997	0
3	1313	1372.702983229819	0
3	1316	1374.827568826768	0
3	1325	1396.361033469095	0
3	1328	1400.068017007313	0
3	1334	1406.350895398711	3.13131045462
3	1343	1410.186270364702	0.844551357406
3	1346	1411.404346270392	0
3	1349	1411.873894118075	0
3	1352	1415.118719358921	0.269540310106
3	1358	1421.921511840467	0
3	1361	1423.13208680219	0.25860897869
3	1364	1425.643679964161	0
3	1367	1429.899618402895	0
3	1370	1440.567146530059	0
3	1381	1451.519928031004	4.622711054667
3	1382	1451.972681791141	3.158703686377
3	1385	1459.966486694426	0
3	1388	1464.18868956046	2.974112278201
3	1391	1468.991936755159	0
3	1394	1470.741974527273	0
3	1397	1474.056072832843	0
3	1414	1490.532180211776	12.718411508507
3	1419	1493.26031532217	13.575711740912
3	1420	1494.249674176942	13.687399590602
3	1456	1521.511118492381	35.005360866766
3	1457	1523.260262065193	36.138825809338
3	1458	1524.886868095647	33.43321784957
3	1461	1528.431774977859	36.276773540962
3	1464	1530.261690264865	35.639030718345
3	1465	1531.717651961202	34.169770079173
3	1470	1533.626999593099	35.20057639452
3	1471	1534.030573190381	32.5261865653
3	1474	1537.491830731926	32.753239135333
3	1475	1539.143292312472	29.627129608428
3	1476	1539.930496444099	27.143045340422
3	1479	1540.67614359404	27.198701499644
3	1480	1541.42761779444	26.573297917216
3	1481	1541.47330492493	22.167336328035
3	1482	1542.350620457579	15.242433992857
3	1483	1543.069910838881	14.188278429541
3	1494	1554.478187865939	21.58106363678
3	1495	1554.678093377866	21.062805712331
3	1496	1555.324261225634	18.370403672456
3	1499	1557.06669049958	16.410292140419
3	1500	1562.138907984077	18.385794003893
3	1501	1563.156483536889	18.51397222006
3	1504	1563.514173329964	6.667616547565
3	1507	1568.645972379956	5.142503726053
3	1508	1570.090862008744	3.454886088853
3	1516	1583.865263794625	1.047945665581
3	1527	1595.61815751053	12.216876171942
3	1532	1596.641375897276	12.301749076233
3	1533	1597.822033231803	12.013165022619
3	1534	1598.127460160076	9.426463143948
3	1535	1599.41985339827	9.862114481653
3	1536	1600.154409165947	10.27271858288
3	1539	1602.434681985471	6.426921234867
3	1542	1604.026561611892	7.546884916385
3	1547	1607.409485578529	7.063280169509
3	1548	1610.154006915257	7.35537903464
3	1549	1610.309164847521	4.909773028511
3	1552	1612.43206406703	6.872456227999
3	1557	1614.072954101824	3.545083723464
3	1568	1622.809569919431	10.13212434667
3	1569	1624.239135423612	11.032852035765
3	1570	1626.14174901916	11.575381911692
3	1573	1628.001990125954	8.561220305812
3	1574	1635.169927065309	7.874587295638
3	1577	1640.304443102385	0
3	1580	1641.437018835621	0
3	1583	1644.530564269111	0
3	1589	1664.816434430804	0
3	1598	1671.370435719686	0.496221803727
3	1601	1678.600931100707	0
3	1604	1683.721917981485	0
3	1607	1687.518974363493	3.767554188576
3	1610	1691.795271845853	0
3	1613	1695.889441205197	0
3	1616	1701.723500562912	0
3	1619	1708.91084951857	0
3	1628	1715.9641289151	6.657869769616
3	1629	1716.166253407092	5.462454999003
3	1652	1730.400896390522	19.488580152385
3	1653	1731.4049163638	16.385138150821
3	1656	1735.482249863712	18.07487764984
3	1657	1736.004957522086	18.102710655313
3	1658	1736.876211166081	18.679789272146
3	1659	1736.886932058662	18.545710232919
3	1660	1736.954226953503	15.360656869907
3	1661	1737.575070461657	15.570149549341
3	1662	1742.323222663909	19.586805515261
3	1663	1747.899748720673	17.846907714723
3	1666	1751.730301147507	18.456824012448
3	1667	1752.395825009112	3.007119745975
3	1670	1759.82898042132	6.542237700238
3	1690	1769.279734966846	9.241356930036
3	1693	1770.525482535215	10.062208217388
3	1694	1770.953374192103	6.929727859465
3	1695	1773.825652856924	8.89291152119
3	1698	1775.111845051486	8.452584074308
3	1701	1775.761092930842	6.364443575347
3	1702	1776.782587816114	2.903290510071
3	1703	1779.658976272653	3.980288129728
3	1710	1784.696411714701	4.711055154378
3	1711	1784.785656329942	3.630552952162
3	1712	1784.898889728134	1.439579201131
3	1715	1791.219597017239	0
3	1718	1791.775324045647	0.283881073902
3	1724	1801.555013161073	0
3	1730	1819.05369207005	0
3	1738	1826.510329447485	4.284045321046
3	1739	1827.101286921173	4.493340435421
3	1742	1828.879780111208	0.39850180209
3	1745	1831.768803499891	1.541482442506
3	1748	1832.599378300323	0.541664984667
3	1754	1845.418470582294	0
3	1761	1849.78571787077	2.827502156285
3	1813	1906.014164027049	57.978948666493
3	1814	1906.351758734352	56.568557563337
3	1815	1912.103818329353	58.04659134397
3	1818	1913.621475177462	55.902519860471
3	1819	1913.981316997734	50.723705472125
3	1826	1916.503434694573	48.151648663305
3	1862	1954.060881515639	85.151094940678
3	1863	1954.50708522461	84.827138966969
3	1864	1955.466570600972	80.210662007962
3	1867	1960.864703578047	82.276257033087
3	1891	1985.283699895744	100.7915052729
3	1892	1986.32824666359	101.14011930698
3	1897	1988.645915169073	99.31434828908
3	1898	1989.057785426848	98.073204980723
3	1899	1991.07846397309	90.474582735558
3	1900	1991.540053578484	89.966246734502
3	1901	1993.696571768423	89.123549048851
3	1902	1996.057320899421	83.569873355307
3	1903	1997.072311083548	83.007836377195
3	1914	2003.147295543359	88.907636217406
3	1915	2003.992462000886	88.861164966831
3	1922	2015.724406346336	98.571338856243
3	1923	2017.01043446846	92.195663000265
3	1928	2020.376449903271	94.963079013742
3	1929	2022.320595660352	92.059795225248
3	1930	2022.712988112836	87.646220325831
3	1935	2025.732069605833	75.290393803871
3	1938	2027.576138861929	74.560180688774
3	1939	2028.850708876605	69.402196243849
3	1940	2029.886568880984	67.222266419145
3	1943	2033.294689308376	68.212496702784
3	1944	2034.865329698877	65.551642492577
3	1945	2035.599103016083	66.172615024682
3	1950	2039.622576918197	69.497433259587
3	1951	2040.814785269753	68.460063822435
3	1954	2041.828370227858	63.182395662244
3	1957	2044.134877373076	63.34763923735
3	1958	2045.183956963624	63.009674560926
3	1959	2045.220071948575	61.534950211275
3	1960	2045.944935728018	58.862783858942
3	1961	2045.993435227638	57.875674461587
3	1964	2046.405865132483	47.560231278857
3	1967	2049.662402082864	49.795644936115
3	1970	2050.558598951754	44.981134369972
3	1973	2050.945773558619	44.421849141963
3	1974	2053.932552010673	46.868771499627
3	1977	2056.652460118495	39.043076018678
3	1978	2057.082264061826	38.263634179665
3	1979	2057.555271270716	33.327800385046
3	1980	2058.016067456708	33.5748781573
3	1983	2060.922486135633	34.770120863131
3	1984	2061.542964434066	29.044401369829
3	1985	2063.619043063971	25.011926563782
3	1986	2064.547352693141	24.947331435488
3	1987	2067.833173214247	26.188600037283
3	1990	2070.830483162046	28.297483693108
3	1991	2072.436732373062	26.196771280716
3	2018	2092.054589011416	43.861299789374
3	2029	2105.602203552891	55.892757298486
3	2030	2105.697374877961	54.761665954795
3	2031	2106.426576690254	51.587068394966
3	2032	2108.704823332769	50.457486925365
3	2035	2109.889570678518	39.17049636609
3	2038	2110.923125530537	38.234846315084
3	2041	2116.266647481811	39.71539084783
3	2042	2117.008215970033	35.527471028062
3	2049	2123.060497569359	40.821370699603
3	2052	2123.836340085239	30.441662482083
3	2055	2128.405703631207	32.668853910096
3	2058	2131.881053189106	33.781834080065
3	2061	2134.321628104694	35.316814524805
3	2062	2137.550584822918	32.266421534517
3	2063	2138.173637971195	28.841294546007
3	2064	2139.027522611574	28.889609680738
3	2065	2139.631457559067	26.202496317585
3	2074	2151.611932865036	33.733181849856
3	2075	2152.266450331994	33.180417945587
3	2076	2154.110828469842	33.60569615886
3	2077	2154.294285051358	31.108670409928
3	2078	2154.797996952019	30.629344537324
3	2079	2156.305890698526	25.35138036802
3	2080	2157.345671090013	24.957052150606
3	2086	2162.162641330602	20.967486163754
3	2089	2164.425133228818	21.06489458432
3	2090	2165.350830571274	20.6985100422
3	2093	2165.967338088916	17.436919625585
3	2094	2166.875203801406	5.891275828597
3	2095	2168.147898541901	5.75829018785
3	2096	2169.972630314932	4.085910636187
3	2107	2186.9840067306	15.901708599422
3	2108	2192.982894769143	16.233959976817
3	2111	2198.23279610806	4.051772472892
3	2114	2199.685833528297	1.278047986111
3	2117	2202.59599023384	0
3	2120	2206.570568994062	3.299875193123
3	2125	2213.708500095789	6.334249500095
3	2130	2217.084714869097	7.591803715471
3	2133	2218.360985599595	4.631641205199
3	2134	2218.953033472136	5.027883140524
3	2137	2219.589820890281	2.125611795507
3	2138	2222.920476046368	3.640137930943
3	2141	2228.052181750822	4.553485710594
3	2144	2230.535230728302	0.583416448741
3	2150	2245.418160291442	0
3	2153	2246.751438773742	0.592536081502
3	2159	2247.890599854798	0
3	2165	2251.985778088152	0
3	2168	2260.459909561163	0
3	2171	2264.242660214552	0
3	2174	2267.217004148783	0
3	2177	2270.026419728999	0.553478704638
3	2180	2271.145082506001	0.977400646338
3	2185	2272.213347314006	0.574564132266
3	2186	2272.982575030727	0.887222711192
3	2189	2275.666174366001	2.183649900783
3	2192	2280.870465715191	0
3	2195	2281.358966083288	0.232669028697
3	2198	2284.6304908351	1.018213306347
3	2201	2287.22516473472	1.323513258475
3	2204	2290.298496085297	0
3	2207	2290.908484383288	0.097922477434
3	2210	2295.435464086829	0
3	2213	2312.029104209157	0
3	2216	2314.811968405569	1.966497135874
3	2222	2323.229911663108	0.696363879109
3	2225	2324.663775056081	0
3	2228	2326.664182673786	1.517905526788
3	2235	2329.194703975015	2.495980186237
3	2240	2333.270841749821	6.22753768297
3	2245	2336.493091406947	8.554741662543
3	2246	2337.986005207428	8.714415340689
3	2247	2342.69109635897	10.476500008845
3	2248	2343.985824640311	10.580931287942
3	2255	2350.625310377047	14.686698055863
3	2256	2351.599102087802	5.049636125634
3	2257	2351.653053473572	4.001872890504
3	2258	2353.050371282039	3.875519047328
3	2261	2358.207133007095	0
3	2270	2372.999262440116	0
3	2273	2375.784317949455	0
3	2279	2387.66918414346	2.224658791587
3	2282	2390.590134945876	0.553523668435
3	2285	2398.339944093262	0
3	2288	2403.307604159236	2.542236811412
3	2291	2405.540180481454	0
3	2294	2410.044970106934	0
3	2297	2412.994586421235	2.069540259097
3	2300	2423.415088255126	0
3	2303	2441.657858315428	0
3	2306	2443.892514879079	1.487193397265
3	2312	2448.909281764973	0.477086660638
3	2315	2455.816805291404	0
3	2326	2469.377370717746	7.705623247861
3	2327	2470.306881290712	3.163859136494
3	2355	2490.681188153997	10.044095273958
3	2356	2492.005100803012	8.765129332151
4	317	351.045103288571	71
4	320	357.296062716429	72
4	323	358.52007467754	73
4	324	359.050954250418	74
4	338	369.510693347621	75
4	344	372.773409864865	76
4	345	373.746224339558	77
4	346	373.979834334039	78
4	359	383.410126162681	79
4	360	386.494895207291	80
4	364	390.471940856029	81
4	365	391.214282550052	82
4	366	393.119929902356	83
4	393	424.634722269074	84
4	396	428.129296231675	85
4	397	428.421719826905	86
4	398	429.623463144929	87
4	399	429.664178557238	88
4	408	435.696974016854	89
4	422	451.006087678402	90
4	425	455.370422969934	91
4	426	458.870581086313	92
4	431	462.019331593566	93
4	432	465.135816656336	94
4	435	473.187886955641	95
4	438	481.044872208207	96
4	445	487.88962801755	97
4	446	488.510426517988	98
4	447	488.648994352055	99
4	455	498.947855731531	100
4	456	499.354419903423	101
4	459	515.409675853789	102
4	462	517.333995229022	103
4	465	521.769190542276	104
4	477	525.871495269227	105
4	481	532.558627221605	106
4	482	533.515470562245	107
4	483	537.672565720645	108
4	486	545.273214354623	109
4	492	550.512978206666	110
4	536	588.312689239384	111
4	537	589.565049965269	112
4	541	596.197837420778	113
4	542	598.469191208863	114
4	543	603.996450724839	115
4	548	609.362320842335	116
4	551	610.391892038634	117
4	554	611.966697262556	118
4	555	612.09934504802	119
4	560	620.122592901444	120
4	561	621.296114124825	121
4	564	624.016827296462	122
4	567	624.669914854185	123
4	582	637.925510513081	124
4	583	638.70446751735	125
4	584	640.886063548552	126
4	588	646.700598288356	127
4	598	655.285322034759	128
4	599	656.965477542403	129
4	600	658.205435110958	130
4	605	664.268796298925	131
4	608	666.970771605308	132
4	628	687.89044440593	133
4	629	688.044473032592	134
4	630	688.74752784733	135
4	633	697.152807848054	136
4	643	712.000373773433	137
4	647	716.523353574198	138
4	650	721.081868031887	139
4	651	721.53027830273	140
4	657	729.921608451618	141
4	660	734.036593887081	142
4	671	746.933005513493	143
4	674	748.311855910299	144
4	677	752.549277453316	145
4	678	754.335149184374	146
4	679	754.686903081909	147
4	680	759.133522353998	148
4	681	759.86095972618	149
4	689	766.50478489506	150
4	690	768.361487291459	151
4	695	777.846587836092	152
4	709	790.073006753525	153
4	710	791.570035164004	154
4	711	794.211943718203	155
4	714	797.332717321287	156
4	720	808.827481376112	157
4	723	812.382861054344	158
4	728	818.450511205576	159
4	729	818.55294595444	160
4	738	825.074204636235	161
4	741	826.619060206388	162
4	744	828.126700062156	163
4	747	830.270945435138	164
4	750	835.205639864144	165
4	756	841.944704416882	166
4	759	850.163200220702	167
4	767	856.996294957164	168
4	778	864.187411949943	169
4	779	867.068453535251	170
4	800	879.168913588759	171
4	805	881.106601100495	172
4	806	882.963178909593	173
4	809	888.32757034034	174
4	812	890.922294896834	175
4	813	892.572338747587	176
4	817	893.245349889364	177
4	835	908.045832212465	178
4	839	909.437802172917	179
4	842	911.746407514048	180
4	843	913.181653500606	181
4	844	913.404041646203	182
4	850	919.106207747555	183
4	853	920.960093281169	184
4	854	923.940646615129	185
4	855	926.560259524875	186
4	858	936.795277642298	187
4	876	951.113437658443	188
4	877	951.655013047106	189
4	882	952.501930964893	190
4	892	962.383720124416	191
4	895	966.058812681729	192
4	896	968.203523331066	193
4	897	969.338668890871	194
4	976	1041.939816398516	195
4	977	1044.505525227376	196
4	978	1047.067265156876	197
4	983	1050.452110570284	198
4	984	1052.661186090499	199
4	987	1056.220527711615	200
4	990	1057.704150289783	201
4	993	1059.034086264471	202
4	994	1059.741400904366	203
4	999	1062.183086686296	204
4	1002	1063.875616783198	205
4	1003	1064.581163339935	206
4	1008	1066.287738323453	207
4	1011	1069.123603876922	208
4	1012	1069.214480772594	209
4	1013	1071.149134158523	210
4	1016	1072.356717171971	211
4	1017	1072.896963768959	212
4	1022	1082.108723931943	213
4	1023	1082.199897054049	214
4	1024	1082.714114733794	215
4	1028	1088.064948202483	216
4	1031	1094.354060955703	217
4	1032	1094.518334306783	218
4	1044	1105.237573449047	219
4	1047	1108.840216083218	220
4	1048	1109.887286007022	221
4	1051	1116.114150779368	222
4	1052	1116.176045392406	223
4	1055	1118.353144128279	224
4	1056	1118.508541193291	225
4	1060	1120.296865370811	226
4	1071	1125.740618067136	227
4	1072	1126.064532135944	228
4	1073	1126.999109371461	229
4	1076	1132.139620541513	230
4	1077	1132.547580744087	231
4	1078	1134.011879101005	232
4	1081	1134.287842338923	233
4	1082	1136.442362931342	234
4	1083	1136.981549863665	235
4	1084	1138.037430416896	236
4	1085	1141.153053826215	237
4	1126	1175.818036296495	238
4	1130	1182.282149541915	239
4	1131	1183.029216442805	240
4	1132	1187.260314144652	241
4	1133	1188.10818567359	242
4	1134	1188.8614244032	243
4	1135	1189.180947192555	244
4	1145	1193.550088754991	245
4	1146	1195.042114321452	246
4	1149	1197.717494369232	247
4	1152	1200.309193423686	248
4	1155	1203.865836860043	249
4	1156	1204.038716041193	250
4	1157	1208.186053203467	251
4	1158	1211.372649346167	252
4	1165	1216.674776522166	253
4	1166	1217.551129248656	254
4	1169	1217.792105437632	255
4	1173	1221.254312535127	256
4	1174	1221.856280451826	257
4	1175	1222.92368475046	258
4	1178	1224.356344072955	259
4	1179	1225.122818224862	260
4	1203	1267.171181669384	261
4	1204	1267.309780070105	262
4	1209	1269.165569847116	263
4	1210	1269.671443900732	264
4	1211	1272.990772007498	265
4	1212	1273.009429152185	266
4	1217	1277.063123301221	267
4	1223	1279.478765558822	268
4	1229	1282.55164343687	269
4	1232	1287.753715172259	270
4	1235	1288.702797782069	271
4	1236	1289.560728685157	272
4	1241	1291.169332272086	273
4	1242	1292.262216520856	274
4	1255	1303.009365582842	275
4	1261	1308.100442208462	276
4	1262	1308.450223263902	277
4	1263	1308.964709565813	278
4	1272	1322.26198331468	279
4	1277	1327.051927212029	280
4	1280	1328.036143899335	281
4	1281	1328.793624588704	282
4	1292	1349.996667243488	283
4	1293	1350.000880015684	284
4	1300	1355.554095572197	285
4	1301	1356.962890836778	286
4	1304	1362.342896349619	287
4	1307	1368.008526047291	288
4	1308	1369.85359499739	289
4	1311	1371.663966750309	290
4	1314	1374.0046002421	291
4	1317	1375.071970828491	292
4	1326	1397.419638316037	293
4	1329	1400.996871662235	294
4	1335	1407.447256073977	295
4	1344	1410.389610025576	296
4	1347	1411.733413244365	297
4	1352	1415.118719358921	298
4	1353	1417.099775562013	299
4	1361	1423.13208680219	300
4	1362	1424.218681067911	301
4	1365	1427.424012124394	302
4	1368	1430.143717038386	303
4	1371	1442.480410139354	304
4	1382	1451.972681791141	305
4	1383	1456.263297922102	306
4	1388	1464.18868956046	307
4	1389	1465.496678264254	308
4	1392	1469.524232532791	309
4	1395	1471.546624139247	310
4	1398	1475.929571669209	311
4	1419	1493.26031532217	312
4	1420	1494.249674176942	313
4	1457	1523.260262065193	314
4	1458	1524.886868095647	315
4	1464	1530.261690264865	316
4	1465	1531.717651961202	317
4	1470	1533.626999593099	318
4	1471	1534.030573190381	319
4	1474	1537.491830731926	320
4	1475	1539.143292312472	321
4	1476	1539.930496444099	322
4	1479	1540.67614359404	323
4	1480	1541.42761779444	324
4	1481	1541.47330492493	325
4	1482	1542.350620457579	326
4	1483	1543.069910838881	327
4	1495	1554.678093377866	328
4	1496	1555.324261225634	329
4	1500	1562.138907984077	330
4	1501	1563.156483536889	331
4	1504	1563.514173329964	332
4	1508	1570.090862008744	333
4	1509	1576.764116850404	334
4	1532	1596.641375897276	335
4	1533	1597.822033231803	336
4	1534	1598.127460160076	337
4	1535	1599.41985339827	338
4	1536	1600.154409165947	339
4	1539	1602.434681985471	340
4	1542	1604.026561611892	341
4	1547	1607.409485578529	342
4	1548	1610.154006915257	343
4	1549	1610.309164847521	344
4	1557	1614.072954101824	345
4	1569	1624.239135423612	346
4	1570	1626.14174901916	347
4	1574	1635.169927065309	348
4	1575	1635.604534865001	349
4	1578	1640.355455668048	350
4	1581	1642.196722994095	351
4	1584	1644.539772124374	352
4	1590	1665.084489805683	353
4	1599	1673.657395499943	354
4	1602	1681.886100940314	355
4	1607	1687.518974363493	356
4	1608	1691.713389649098	357
4	1611	1692.054117739425	358
4	1614	1697.668613787702	359
4	1617	1707.748445367476	360
4	1629	1716.166253407092	361
4	1653	1731.4049163638	362
4	1656	1735.482249863712	363
4	1657	1736.004957522086	364
4	1658	1736.876211166081	365
4	1659	1736.886932058662	366
4	1660	1736.954226953503	367
4	1661	1737.575070461657	368
4	1662	1742.323222663909	369
4	1663	1747.899748720673	370
4	1667	1752.395825009112	371
4	1670	1759.82898042132	372
4	1694	1770.953374192103	373
4	1695	1773.825652856924	374
4	1698	1775.111845051486	375
4	1701	1775.761092930842	376
4	1702	1776.782587816114	377
4	1703	1779.658976272653	378
4	1711	1784.785656329942	379
4	1712	1784.898889728134	380
4	1713	1787.537345153107	381
4	1718	1791.775324045647	382
4	1719	1791.852655944901	383
4	1725	1806.487142182144	384
4	1731	1819.274031215352	385
4	1739	1827.101286921173	386
4	1742	1828.879780111208	387
4	1748	1832.599378300323	388
4	1749	1836.964591073261	389
4	1814	1906.351758734352	390
4	1815	1912.103818329353	391
4	1819	1913.981316997734	392
4	1826	1916.503434694573	393
4	1863	1954.50708522461	394
4	1864	1955.466570600972	395
4	1867	1960.864703578047	396
4	1892	1986.32824666359	397
4	1897	1988.645915169073	398
4	1898	1989.057785426848	399
4	1899	1991.07846397309	400
4	1900	1991.540053578484	401
4	1901	1993.696571768423	402
4	1902	1996.057320899421	403
4	1903	1997.072311083548	404
4	1915	2003.992462000886	405
4	1923	2017.01043446846	406
4	1929	2022.320595660352	407
4	1930	2022.712988112836	408
4	1939	2028.850708876605	409
4	1940	2029.886568880984	410
4	1943	2033.294689308376	411
4	1944	2034.865329698877	412
4	1945	2035.599103016083	413
4	1950	2039.622576918197	414
4	1951	2040.814785269753	415
4	1957	2044.134877373076	416
4	1958	2045.183956963624	417
4	1959	2045.220071948575	418
4	1960	2045.944935728018	419
4	1961	2045.993435227638	420
4	1964	2046.405865132483	421
4	1970	2050.558598951754	422
4	1974	2053.932552010673	423
4	1977	2056.652460118495	424
4	1978	2057.082264061826	425
4	1979	2057.555271270716	426
4	1980	2058.016067456708	427
4	1983	2060.922486135633	428
4	1984	2061.542964434066	429
4	1985	2063.619043063971	430
4	1986	2064.547352693141	431
4	1987	2067.833173214247	432
4	1990	2070.830483162046	433
4	1991	2072.436732373062	434
4	2030	2105.697374877961	435
4	2031	2106.426576690254	436
4	2032	2108.704823332769	437
4	2035	2109.889570678518	438
4	2038	2110.923125530537	439
4	2041	2116.266647481811	440
4	2042	2117.008215970033	441
4	2055	2128.405703631207	442
4	2058	2131.881053189106	443
4	2062	2137.550584822918	444
4	2063	2138.173637971195	445
4	2064	2139.027522611574	446
4	2065	2139.631457559067	447
4	2074	2151.611932865036	448
4	2075	2152.266450331994	449
4	2076	2154.110828469842	450
4	2077	2154.294285051358	451
4	2078	2154.797996952019	452
4	2079	2156.305890698526	453
4	2080	2157.345671090013	454
4	2089	2164.425133228818	455
4	2090	2165.350830571274	456
4	2093	2165.967338088916	457
4	2094	2166.875203801406	458
4	2095	2168.147898541901	459
4	2096	2169.972630314932	460
4	2108	2192.982894769143	461
4	2114	2199.685833528297	462
4	2115	2202.334461351563	463
4	2120	2206.570568994062	464
4	2133	2218.360985599595	465
4	2134	2218.953033472136	466
4	2137	2219.589820890281	467
4	2138	2222.920476046368	468
4	2141	2228.052181750822	469
4	2144	2230.535230728302	470
4	2145	2230.581377295344	471
4	2154	2247.083670667751	472
4	2160	2250.489155614547	473
4	2166	2254.995480030976	474
4	2169	2262.103617239756	475
4	2172	2265.560608880811	476
4	2186	2272.982575030727	477
4	2189	2275.666174366001	478
4	2190	2276.568417392202	479
4	2198	2284.6304908351	480
4	2201	2287.22516473472	481
4	2202	2289.891533797243	482
4	2207	2290.908484383288	483
4	2208	2292.005166124405	484
4	2211	2302.931218481854	485
4	2216	2314.811968405569	486
4	2217	2317.034674706758	487
4	2223	2323.586484591635	488
4	2246	2337.986005207428	489
4	2247	2342.69109635897	490
4	2248	2343.985824640311	491
4	2255	2350.625310377047	492
4	2256	2351.599102087802	493
4	2257	2351.653053473572	494
4	2258	2353.050371282039	495
4	2259	2353.334158615397	496
4	2262	2360.873890345658	497
4	2271	2374.755530846824	498
4	2274	2378.654004587397	499
4	2282	2390.590134945876	500
4	2283	2391.616838595424	501
4	2288	2403.307604159236	502
4	2289	2404.114613751324	503
4	2292	2407.75118281949	504
4	2297	2412.994586421235	505
4	2298	2418.526569545815	506
4	2301	2426.826948489616	507
4	2306	2443.892514879079	508
4	2307	2443.956396144826	509
4	2313	2450.380462887651	510
4	2316	2456.416810535069	511
4	2327	2470.306881290712	512
4	2328	2472.112538902253	513
4	2356	2492.005100803012	514
5	317	351.045103288571	1
5	319	352.538185361125	1
5	320	357.296062716429	1
5	322	357.974004600256	1
5	323	358.52007467754	1
5	324	359.050954250418	0
5	326	360.343383422695	0
5	330	361.899545784258	1
5	332	365.525185847013	2
5	335	369.107595367421	3
5	337	369.411119012257	4
5	338	369.510693347621	4
5	342	372.034143618399	4
5	344	372.773409864865	4
5	345	373.746224339558	3
5	346	373.979834334039	2
5	353	378.242442311186	2
5	355	380.736692611169	3
5	357	381.113047137964	4
5	359	383.410126162681	4
5	360	386.494895207291	3
5	364	390.471940856029	2
5	365	391.214282550052	1
5	366	393.119929902356	0
5	373	399.862288162599	0
5	384	410.573623506539	1
5	388	411.900711252641	2
5	390	418.374902273101	3
5	393	424.634722269074	3
5	395	426.539451596166	3
5	396	428.129296231675	3
5	397	428.421719826905	2
5	398	429.623463144929	1
5	399	429.664178557238	0
5	407	435.499235349788	0
5	408	435.696974016854	0
5	413	440.415366961983	0
5	420	446.608717597328	1
5	422	451.006087678402	1
5	424	453.334433498462	1
5	425	455.370422969934	1
5	426	458.870581086313	0
5	428	459.311645286711	0
5	430	459.624174739959	1
5	431	462.019331593566	1
5	432	465.135816656336	0
5	434	472.927823863035	0
5	435	473.187886955641	0
5	437	473.344055744072	0
5	438	481.044872208207	0
5	440	484.015561654052	0
5	442	485.076203359682	1
5	444	485.575150216248	2
5	445	487.88962801755	2
5	446	488.510426517988	1
5	447	488.648994352055	0
5	451	494.196716998797	0
5	454	497.245311841418	1
5	455	498.947855731531	1
5	456	499.354419903423	0
5	458	513.562612805819	0
5	459	515.409675853789	0
5	461	516.956107988072	0
5	462	517.333995229022	0
5	464	521.654228218305	0
5	465	521.769190542276	0
5	467	522.231133813662	0
5	469	522.81642409005	1
5	474	523.651034561632	2
5	476	523.918929743684	3
5	477	525.871495269227	3
5	481	532.558627221605	2
5	482	533.515470562245	1
5	483	537.672565720645	0
5	485	544.684319854164	0
5	486	545.273214354623	0
5	491	550.035555949114	0
5	492	550.512978206666	0
5	496	551.619807072044	0
5	505	560.991661353786	1
5	517	572.364171413526	2
5	527	583.568646333931	3
5	529	584.465683242173	4
5	536	588.312689239384	4
5	537	589.565049965269	3
5	541	596.197837420778	2
5	542	598.469191208863	1
5	543	603.996450724839	0
5	545	604.316072167871	0
5	547	605.025954307567	1
5	548	609.362320842335	1
5	550	609.629455451047	1
5	551	610.391892038634	1
5	553	611.538345337966	1
5	554	611.966697262556	1
5	555	612.09934504802	0
5	557	617.225295686315	0
5	559	619.061971789861	1
5	560	620.122592901444	1
5	561	621.296114124825	0
5	563	621.464435147374	0
5	564	624.016827296462	0
5	566	624.205819631461	0
5	567	624.669914854185	0
5	569	625.689711922884	0
5	573	627.699541015526	1
5	575	631.68629340887	2
5	581	635.883814255571	3
5	582	637.925510513081	3
5	583	638.70446751735	2
5	584	640.886063548552	1
5	588	646.700598288356	0
5	590	646.752245406877	0
5	592	647.252920048787	1
5	597	655.008441680965	2
5	598	655.285322034759	2
5	599	656.965477542403	1
5	600	658.205435110958	0
5	602	663.005322335122	0
5	604	663.065082645031	1
5	605	664.268796298925	1
5	607	664.62944185917	1
5	608	666.970771605308	1
5	612	669.998168977341	1
5	622	682.117127609496	2
5	628	687.89044440593	2
5	629	688.044473032592	1
5	630	688.74752784733	0
5	632	692.625860870347	0
5	633	697.152807848054	0
5	637	704.226754867332	0
5	639	705.270675880591	1
5	641	705.35060025972	2
5	643	712.000373773433	2
5	647	716.523353574198	1
5	649	718.958119855046	1
5	650	721.081868031887	1
5	651	721.53027830273	0
5	656	728.567993029483	0
5	657	729.921608451618	0
5	659	731.931540681356	0
5	660	734.036593887081	0
5	662	737.560525646697	0
5	664	742.849339384175	1
5	666	743.041382140998	2
5	668	744.327310151192	3
5	670	746.175009987213	4
5	671	746.933005513493	4
5	673	747.240829595903	4
5	674	748.311855910299	4
5	676	751.394256715943	4
5	677	752.549277453316	4
5	678	754.335149184374	3
5	679	754.686903081909	2
5	680	759.133522353998	1
5	681	759.86095972618	0
5	683	760.652692934568	0
5	688	765.160659608222	1
5	689	766.50478489506	1
5	690	768.361487291459	0
5	692	770.870028479427	0
5	694	776.579925499201	1
5	695	777.846587836092	1
5	703	784.289391320068	1
5	708	789.293623671526	2
5	709	790.073006753525	2
5	710	791.570035164004	1
5	711	794.211943718203	0
5	713	794.786965198185	0
5	714	797.332717321287	0
5	719	808.747045762649	0
5	720	808.827481376112	0
5	722	811.421613402947	0
5	723	812.382861054344	0
5	725	818.101893868606	0
5	727	818.11180245399	1
5	728	818.450511205576	1
5	729	818.55294595444	0
5	737	824.941428871736	0
5	738	825.074204636235	0
5	740	826.374332699543	0
5	741	826.619060206388	0
5	743	826.950745019075	0
5	744	828.126700062156	0
5	746	828.140828505412	0
5	747	830.270945435138	0
5	749	831.543318819644	0
5	750	835.205639864144	0
5	754	838.454730914271	0
5	756	841.944704416882	0
5	758	848.532410707696	0
5	759	850.163200220702	0
5	764	856.661602956161	0
5	766	856.753721927261	1
5	767	856.996294957164	1
5	769	857.157609703085	1
5	771	858.167601408558	2
5	778	864.187411949943	2
5	779	867.068453535251	1
5	781	867.347577614902	1
5	783	867.945324916174	2
5	785	869.238645059681	3
5	798	878.835393398252	4
5	800	879.168913588759	4
5	802	879.515228445656	4
5	804	879.763565445999	5
5	805	881.106601100495	5
5	806	882.963178909593	4
5	808	886.991846669266	4
5	809	888.32757034034	4
5	811	890.451874774909	4
5	812	890.922294896834	4
5	813	892.572338747587	3
5	817	893.245349889364	2
5	821	895.108411829092	2
5	823	898.605142312676	3
5	825	899.695336149324	4
5	832	906.930382731907	5
5	835	908.045832212465	5
5	839	909.437802172917	4
5	841	911.601990258189	4
5	842	911.746407514048	4
5	843	913.181653500606	3
5	844	913.404041646203	2
5	846	913.736549399595	2
5	850	919.106207747555	2
5	852	920.723396375222	2
5	853	920.960093281169	2
5	854	923.940646615129	1
5	855	926.560259524875	0
5	857	934.122089867887	0
5	858	936.795277642298	0
5	867	943.834945516393	0
5	869	945.612651435582	1
5	872	946.892220759474	2
5	875	950.897324834736	3
5	876	951.113437658443	3
5	877	951.655013047106	2
5	879	951.688230699057	2
5	881	951.984620658234	3
5	882	952.501930964893	3
5	884	952.962441884576	3
5	886	957.485572085163	4
5	891	960.766211761658	5
5	892	962.383720124416	5
5	894	965.916927580629	5
5	895	966.058812681729	5
5	896	968.203523331066	4
5	897	969.338668890871	3
5	907	980.991559078682	3
5	911	987.749942376454	4
5	913	988.061409006432	5
5	915	988.58217442228	6
5	917	989.751965272884	7
5	921	991.865852748211	8
5	931	999.675961330131	9
5	934	1005.519858809911	10
5	937	1013.084410917545	11
5	941	1014.089866042112	12
5	950	1016.5240864042	13
5	952	1016.53680879539	14
5	957	1025.229522800702	15
5	961	1026.786352273776	16
5	963	1026.978524786194	17
5	967	1032.98387073715	18
5	969	1033.234112456686	19
5	973	1035.948570484855	20
5	976	1041.939816398516	20
5	977	1044.505525227376	19
5	978	1047.067265156876	18
5	980	1047.654605995605	18
5	982	1049.576121227809	19
5	983	1050.452110570284	19
5	984	1052.661186090499	18
5	986	1055.747386961677	18
5	987	1056.220527711615	18
5	989	1056.939908127811	18
5	990	1057.704150289783	18
5	992	1058.134688639302	18
5	993	1059.034086264471	18
5	994	1059.741400904366	17
5	996	1060.011977189619	17
5	998	1061.561451180913	18
5	999	1062.183086686296	18
5	1001	1063.875120915254	18
5	1002	1063.875616783198	18
5	1003	1064.581163339935	17
5	1005	1065.039283591974	17
5	1007	1065.74757770225	18
5	1008	1066.287738323453	18
5	1010	1066.312387494203	18
5	1011	1069.123603876922	18
5	1012	1069.214480772594	17
5	1013	1071.149134158523	16
5	1015	1071.967540321668	16
5	1016	1072.356717171971	16
5	1017	1072.896963768959	15
5	1019	1075.308099467784	15
5	1021	1078.872877023405	16
5	1022	1082.108723931943	16
5	1023	1082.199897054049	15
5	1024	1082.714114733794	14
5	1028	1088.064948202483	13
5	1030	1088.30059096618	13
5	1031	1094.354060955703	13
5	1032	1094.518334306783	12
5	1036	1098.040064209259	12
5	1038	1098.324335838623	13
5	1040	1098.326155063484	14
5	1043	1098.726153073618	15
5	1044	1105.237573449047	15
5	1046	1106.277397623596	15
5	1047	1108.840216083218	15
5	1048	1109.887286007022	14
5	1050	1110.032735938937	14
5	1051	1116.114150779368	14
5	1052	1116.176045392406	13
5	1054	1117.890922497395	13
5	1055	1118.353144128279	13
5	1056	1118.508541193291	12
5	1060	1120.296865370811	11
5	1066	1123.629131335455	11
5	1068	1123.960576375919	12
5	1071	1125.740618067136	12
5	1072	1126.064532135944	11
5	1073	1126.999109371461	10
5	1075	1131.304878575441	10
5	1076	1132.139620541513	10
5	1077	1132.547580744087	9
5	1078	1134.011879101005	8
5	1080	1134.115640012	8
5	1081	1134.287842338923	8
5	1082	1136.442362931342	7
5	1083	1136.981549863665	6
5	1084	1138.037430416896	5
5	1085	1141.153053826215	4
5	1091	1142.181231972746	4
5	1094	1144.30848207175	5
5	1096	1144.384004269939	6
5	1103	1153.599538864153	7
5	1108	1160.417672216437	8
5	1114	1163.727121763337	9
5	1118	1167.325979817746	10
5	1121	1168.823270357617	11
5	1126	1175.818036296495	11
5	1130	1182.282149541915	10
5	1131	1183.029216442805	9
5	1132	1187.260314144652	8
5	1133	1188.10818567359	7
5	1134	1188.8614244032	6
5	1135	1189.180947192555	5
5	1139	1191.015009460587	5
5	1141	1191.636738637091	6
5	1143	1192.225047968246	7
5	1145	1193.550088754991	7
5	1146	1195.042114321452	6
5	1148	1197.012483814068	6
5	1149	1197.717494369232	6
5	1151	1198.956933267582	6
5	1152	1200.309193423686	6
5	1154	1201.124172997532	6
5	1155	1203.865836860043	6
5	1156	1204.038716041193	5
5	1157	1208.186053203467	4
5	1158	1211.372649346167	3
5	1160	1211.83420108093	3
5	1162	1215.436358896201	4
5	1164	1215.53253137478	5
5	1165	1216.674776522166	5
5	1166	1217.551129248656	4
5	1168	1217.783789676353	4
5	1169	1217.792105437632	4
5	1173	1221.254312535127	3
5	1174	1221.856280451826	2
5	1175	1222.92368475046	1
5	1177	1223.829318857997	1
5	1178	1224.356344072955	1
5	1179	1225.122818224862	0
5	1185	1243.561269029686	0
5	1190	1250.390658780109	1
5	1194	1252.992395143786	2
5	1198	1259.88766813902	3
5	1203	1267.171181669384	3
5	1204	1267.309780070105	2
5	1206	1268.020435241583	2
5	1208	1268.614873560905	3
5	1209	1269.165569847116	3
5	1210	1269.671443900732	2
5	1211	1272.990772007498	1
5	1212	1273.009429152185	0
5	1214	1274.262610600661	0
5	1216	1276.51684746418	1
5	1217	1277.063123301221	1
5	1221	1278.077787423246	1
5	1223	1279.478765558822	1
5	1228	1281.642948511559	1
5	1229	1282.55164343687	1
5	1231	1285.11787233881	1
5	1232	1287.753715172259	1
5	1234	1287.810410515391	1
5	1235	1288.702797782069	1
5	1236	1289.560728685157	0
5	1238	1290.405673990128	0
5	1240	1290.971465246988	1
5	1241	1291.169332272086	1
5	1242	1292.262216520856	0
5	1248	1297.485822674653	0
5	1251	1300.27329107248	1
5	1253	1302.529868225048	2
5	1255	1303.009365582842	2
5	1259	1305.066149732612	2
5	1261	1308.100442208462	2
5	1262	1308.450223263902	1
5	1263	1308.964709565813	0
5	1268	1315.576624230646	0
5	1272	1322.26198331468	0
5	1274	1323.36325422365	0
5	1276	1326.450716093285	1
5	1277	1327.051927212029	1
5	1279	1327.246266371024	1
5	1280	1328.036143899335	1
5	1281	1328.793624588704	0
5	1288	1340.97634019129	0
5	1290	1341.977767582585	1
5	1292	1349.996667243488	1
5	1293	1350.000880015684	0
5	1295	1351.469693141169	0
5	1297	1352.586788032956	1
5	1299	1354.478036345329	2
5	1300	1355.554095572197	2
5	1301	1356.962890836778	1
5	1303	1361.37035121367	1
5	1304	1362.342896349619	1
5	1306	1364.692384610592	1
5	1307	1368.008526047291	1
5	1308	1369.85359499739	0
5	1310	1370.11039887997	0
5	1311	1371.663966750309	0
5	1313	1372.702983229819	0
5	1314	1374.0046002421	0
5	1316	1374.827568826768	0
5	1317	1375.071970828491	0
5	1325	1396.361033469095	0
5	1326	1397.419638316037	0
5	1328	1400.068017007313	0
5	1329	1400.996871662235	0
5	1333	1403.219584944091	0
5	1335	1407.447256073977	0
5	1339	1409.341719007296	0
5	1344	1410.389610025576	0
5	1346	1411.404346270392	0
5	1347	1411.733413244365	0
5	1349	1411.873894118075	0
5	1351	1414.849179048815	1
5	1352	1415.118719358921	1
5	1353	1417.099775562013	0
5	1358	1421.921511840467	0
5	1360	1422.8734778235	1
5	1361	1423.13208680219	1
5	1362	1424.218681067911	0
5	1364	1425.643679964161	0
5	1365	1427.424012124394	0
5	1367	1429.899618402895	0
5	1368	1430.143717038386	0
5	1370	1440.567146530059	0
5	1371	1442.480410139354	0
5	1375	1446.897216976337	0
5	1379	1448.813978104764	1
5	1382	1451.972681791141	1
5	1383	1456.263297922102	0
5	1385	1459.966486694426	0
5	1387	1461.214577282259	1
5	1388	1464.18868956046	1
5	1389	1465.496678264254	0
5	1391	1468.991936755159	0
5	1392	1469.524232532791	0
5	1394	1470.741974527273	0
5	1395	1471.546624139247	0
5	1397	1474.056072832843	0
5	1398	1475.929571669209	0
5	1402	1477.813768703269	0
5	1404	1479.684603581258	1
5	1406	1480.56227458634	2
5	1408	1486.505757625615	3
5	1410	1487.121436255855	4
5	1416	1491.453650246077	5
5	1418	1492.155001436897	6
5	1419	1493.26031532217	6
5	1420	1494.249674176942	5
5	1422	1494.62265954652	5
5	1426	1498.426423198579	6
5	1434	1501.504386625081	7
5	1439	1504.738591596593	8
5	1443	1509.516162704044	9
5	1445	1512.787451103677	10
5	1447	1513.477442094396	11
5	1449	1514.854319877224	12
5	1455	1519.305968596895	13
5	1457	1523.260262065193	13
5	1458	1524.886868095647	12
5	1463	1528.88163240934	12
5	1464	1530.261690264865	12
5	1465	1531.717651961202	11
5	1467	1532.897124229159	11
5	1469	1533.615287665535	12
5	1470	1533.626999593099	12
5	1471	1534.030573190381	11
5	1473	1536.953857553178	11
5	1474	1537.491830731926	11
5	1475	1539.143292312472	10
5	1476	1539.930496444099	9
5	1478	1540.656398359161	9
5	1479	1540.67614359404	9
5	1480	1541.42761779444	8
5	1481	1541.47330492493	7
5	1482	1542.350620457579	6
5	1483	1543.069910838881	5
5	1487	1544.642511316829	5
5	1495	1554.678093377866	5
5	1496	1555.324261225634	4
5	1500	1562.138907984077	3
5	1501	1563.156483536889	2
5	1503	1563.503468653903	2
5	1504	1563.514173329964	2
5	1508	1570.090862008744	1
5	1509	1576.764116850404	0
5	1513	1582.817318129044	0
5	1515	1583.401281338588	1
5	1518	1584.339626821043	2
5	1520	1585.808868209184	3
5	1524	1589.557738916617	4
5	1526	1589.881690583067	5
5	1529	1596.007760750604	6
5	1531	1596.479676695507	7
5	1532	1596.641375897276	7
5	1533	1597.822033231803	6
5	1534	1598.127460160076	5
5	1535	1599.41985339827	4
5	1536	1600.154409165947	3
5	1538	1600.34620540902	3
5	1539	1602.434681985471	3
5	1541	1602.798627880617	3
5	1542	1604.026561611892	3
5	1544	1605.39939181901	3
5	1546	1605.559607839031	4
5	1547	1607.409485578529	4
5	1548	1610.154006915257	3
5	1549	1610.309164847521	2
5	1554	1612.677445572761	2
5	1556	1613.206283387847	3
5	1557	1614.072954101824	3
5	1565	1619.440769820142	3
5	1569	1624.239135423612	3
5	1570	1626.14174901916	2
5	1574	1635.169927065309	1
5	1575	1635.604534865001	0
5	1577	1640.304443102385	0
5	1578	1640.355455668048	0
5	1580	1641.437018835621	0
5	1581	1642.196722994095	0
5	1583	1644.530564269111	0
5	1584	1644.539772124374	0
5	1589	1664.816434430804	0
5	1590	1665.084489805683	0
5	1597	1670.874213915959	0
5	1599	1673.657395499943	0
5	1601	1678.600931100707	0
5	1602	1681.886100940314	0
5	1604	1683.721917981485	0
5	1606	1683.751420174917	1
5	1607	1687.518974363493	1
5	1608	1691.713389649098	0
5	1610	1691.795271845853	0
5	1611	1692.054117739425	0
5	1613	1695.889441205197	0
5	1614	1697.668613787702	0
5	1616	1701.723500562912	0
5	1617	1707.748445367476	0
5	1619	1708.91084951857	0
5	1621	1709.306259145484	1
5	1623	1710.703798408089	2
5	1625	1710.912316238137	3
5	1629	1716.166253407092	3
5	1633	1717.902246866773	3
5	1635	1718.196421893935	4
5	1637	1718.341221825743	5
5	1642	1721.593570083596	6
5	1646	1722.004920912316	7
5	1648	1722.736417148648	8
5	1651	1730.05284100595	9
5	1653	1731.4049163638	9
5	1655	1733.273477135059	9
5	1656	1735.482249863712	9
5	1657	1736.004957522086	8
5	1658	1736.876211166081	7
5	1659	1736.886932058662	6
5	1660	1736.954226953503	5
5	1661	1737.575070461657	4
5	1662	1742.323222663909	3
5	1663	1747.899748720673	2
5	1667	1752.395825009112	1
5	1669	1753.286742721082	1
5	1670	1759.82898042132	1
5	1674	1760.463274317827	1
5	1681	1764.023646332638	2
5	1683	1764.932741335734	3
5	1686	1766.659260977178	4
5	1694	1770.953374192103	4
5	1695	1773.825652856924	3
5	1697	1773.879297306043	3
5	1698	1775.111845051486	3
5	1700	1775.678688142925	3
5	1701	1775.761092930842	3
5	1702	1776.782587816114	2
5	1703	1779.658976272653	1
5	1705	1779.985356560323	1
5	1707	1781.15510337778	2
5	1711	1784.785656329942	2
5	1712	1784.898889728134	1
5	1713	1787.537345153107	0
5	1715	1791.219597017239	0
5	1717	1791.491442971745	1
5	1718	1791.775324045647	1
5	1719	1791.852655944901	0
5	1724	1801.555013161073	0
5	1725	1806.487142182144	0
5	1730	1819.05369207005	0
5	1731	1819.274031215352	0
5	1735	1822.226284126439	0
5	1737	1822.607946485752	1
5	1739	1827.101286921173	1
5	1741	1828.481278309118	1
5	1742	1828.879780111208	1
5	1747	1832.057713315656	1
5	1748	1832.599378300323	1
5	1749	1836.964591073261	0
5	1754	1845.418470582294	0
5	1758	1848.035215360556	1
5	1760	1849.783201171015	2
5	1763	1854.057226985383	3
5	1769	1863.257611525609	4
5	1778	1868.351786031268	5
5	1780	1868.909786574961	6
5	1782	1869.679946257641	7
5	1786	1875.25590859301	8
5	1790	1878.58844654496	9
5	1792	1884.492194622839	10
5	1794	1885.18812735661	11
5	1800	1889.331566879993	12
5	1802	1890.984580446125	13
[...]
7	1760	1849.783201171015	3
7	1763	1854.057226985383	4
7	1769	1863.257611525609	5
7	1778	1868.351786031268	6
7	1780	1868.909786574961	7
7	1782	1869.679946257641	8
7	1786	1875.25590859301	9
7	1790	1878.58844654496	10
7	1792	1884.492194622839	11
7	1794	1885.18812735661	12
7	1800	1889.331566879993	13
7	1802	1890.984580446125	14
7	1807	1900.603881237532	15
7	1809	1901.573806843982	16
7	1811	1904.573022719572	17
7	1821	1914.064474706353	15
7	1823	1914.239659325953	16
7	1825	1915.131297034055	17
7	1828	1917.153067490093	17
7	1834	1925.413370889529	18
7	1842	1930.260800435104	19
7	1848	1935.066767787005	20
7	1857	1950.441675801962	21
7	1860	1953.015958173155	22
7	1866	1959.448512632756	21
7	1871	1965.082192605592	21
7	1873	1969.3136872063	22
7	1877	1969.426487991401	23
7	1879	1970.12514365861	24
7	1881	1972.354721447318	25
7	1883	1978.645974565614	26
7	1885	1980.787238135726	27
7	1887	1982.174282402698	28
7	1890	1983.6851217373	29
7	1894	1987.082151869076	29
7	1896	1988.117760766051	30
7	1910	1999.866757146749	24
7	1917	2005.577464581782	24
7	1921	2007.063780511046	25
7	1925	2017.609384099817	25
7	1932	2024.22747088567	24
7	1942	2032.498563064237	23
7	1947	2038.607116500189	21
7	1949	2039.600021257653	22
7	1956	2042.532999468938	21
7	1963	2046.239961092346	17
7	1969	2049.709446254405	17
7	1976	2054.839508295288	16
7	1982	2058.247336407404	13
7	1989	2070.719074312428	9
7	2002	2076.551256633981	8
7	2011	2081.480744941971	9
7	2013	2082.239126869756	10
7	2022	2095.736849721111	11
7	2024	2098.099219109041	12
7	2026	2099.004813579889	13
7	2028	2105.284163288401	14
7	2034	2109.332343425188	12
7	2037	2110.137912930836	12
7	2040	2113.428961241482	12
7	2044	2117.87875101518	11
7	2048	2120.505132310982	12
7	2054	2124.168652414695	13
7	2057	2130.954510330506	13
7	2067	2141.195155166848	9
7	2069	2143.360238644498	10
7	2071	2144.652320529074	11
7	2073	2148.530418463331	12
7	2088	2162.389608354051	6
7	2092	2165.886719678745	5
7	2100	2176.748934792326	2
7	2113	2198.407785542186	2
7	2117	2202.59599023384	1
7	2119	2203.270693800939	2
7	2122	2207.374250595694	2
7	2127	2213.729344394396	3
7	2132	2217.464209094774	4
7	2136	2219.280338115425	3
7	2140	2223.498696040228	2
7	2143	2229.951814279561	2
7	2150	2245.418160291442	1
7	2159	2247.890599854798	1
7	2165	2251.985778088152	1
7	2168	2260.459909561163	1
7	2171	2264.242660214552	1
7	2174	2267.217004148783	1
7	2182	2271.63878318174	2
7	2188	2273.482524465218	2
7	2192	2280.870465715191	1
7	2197	2283.612277528753	2
7	2200	2285.901651476245	2
7	2204	2290.298496085297	1
7	2206	2290.810561905854	2
7	2210	2295.435464086829	1
7	2213	2312.029104209157	1
7	2215	2312.845471269695	2
7	2221	2322.533547783999	1
7	2225	2324.663775056081	1
7	2232	2327.043304066851	2
7	2234	2327.938349744404	3
7	2237	2329.271589866739	4
7	2244	2335.938612321184	5
7	2250	2346.549465962168	3
7	2252	2347.651180583068	4
7	2254	2349.174852234711	5
7	2261	2358.207133007095	1
7	2270	2372.999262440116	1
7	2273	2375.784317949455	1
7	2278	2385.444525351873	1
7	2281	2390.036611277441	2
7	2285	2398.339944093262	1
7	2287	2400.765367347824	2
7	2291	2405.540180481454	1
7	2294	2410.044970106934	1
7	2296	2410.925046162138	2
7	2300	2423.415088255126	1
7	2303	2441.657858315428	1
7	2305	2442.405321481814	2
7	2311	2448.432195104335	1
7	2315	2455.816805291404	1
7	2322	2461.671747469885	1
7	2325	2467.143022154218	2
7	2340	2480.637092880039	1
7	2347	2483.239971470861	2
7	2349	2485.059237389773	3
8	328	360.409283811401	1
8	340	371.173503734935	1
8	348	376.19599468781	1
8	351	377.948662242251	1
8	362	387.831044191754	1
8	368	395.04026741644	1
8	370	395.40678837798	2
8	375	403.525662631662	2
8	378	407.091095707291	2
8	380	409.825669589371	3
8	382	410.313930014622	4
8	401	430.49840349668	1
8	404	435.153916374813	1
8	410	437.379970209784	1
8	415	440.423712324732	1
8	418	446.535078190184	1
8	449	493.127333277703	1
8	471	522.919973343766	1
8	479	527.947644250368	1
8	488	547.064017488764	1
8	494	550.739054872564	1
8	498	551.757633159105	2
8	500	554.256373907472	3
8	502	556.226346577834	4
8	507	563.039027326864	4
8	511	568.639468796434	3
8	513	569.235643970711	4
8	519	575.374575279457	3
8	522	578.795254539745	3
8	525	581.915004590374	3
8	531	584.59315053204	4
8	539	594.333336005154	1
8	571	627.418721012098	1
8	577	632.218020867006	2
8	586	641.780658871784	1
8	594	647.462070929159	1
8	610	667.309493403745	1
8	614	675.724615060903	2
8	617	676.668658769998	2
8	620	682.003934191433	2
8	624	683.617235247999	3
8	635	703.811654052786	1
8	645	714.976615598601	1
8	653	722.64500892872	1
8	685	761.273492518352	1
8	697	782.366044891507	1
8	699	782.601019156934	2
8	701	783.579064935801	3
8	716	807.407876331147	1
8	731	820.861755107194	1
8	733	821.459799917703	2
8	752	836.154603739412	1
8	761	850.246771939846	1
8	773	862.885902373897	1
8	775	863.553743492777	2
8	787	870.88255346745	1
8	790	873.83611358819	1
8	792	875.082885501818	2
8	796	876.941456615925	1
8	815	892.928388602948	1
8	819	895.099100078108	1
8	827	900.895113712182	2
8	829	902.021839417516	3
8	837	908.113117590851	1
8	848	915.469272871588	1
8	860	942.09346134393	1
8	862	942.156120051135	2
8	864	942.339694740398	3
8	888	957.975027695413	1
8	899	973.563066403077	1
8	901	975.056317299243	2
8	903	975.780107577378	3
8	905	976.913420634174	4
8	909	987.670625241841	5
8	923	993.284819736379	4
8	925	994.618843071189	5
8	927	997.090297090786	6
8	929	998.087854874931	7
8	944	1016.157706749793	3
8	946	1016.356808757721	4
8	948	1016.415729162452	5
8	955	1025.037997592616	5
8	959	1026.643475602598	6
8	1026	1083.273712009621	1
8	1034	1095.258386564379	1
8	1058	1119.171322462318	1
8	1062	1120.768432521426	1
8	1064	1121.233298298426	2
8	1087	1141.696038396732	1
8	1089	1141.97171976986	2
8	1098	1149.186902802394	2
8	1101	1152.093990049477	2
8	1105	1157.624369222406	3
8	1110	1160.432939703849	3
8	1112	1160.624445586746	4
8	1123	1170.723509676108	2
8	1128	1177.542138996658	1
8	1137	1189.547606851514	1
8	1171	1218.851571102707	1
8	1181	1237.51137602908	1
8	1183	1241.754850078178	2
8	1187	1246.82248801478	3
8	1192	1252.053644648257	3
8	1200	1260.268802235598	2
8	1219	1277.925418064961	1
8	1225	1280.43284342461	1
8	1244	1292.951016551003	1
8	1246	1296.486738682005	2
8	1257	1303.153188973806	1
8	1265	1313.740786481238	1
8	1270	1316.39013935346	1
8	1283	1329.73446412743	1
8	1286	1340.881773789299	1
8	1319	1379.162156647238	1
8	1321	1387.805182179456	2
8	1331	1402.736864065567	1
8	1337	1408.685926029236	1
8	1341	1409.419570943823	2
8	1355	1418.011894498142	1
8	1373	1444.216694327778	1
8	1377	1447.94324536589	2
8	1400	1476.897292679376	1
8	1412	1487.454871551072	2
8	1424	1497.547881882029	1
8	1428	1498.501440355677	2
8	1431	1499.410361505714	2
8	1436	1503.987185299263	2
8	1441	1506.678973331682	2
8	1451	1515.169294602837	3
8	1460	1527.108186464722	1
8	1485	1543.753113980184	1
8	1489	1547.588379641401	2
8	1492	1553.872904737098	2
8	1498	1556.846556782399	1
8	1506	1566.635975919891	1
8	1511	1580.544060030215	1
8	1522	1588.700997016128	1
8	1551	1610.52787037836	1
8	1559	1614.566367107468	1
8	1561	1617.707324717466	2
8	1563	1619.183222695166	3
8	1572	1627.295339769671	1
8	1586	1650.744215570874	1
8	1592	1666.40924544859	1
8	1595	1669.006926820633	1
8	1627	1715.019778212979	1
8	1631	1717.407372213872	1
8	1639	1720.038016141211	2
8	1644	1721.995534845175	2
8	1665	1749.388705263137	1
8	1672	1760.03837803681	1
8	1676	1762.270339841964	2
8	1679	1762.794219298681	2
8	1688	1768.43727068518	2
8	1692	1769.396649355495	1
8	1709	1783.459310527003	1
8	1721	1795.561084858444	1
8	1727	1807.760989170958	1
8	1733	1820.672102687735	1
8	1744	1830.227321057385	1
8	1751	1837.477540472493	1
8	1756	1846.958215714485	1
8	1765	1857.718955316991	1
8	1767	1860.625000295579	2
8	1772	1864.342964619316	2
8	1774	1866.923552828266	3
8	1776	1867.744110389014	4
8	1788	1876.615502411451	3
8	1798	1889.162415231729	2
8	1804	1899.632033191065	3
8	1817	1912.487447544114	1
8	1830	1924.814771468195	1
8	1832	1925.049409947819	2
8	1836	1926.607140097547	3
8	1838	1927.918939666465	4
8	1840	1928.68033645609	5
8	1846	1934.637593830675	4
8	1852	1943.19574811059	3
8	1855	1947.036098860944	3
8	1869	1962.664302461839	1
8	1875	1969.327919103555	2
8	1905	1998.845633853626	1
8	1907	1998.922037722472	2
8	1912	2001.091776104848	2
8	1919	2006.523924416656	1
8	1927	2018.818629882161	1
8	1934	2024.441189299408	1
8	1937	2026.152365272502	1
8	1953	2041.644573176964	1
8	1966	2048.193289222042	1
8	1972	2050.935708923166	1
8	1993	2072.688279215453	1
8	1995	2075.006941169214	2
8	1997	2075.369789573536	3
8	2000	2076.241899633652	3
8	2005	2079.726223318149	3
8	2007	2079.858408575431	4
8	2015	2082.469363466365	3
8	2020	2093.394677603156	1
8	2046	2119.086032386407	1
8	2051	2123.18561464143	1
8	2060	2132.388618939407	1
8	2082	2160.983927972809	1
8	2084	2162.041293571091	2
8	2098	2171.082298131178	1
8	2102	2176.878517046148	2
8	2104	2181.214560228553	3
8	2110	2194.181023635168	1
8	2124	2209.492911153626	1
8	2129	2213.925150331612	1
8	2147	2232.751090414705	1
8	2152	2246.15890269224	1
8	2156	2247.506701987261	1
8	2162	2250.663642847963	1
8	2176	2269.472941024361	1
8	2179	2270.167681859663	1
8	2184	2272.095352319535	1
8	2194	2281.126297054591	1
8	2219	2319.635358806804	1
8	2227	2325.146277146998	1
8	2230	2326.698723788778	1
8	2239	2332.214596350125	1
8	2242	2333.404893352369	1
8	2264	2361.810848570402	1
8	2267	2370.332937913102	1
8	2276	2384.518035803758	1
8	2309	2446.739159097094	1
8	2318	2460.982521493547	1
8	2320	2460.995104979324	2
8	2330	2473.946986795827	1
8	2332	2474.769086185738	2
8	2336	2478.214198769322	1
8	2338	2478.24121628673	2
8	2343	2482.471116215921	2
8	2345	2483.20787356238	3
8	2352	2488.028147135494	3
8	2358	2492.165071389394	1
8	2360	2492.199178833457	2
8	2362	2496.011695091498	3
9	328	360.409283811401	15
9	340	371.173503734935	16
9	348	376.19599468781	17
9	351	377.948662242251	18
9	362	387.831044191754	19
9	415	440.423712324732	20
9	418	446.535078190184	21
9	471	522.919973343766	22
9	479	527.947644250368	23
9	539	594.333336005154	24
9	571	627.418721012098	25
9	586	641.780658871784	26
9	594	647.462070929159	27
9	610	667.309493403745	28
9	645	714.976615598601	29
9	685	761.273492518352	30
9	697	782.366044891507	31
9	773	862.885902373897	32
9	787	870.88255346745	33
9	790	873.83611358819	34
9	796	876.941456615925	35
9	815	892.928388602948	36
9	819	895.099100078108	37
9	837	908.113117590851	38
9	848	915.469272871588	39
9	888	957.975027695413	40
9	899	973.563066403077	41
9	1026	1083.273712009621	42
9	1034	1095.258386564379	43
9	1058	1119.171322462318	44
9	1062	1120.768432521426	45
9	1087	1141.696038396732	46
9	1128	1177.542138996658	47
9	1137	1189.547606851514	48
9	1171	1218.851571102707	49
9	1219	1277.925418064961	50
9	1225	1280.43284342461	51
9	1257	1303.153188973806	52
9	1270	1316.39013935346	53
9	1424	1497.547881882029	54
9	1460	1527.108186464722	55
9	1485	1543.753113980184	56
9	1498	1556.846556782399	57
9	1506	1566.635975919891	58
9	1522	1588.700997016128	59
9	1551	1610.52787037836	60
9	1559	1614.566367107468	61
9	1572	1627.295339769671	62
9	1627	1715.019778212979	63
9	1631	1717.407372213872	64
9	1665	1749.388705263137	65
9	1672	1760.03837803681	66
9	1692	1769.396649355495	67
9	1709	1783.459310527003	68
9	1744	1830.227321057385	69
9	1756	1846.958215714485	70
9	1765	1857.718955316991	71
9	1817	1912.487447544114	72
9	1830	1924.814771468195	73
9	1869	1962.664302461839	74
9	1905	1998.845633853626	75
9	1919	2006.523924416656	76
9	1927	2018.818629882161	77
9	1934	2024.441189299408	78
9	1937	2026.152365272502	79
9	1953	2041.644573176964	80
9	1966	2048.193289222042	81
9	1972	2050.935708923166	82
9	1993	2072.688279215453	83
9	2020	2093.394677603156	84
9	2046	2119.086032386407	85
9	2051	2123.18561464143	86
9	2060	2132.388618939407	87
9	2082	2160.983927972809	88
9	2098	2171.082298131178	89
9	2110	2194.181023635168	90
9	2124	2209.492911153626	91
9	2129	2213.925150331612	92
9	2152	2246.15890269224	93
9	2176	2269.472941024361	94
9	2179	2270.167681859663	95
9	2184	2272.095352319535	96
9	2194	2281.126297054591	97
9	2227	2325.146277146998	98
9	2230	2326.698723788778	99
9	2239	2332.214596350125	100
9	2242	2333.404893352369	101
9	2358	2492.165071389394	102
10	328	360.409283811401	0
10	340	371.173503734935	0
10	348	376.19599468781	0
10	351	377.948662242251	0
10	362	387.831044191754	0
10	368	395.04026741644	0
10	371	397.176661460005	1.769873082025
10	376	406.44103854306	2.915375911398
10	385	411.359462157356	4.268366450065
10	386	411.767315051161	1.94164546179
10	391	419.468610996223	9.154680981601
10	401	430.49840349668	0
10	404	435.153916374813	0
10	410	437.379970209784	0
10	415	440.423712324732	0
10	418	446.535078190184	0
10	449	493.127333277703	0
10	471	522.919973343766	0
10	479	527.947644250368	0
10	488	547.064017488764	0
10	494	550.739054872564	0
10	503	558.950061613331	7.192428454226
10	508	565.260503743975	11.004129836503
10	509	567.416659001287	11.190312423453
10	514	569.38721663723	6.348189310366
10	515	569.97384578692	1.334376990486
10	520	577.186169725063	7.950525754352
10	523	579.495384892828	4.120809613371
10	532	586.572797627455	7.77754308771
10	533	587.614923258448	5.699918668074
10	534	587.701836042231	3.108685510191
10	539	594.333336005154	0
10	571	627.418721012098	0
10	578	633.876066967118	1.658046100112
10	586	641.780658871784	0
10	594	647.462070929159	0
10	610	667.309493403745	0
10	615	675.864699464059	0.140084403156
10	618	681.422097386955	4.753438616957
10	625	685.520929125811	3.516994934378
10	626	686.817746875363	3.200511627364
10	635	703.811654052786	0
10	645	714.976615598601	0
10	653	722.64500892872	0
10	685	761.273492518352	0
10	697	782.366044891507	0
10	704	784.643620513641	2.042601356707
10	705	787.0184482892	3.439383353399
10	716	807.407876331147	0
10	731	820.861755107194	0
10	734	821.479531853525	0.019731935822
10	752	836.154603739412	0
10	761	850.246771939846	0
10	773	862.885902373897	0
10	776	863.66272843382	0.108984941043
10	787	870.88255346745	0
10	790	873.83611358819	0
10	793	875.314474791487	0.231589289669
10	796	876.941456615925	0
10	815	892.928388602948	0
10	819	895.099100078108	0
10	830	905.503701884275	4.608588172093
10	833	907.209155649453	5.187316231937
10	837	908.113117590851	0
10	848	915.469272871588	0
10	860	942.09346134393	0
10	865	943.473093322591	1.316973271456
10	870	945.723210062525	3.383515322127
10	888	957.975027695413	0
10	899	973.563066403077	0
10	918	991.066436700546	16.010119401303
10	919	991.588335481956	15.808227904578
10	932	1005.233991711418	28.320571077244
10	935	1007.959789293821	20.28916405198
10	938	1013.231107633134	19.946287896755
10	939	1013.559644377527	18.940801306338
10	942	1014.641857732991	17.551560642205
10	953	1017.159611267244	19.071756392313
10	964	1029.220688761305	13.062982011512
10	965	1030.685467167966	14.328658410245
10	970	1034.739607874196	18.323878711744
10	971	1035.005190337648	9.967192745032
10	974	1039.156545742968	12.51307014037
10	1026	1083.273712009621	0
10	1034	1095.258386564379	0
10	1058	1119.171322462318	0
10	1062	1120.768432521426	0
10	1069	1124.021974471381	2.788676172955
10	1087	1141.696038396732	0
10	1092	1142.32539837691	0.35367860705
10	1099	1149.357232755718	0.170329953324
10	1106	1158.601687869008	6.507697819531
10	1115	1166.066614448613	8.442245226207
10	1116	1166.249128846933	5.816189143084
10	1119	1167.867577253546	7.2431316668
10	1124	1174.233528219032	3.510018542924
10	1128	1177.542138996658	0
10	1137	1189.547606851514	0
10	1171	1218.851571102707	0
10	1181	1237.51137602908	0
10	1188	1248.019006034038	6.26415595586
10	1195	1255.874616068226	9.052128053446
10	1196	1258.517301243792	6.463656595535
10	1201	1260.282314933097	0.013512697499
10	1219	1277.925418064961	0
10	1225	1280.43284342461	0
10	1244	1292.951016551003	0
10	1249	1299.678973352509	3.192234670504
10	1257	1303.153188973806	0
10	1265	1313.740786481238	0
10	1270	1316.39013935346	0
10	1283	1329.73446412743	0
10	1286	1340.881773789299	0
10	1319	1379.162156647238	0
10	1322	1388.48956337369	0.684381194234
10	1331	1402.736864065567	0
10	1337	1408.685926029236	0
10	1342	1409.76840839101	0.348837447187
10	1355	1418.011894498142	0
10	1373	1444.216694327778	0
10	1380	1449.266754671078	1.323509305188
10	1400	1476.897292679376	0
10	1413	1487.72159286887	0.266721317798
10	1424	1497.547881882029	0
10	1429	1498.675743088441	0.174302732764
10	1432	1500.910612109663	1.500250603949
10	1437	1504.505689729917	0.518504430654
10	1452	1515.951488077686	9.272514746004
10	1453	1518.746908050557	3.57761344772
10	1460	1527.108186464722	0
10	1485	1543.753113980184	0
10	1490	1549.163929294048	1.575549652647
10	1493	1554.210461698432	0.337556961334
10	1498	1556.846556782399	0
10	1506	1566.635975919891	0
10	1511	1580.544060030215	0
10	1522	1588.700997016128	0
10	1551	1610.52787037836	0
10	1559	1614.566367107468	0
10	1566	1622.0351314996	4.327806782134
10	1567	1622.076148406913	2.892925711747
10	1572	1627.295339769671	0
10	1586	1650.744215570874	0
10	1592	1666.40924544859	0
10	1595	1669.006926820633	0
10	1627	1715.019778212979	0
10	1631	1717.407372213872	0
10	1640	1720.488387110433	0.450370969222
10	1649	1728.47564078927	6.480105944095
10	1665	1749.388705263137	0
10	1672	1760.03837803681	0
10	1677	1762.525788214548	0.255448372584
10	1684	1765.939923253717	3.145703955036
10	1689	1768.609480661446	0.172209976266
10	1692	1769.396649355495	0
10	1709	1783.459310527003	0
10	1721	1795.561084858444	0
10	1727	1807.760989170958	0
10	1733	1820.672102687735	0
10	1744	1830.227321057385	0
10	1751	1837.477540472493	0
10	1756	1846.958215714485	0
10	1765	1857.718955316991	0
10	1770	1863.685283103087	3.060282807508
10	1783	1871.468934540722	7.125969921406
10	1784	1874.713442547752	7.789889719486
10	1795	1885.376634568009	17.632524178995
10	1796	1887.775488996548	11.159986585097
10	1805	1900.59941234854	11.436997116811
10	1812	1905.424641410805	5.79260821974
10	1817	1912.487447544114	0
10	1830	1924.814771468195	0
10	1843	1933.602105005935	8.552695058116
10	1844	1933.720676866602	7.113536769055
10	1849	1938.133490263446	10.214550596981
10	1850	1943.089518850204	14.409182394114
10	1853	1946.228601129697	11.591007299022
10	1858	1950.998313442114	7.802565331524
10	1861	1953.075705695282	6.039606834338
10	1869	1962.664302461839	0
10	1888	1983.460370574541	14.132451470986
10	1905	1998.845633853626	0
10	1908	1999.603115590482	0.68107786801
10	1913	2001.123861145787	0.032085040939
10	1919	2006.523924416656	0
10	1927	2018.818629882161	0
10	1934	2024.441189299408	0
10	1937	2026.152365272502	0
10	1953	2041.644573176964	0
10	1966	2048.193289222042	0
10	1972	2050.935708923166	0
10	1993	2072.688279215453	0
10	1998	2075.854481673011	0.847540503797
10	2003	2078.69190078758	3.322111214044
10	2008	2080.064641354745	3.822741721093
10	2009	2081.33575066318	1.609527345031
10	2016	2087.816429930116	7.958021354685
10	2017	2089.771265798153	7.301902331788
10	2020	2093.394677603156	0
10	2046	2119.086032386407	0
10	2051	2123.18561464143	0
10	2060	2132.388618939407	0
10	2082	2160.983927972809	0
10	2085	2162.159776956931	0.11848338584
10	2098	2171.082298131178	0
10	2105	2182.367913563688	5.48939651754
10	2106	2183.254806305797	2.040246077244
10	2110	2194.181023635168	0
10	2124	2209.492911153626	0
10	2129	2213.925150331612	0
10	2147	2232.751090414705	0
10	2152	2246.15890269224	0
10	2156	2247.506701987261	0
10	2162	2250.663642847963	0
10	2176	2269.472941024361	0
10	2179	2270.167681859663	0
10	2184	2272.095352319535	0
10	2194	2281.126297054591	0
10	2219	2319.635358806804	0
10	2227	2325.146277146998	0
10	2230	2326.698723788778	0
10	2239	2332.214596350125	0
10	2242	2333.404893352369	0
10	2264	2361.810848570402	0
10	2267	2370.332937913102	0
10	2276	2384.518035803758	0
10	2309	2446.739159097094	0
10	2318	2460.982521493547	0
10	2323	2462.413722798523	1.418617819199
10	2330	2473.946986795827	0
10	2333	2477.499238949844	2.730152764106
10	2336	2478.214198769322	0
10	2341	2482.167287970641	3.926071683911
10	2350	2486.993651929396	4.522535713475
10	2353	2488.685998342691	5.478124780311
10	2354	2489.579308551656	1.551161416162
10	2358	2492.165071389394	0
10	2363	2497.384185248708	5.185006415251
11	2364	2500	0.2056
12	2364	2500	0.1084

