version 2
run factors_calibration_recover_rate-49-20230304-08:58:38-6515
attr configname factors_calibration_recover_rate
attr datetime 20230304-08:58:38
attr experiment factors_calibration_recover_rate
attr inifile omnetpp.ini
attr iterationvars $0=25
attr iterationvarsf 25-
attr measurement $0=25
attr network Network
attr processid 6515
attr repetition 19
attr replication #19
attr resultdir results
attr runnumber 49
attr seedset 19
param *.minion.arrival_mean 5
param *.minion.service_mean 2
param *.boss.arrival_mean 10
param *.boss.service_mean 3
param *.player.recover_rate_x 25
param **.minion.arrival_distribution 0
param **.minion.service_distribution 0
param **.boss.arrival_distribution 0
param **.boss.service_distribution 0

vector 0 Network.player boss_jobs_number_stat:vector ETV
attr source signal_boss_jobs_number
vector 1 Network.player boss_jobs_queue_number_stat:vector ETV
attr source signal_boss_jobs_queue_number
vector 2 Network.player boss_waiting_time_stat:vector ETV
attr source signal_boss_waiting_time
vector 3 Network.player minion_jobs_number_stat:vector ETV
attr source signal_minion_jobs_number
vector 4 Network.player minion_jobs_queue_number_stat:vector ETV
attr source signal_minion_jobs_queue_number
vector 5 Network.player boss_defeated_stat:vector ETV
attr source signal_boss_defeated
vector 6 Network.player boss_response_time_stat:vector ETV
attr source signal_boss_response_time
vector 7 Network.player minion_waiting_time_stat:vector ETV
attr source signal_minion_waiting_time
vector 8 Network.player minion_defeated_stat:vector ETV
attr source signal_minion_defeated
vector 9 Network.player minion_response_time_stat:vector ETV
attr source signal_minion_response_time
vector 10 Network.player minion_recovered_stat:vector ETV
attr source signal_minion_recovered
vector 11 Network.player minion_throughput:vector ETV
attr source signal_minion_throughput
vector 12 Network.player boss_throughput:vector ETV
attr source signal_boss_throughput
0	260	351.66514330095	1
0	266	362.951580585902	1
0	270	365.7940879105	2
0	280	372.262210127957	1
0	291	379.561009813909	1
0	299	396.931567721719	1
0	305	407.840504949309	2
0	314	431.612301925663	1
0	317	435.076695811317	1
0	320	441.060231555846	1
0	326	461.735579040208	1
0	335	483.380497951239	1
0	347	504.842172216384	1
0	355	515.518380498041	1
0	369	523.723142037469	1
0	372	526.019121203885	1
0	374	528.557620035498	2
0	390	541.417710302589	1
0	420	568.508352258723	1
0	428	574.790764559149	1
0	434	579.731131840985	1
0	457	603.243615398497	1
0	462	604.876797641995	1
0	466	605.470753788439	1
0	472	609.354280829617	1
0	485	629.835097652943	1
0	487	633.907885947942	2
0	497	654.921866085873	1
0	506	677.82378321412	1
0	521	701.022142819214	1
0	523	701.131952274328	2
0	539	727.480536480054	1
0	541	729.795411152047	2
0	558	740.263940572557	1
0	574	756.576573291962	1
0	578	764.828813126724	2
0	582	773.279766199156	1
0	590	796.815871632312	1
0	593	806.208150294209	1
0	596	811.994198549826	1
0	631	845.301366768111	1
0	654	858.828825893213	1
0	656	864.128669207906	2
0	670	873.020283228458	1
0	672	873.617667584117	2
0	675	874.194922604854	2
0	677	875.084045976736	3
0	682	882.561391881499	3
0	684	883.770978961513	4
0	690	887.073062257092	3
0	719	916.072238996472	1
0	728	930.25366047099	1
0	737	941.849736936719	1
0	741	942.232180704219	2
0	743	943.090920795714	3
0	757	956.598860876412	1
0	759	956.640974724088	2
0	762	960.221227978814	2
0	765	963.736864475534	2
0	779	982.484974669165	1
0	783	987.083129845481	2
0	798	997.226182684487	1
0	806	1001.59300650344	1
0	820	1020.307562619661	1
0	838	1040.493543235005	1
0	848	1050.458923441652	1
0	862	1064.799639925662	1
0	864	1066.213090329756	2
0	868	1069.383406811664	3
0	872	1071.345474958142	4
0	876	1072.041495010278	5
0	891	1091.984017511422	1
0	905	1107.118668558093	1
0	913	1116.172142119035	1
0	919	1127.136671801034	1
0	928	1133.277927373123	1
0	937	1142.07723151832	1
0	956	1150.24235597166	1
0	968	1163.699375028588	1
0	971	1167.656166705519	1
0	976	1174.051069672005	1
0	979	1175.948005818828	1
0	989	1198.652791345087	1
0	998	1210.867829546269	1
0	1000	1214.012261602483	2
0	1002	1215.763117003635	3
0	1011	1223.859469502587	1
0	1015	1227.249789523949	2
0	1017	1228.679034192385	3
0	1029	1236.596012525352	1
0	1032	1241.855993270238	1
0	1041	1250.075585329253	1
0	1054	1275.281496495889	1
0	1058	1278.37814317935	2
0	1066	1285.490200144158	1
0	1084	1301.381891493144	1
0	1090	1313.674019769906	1
0	1097	1324.124375852554	1
0	1103	1336.00532230147	1
0	1109	1348.434193855833	1
0	1115	1356.264852421387	1
0	1142	1383.104062733279	1
0	1148	1392.280663260546	1
0	1157	1405.052759904203	1
0	1160	1406.001945531774	1
0	1176	1419.938897992173	1
0	1183	1426.485693959158	1
0	1195	1443.921521541039	1
0	1215	1461.6372909999	1
0	1223	1466.860693717653	1
0	1228	1471.802813008269	1
0	1233	1475.22942749746	1
0	1249	1487.537919025787	1
0	1256	1496.245021761891	1
0	1264	1499.843250589328	1
0	1283	1521.971236031246	1
0	1285	1525.953265946718	2
0	1289	1531.446679799735	1
0	1304	1555.816747708508	1
0	1307	1565.558078287621	1
0	1335	1593.691818938387	1
0	1337	1594.052710042863	2
0	1343	1600.776281935639	3
0	1348	1606.201146262093	3
0	1350	1607.276876690492	4
0	1370	1626.293835459443	1
0	1379	1648.65028595701	1
0	1384	1656.020385095081	1
0	1388	1663.597088844854	1
0	1411	1692.593118654179	1
0	1418	1702.634358119831	1
0	1420	1704.04541441851	2
0	1442	1738.454252674602	1
0	1446	1740.71975138078	2
0	1452	1748.161508067128	1
0	1460	1757.859588268487	1
0	1469	1767.368673546613	1
0	1495	1784.049462849715	1
0	1505	1792.117079246375	1
0	1510	1794.4149079112	1
0	1536	1818.526846555099	1
0	1547	1829.46275298883	1
0	1552	1833.665581541106	1
0	1562	1843.307894685033	1
0	1564	1843.444439279712	2
0	1587	1862.770522318967	1
0	1591	1867.609964642105	2
0	1598	1876.33383173463	1
0	1604	1882.561313211549	1
0	1608	1884.660232841467	2
0	1613	1890.120637335718	2
0	1618	1894.73582902366	2
0	1620	1894.782584772133	3
0	1649	1916.370962753017	1
0	1651	1916.614867538634	2
0	1656	1920.73528226444	2
0	1665	1929.162332269995	1
0	1670	1932.874817863425	1
0	1673	1934.963229828487	1
0	1685	1944.851456758737	1
0	1689	1948.340955448881	1
0	1707	1953.268457013058	1
0	1713	1957.866801372479	2
0	1715	1960.207776386015	3
0	1717	1964.184224808141	4
0	1734	1981.502064919074	2
0	1746	1989.349374425494	1
0	1766	2012.862673080808	1
0	1768	2013.517191270454	2
0	1778	2025.623567493432	1
0	1781	2025.846470828881	1
0	1790	2033.822624385485	1
0	1796	2048.419969629046	1
0	1798	2049.62519294147	2
0	1816	2064.552189594795	1
0	1831	2073.668692157529	1
0	1836	2077.103648029754	1
0	1841	2088.586202574979	1
0	1876	2120.679581759205	1
0	1879	2124.601544719918	1
0	1888	2134.590886009148	1
0	1892	2137.092205098922	2
0	1911	2150.955897214147	1
0	1913	2152.478562479575	2
0	1918	2159.441142583116	2
0	1932	2174.026137111401	1
0	1934	2174.877124317114	2
0	1976	2203.362833641735	1
0	1983	2210.185249638699	1
0	1996	2227.625873977615	1
0	2005	2238.131746040534	1
0	2009	2242.133203677804	1
0	2016	2248.034681368549	1
0	2018	2248.625457119587	2
0	2020	2249.264297613157	3
0	2029	2255.761569530635	1
0	2041	2269.078404101132	1
0	2048	2281.407915056777	1
0	2059	2294.073389160887	1
0	2065	2299.254655107225	1
0	2069	2303.270814746876	2
0	2075	2311.405846700726	1
0	2077	2312.071610860471	2
0	2081	2320.157440787989	3
0	2088	2324.051168659983	3
0	2095	2327.036206272509	3
0	2116	2357.60217715634	1
0	2123	2368.854213218632	1
0	2131	2375.336149475291	1
0	2140	2391.540627696864	1
0	2144	2394.537575755393	1
0	2146	2394.592878363387	2
0	2149	2398.064032585017	2
0	2153	2399.311348822998	3
0	2159	2404.007776202591	1
0	2170	2409.887991364572	1
0	2180	2420.258845075778	1
0	2189	2431.031090306844	1
0	2198	2441.378231003116	1
0	2219	2473.828575666467	1
0	2225	2476.038431469152	1
0	2231	2478.753420485976	1
0	2234	2480.050812506268	1
0	2243	2492.756117412037	1
0	2245	2492.905966585592	2
0	2248	2495.73692269424	2
1	260	351.66514330095	0
1	263	356.394973417554	0
1	266	362.951580585902	0
1	270	365.7940879105	1
1	277	370.016165879009	1
1	278	372.067039803894	0
1	280	372.262210127957	0
1	283	374.089980866135	0
1	291	379.561009813909	0
1	292	382.027872377696	0
1	299	396.931567721719	0
1	305	407.840504949309	1
1	306	413.354743559112	1
1	307	415.525134547372	0
1	314	431.612301925663	0
1	315	431.685403470352	0
1	317	435.076695811317	0
1	318	436.091573469734	0
1	320	441.060231555846	0
1	323	447.638041665716	0
1	326	461.735579040208	0
1	327	462.360675634899	0
1	335	483.380497951239	0
1	336	484.260779123001	0
1	347	504.842172216384	0
1	348	506.093293089636	0
1	355	515.518380498041	0
1	358	518.791238538074	0
1	369	523.723142037469	0
1	370	524.652145355202	0
1	372	526.019121203885	0
1	374	528.557620035498	1
1	379	531.377649626611	1
1	380	532.057631871284	0
1	390	541.417710302589	0
1	397	550.803119315053	0
1	420	568.508352258723	0
1	421	570.079414054946	0
1	428	574.790764559149	0
1	431	577.319774481461	0
1	434	579.731131840985	0
1	435	581.940827981848	0
1	457	603.243615398497	0
1	458	604.308184076873	0
1	462	604.876797641995	0
1	463	604.902264054503	0
1	466	605.470753788439	0
1	467	605.601067539404	0
1	472	609.354280829617	0
1	473	619.256519672594	0
1	485	629.835097652943	0
1	487	633.907885947942	1
1	490	635.149582827568	1
1	491	641.05810173011	0
1	497	654.921866085873	0
1	500	658.194420446817	0
1	506	677.82378321412	0
1	507	682.506081014944	0
1	521	701.022142819214	0
1	523	701.131952274328	1
1	526	701.346691513151	1
1	527	705.531410740838	0
1	539	727.480536480054	0
1	541	729.795411152047	1
1	544	730.309612115895	1
1	551	738.709238120114	0
1	558	740.263940572557	0
1	561	743.477071666477	0
1	574	756.576573291962	0
1	578	764.828813126724	1
1	579	769.024271757747	1
1	580	769.621925017819	0
1	582	773.279766199156	0
1	583	773.546487196823	0
1	590	796.815871632312	0
1	591	797.526453608838	0
1	593	806.208150294209	0
1	594	808.490157099016	0
1	596	811.994198549826	0
1	597	819.116557468134	0
1	631	845.301366768111	0
1	634	849.531307244858	0
1	654	858.828825893213	0
1	656	864.128669207906	1
1	657	864.238767685215	1
1	660	865.353428466576	0
1	670	873.020283228458	0
1	672	873.617667584117	1
1	673	873.735153478274	1
1	675	874.194922604854	1
1	677	875.084045976736	2
1	678	877.265866824896	2
1	682	882.561391881499	2
1	684	883.770978961513	3
1	685	885.665493920193	3
1	686	886.317546859221	2
1	690	887.073062257092	2
1	691	889.8808911806	2
1	692	895.657472874348	1
1	695	898.463025487355	0
1	719	916.072238996472	0
1	722	917.801467928077	0
1	728	930.25366047099	0
1	729	930.484625660835	0
1	737	941.849736936719	0
1	741	942.232180704219	1
1	743	943.090920795714	2
1	744	944.869865964853	2
1	745	945.98876324037	1
1	746	946.970276240309	0
1	757	956.598860876412	0
1	759	956.640974724088	1
1	760	958.033541209448	1
1	762	960.221227978814	1
1	763	961.407163029674	1
1	765	963.736864475534	1
1	766	966.634286217467	1
1	769	968.087242020965	0
1	779	982.484974669165	0
1	783	987.083129845481	1
1	784	987.540047314167	1
1	785	988.257878444376	0
1	798	997.226182684487	0
1	801	999.646706896446	0
1	806	1001.59300650344	0
1	807	1002.148357400854	0
1	820	1020.307562619661	0
1	821	1020.467526622227	0
1	838	1040.493543235005	0
1	839	1042.243630717637	0
1	848	1050.458923441652	0
1	849	1053.510681213535	0
1	862	1064.799639925662	0
1	864	1066.213090329756	1
1	868	1069.383406811664	2
1	872	1071.345474958142	3
1	876	1072.041495010278	4
1	877	1072.536002681794	4
1	878	1075.690279683458	3
1	881	1080.380529748807	2
1	882	1082.51571028576	1
1	883	1083.682483562437	0
1	891	1091.984017511422	0
1	900	1100.864275918353	0
1	905	1107.118668558093	0
1	906	1107.132453955912	0
1	913	1116.172142119035	0
1	914	1117.174629024353	0
1	919	1127.136671801034	0
1	924	1130.633106759623	0
1	928	1133.277927373123	0
1	931	1135.605205984813	0
1	937	1142.07723151832	0
1	944	1145.178055353471	0
1	956	1150.24235597166	0
1	959	1152.913590303071	0
1	968	1163.699375028588	0
1	969	1165.232082318638	0
1	971	1167.656166705519	0
1	974	1172.062677626917	0
1	976	1174.051069672005	0
1	977	1174.063824362032	0
1	979	1175.948005818828	0
1	980	1176.657237943114	0
1	989	1198.652791345087	0
1	994	1201.221029841515	0
1	998	1210.867829546269	0
1	1000	1214.012261602483	1
1	1002	1215.763117003635	2
1	1003	1217.67092532282	2
1	1004	1218.430925556211	1
1	1009	1221.836925184905	0
1	1011	1223.859469502587	0
1	1015	1227.249789523949	1
1	1017	1228.679034192385	2
1	1018	1229.678341579604	2
1	1019	1229.755259990014	1
1	1026	1234.561522980421	0
1	1029	1236.596012525352	0
1	1030	1238.044838849135	0
1	1032	1241.855993270238	0
1	1033	1245.816469410916	0
1	1041	1250.075585329253	0
1	1044	1254.344288617959	0
1	1054	1275.281496495889	0
1	1058	1278.37814317935	1
1	1061	1281.748075249718	1
1	1062	1283.192731473044	0
1	1066	1285.490200144158	0
1	1067	1287.981211600937	0
1	1084	1301.381891493144	0
1	1085	1302.79049299658	0
1	1090	1313.674019769906	0
1	1091	1316.869864258655	0
1	1097	1324.124375852554	0
1	1098	1326.133278778113	0
1	1103	1336.00532230147	0
1	1104	1336.190660974546	0
1	1109	1348.434193855833	0
1	1110	1349.906164058633	0
1	1115	1356.264852421387	0
1	1120	1361.168845172829	0
1	1142	1383.104062733279	0
1	1143	1384.276276988904	0
1	1148	1392.280663260546	0
1	1151	1396.896807467853	0
1	1157	1405.052759904203	0
1	1158	1405.339569099385	0
1	1160	1406.001945531774	0
1	1167	1415.403751446769	0
1	1176	1419.938897992173	0
1	1177	1422.858395705503	0
1	1183	1426.485693959158	0
1	1186	1428.412845758115	0
1	1195	1443.921521541039	0
1	1200	1450.452033671439	0
1	1215	1461.6372909999	0
1	1220	1465.5284645152	0
1	1223	1466.860693717653	0
1	1224	1469.826123394863	0
1	1228	1471.802813008269	0
1	1231	1475.220962332625	0
1	1233	1475.22942749746	0
1	1234	1475.417913698887	0
1	1249	1487.537919025787	0
1	1250	1490.849230361012	0
1	1256	1496.245021761891	0
1	1261	1499.113023492525	0
1	1264	1499.843250589328	0
1	1265	1500.006633320392	0
1	1283	1521.971236031246	0
1	1285	1525.953265946718	1
1	1286	1526.815160039725	1
1	1287	1529.630412088694	0
1	1289	1531.446679799735	0
1	1292	1537.831776894468	0
1	1304	1555.816747708508	0
1	1305	1557.034952298355	0
1	1307	1565.558078287621	0
1	1312	1574.85326317185	0
1	1335	1593.691818938387	0
1	1337	1594.052710042863	1
1	1343	1600.776281935639	2
1	1344	1601.977330642949	2
1	1348	1606.201146262093	2
1	1350	1607.276876690492	3
1	1351	1607.544186653222	3
1	1352	1607.570847047115	2
1	1353	1607.807244698457	1
1	1358	1615.687796221515	0
1	1370	1626.293835459443	0
1	1371	1626.475781486219	0
1	1379	1648.65028595701	0
1	1380	1649.377386904495	0
1	1384	1656.020385095081	0
1	1385	1656.508327476393	0
1	1388	1663.597088844854	0
1	1391	1665.928874019931	0
1	1411	1692.593118654179	0
1	1414	1697.967007310831	0
1	1418	1702.634358119831	0
1	1420	1704.04541441851	1
1	1421	1704.701663731618	1
1	1422	1704.840818966033	0
1	1442	1738.454252674602	0
1	1446	1740.71975138078	1
1	1447	1741.641488667229	1
1	1448	1744.680116408711	0
1	1452	1748.161508067128	0
1	1455	1752.520700971954	0
1	1460	1757.859588268487	0
1	1463	1763.159534757878	0
1	1469	1767.368673546613	0
1	1476	1772.897480186647	0
1	1495	1784.049462849715	0
1	1498	1784.758668641418	0
1	1505	1792.117079246375	0
1	1508	1793.079187815061	0
1	1510	1794.4149079112	0
1	1513	1795.213566598418	0
1	1536	1818.526846555099	0
1	1537	1820.486581849533	0
1	1547	1829.46275298883	0
1	1548	1830.754813683623	0
1	1552	1833.665581541106	0
1	1555	1837.400503211535	0
1	1562	1843.307894685033	0
1	1564	1843.444439279712	1
1	1571	1851.437395500495	1
1	1572	1852.289908618647	0
1	1587	1862.770522318967	0
1	1591	1867.609964642105	1
1	1592	1869.154219044188	1
1	1593	1872.303792661262	0
1	1598	1876.33383173463	0
1	1599	1876.459145172083	0
1	1604	1882.561313211549	0
1	1608	1884.660232841467	1
1	1611	1887.597917859815	1
1	1613	1890.120637335718	1
1	1616	1894.025950261587	1
1	1618	1894.73582902366	1
1	1620	1894.782584772133	2
1	1625	1897.604570887017	2
1	1628	1902.690370284096	1
1	1631	1905.735981185574	0
1	1649	1916.370962753017	0
1	1651	1916.614867538634	1
1	1652	1918.647451314642	1
1	1656	1920.73528226444	1
1	1657	1925.554774995774	1
1	1658	1927.07259847667	0
1	1665	1929.162332269995	0
1	1666	1931.102197453758	0
1	1670	1932.874817863425	0
1	1671	1933.384212548465	0
1	1673	1934.963229828487	0
1	1674	1935.60556379424	0
1	1685	1944.851456758737	0
1	1686	1946.719469047704	0
1	1689	1948.340955448881	0
1	1694	1950.413462511345	0
1	1707	1953.268457013058	0
1	1713	1957.866801372479	1
1	1715	1960.207776386015	2
1	1717	1964.184224808141	3
1	1720	1967.516282804715	3
1	1721	1967.531425078401	2
1	1730	1978.967346173432	1
1	1734	1981.502064919074	1
1	1735	1983.126179007703	1
1	1742	1987.833627023034	0
1	1746	1989.349374425494	0
1	1747	1990.687132602121	0
1	1766	2012.862673080808	0
1	1768	2013.517191270454	1
1	1769	2019.921680631541	1
1	1770	2020.004071778713	0
1	1778	2025.623567493432	0
1	1779	2025.675111844116	0
1	1781	2025.846470828881	0
1	1782	2026.869489245864	0
1	1790	2033.822624385485	0
1	1793	2043.566389395425	0
1	1796	2048.419969629046	0
1	1798	2049.62519294147	1
1	1803	2052.138692184956	1
1	1808	2059.002359521049	0
1	1816	2064.552189594795	0
1	1821	2067.435834609194	0
1	1831	2073.668692157529	0
1	1832	2074.164817769977	0
1	1836	2077.103648029754	0
1	1839	2081.885300155982	0
1	1841	2088.586202574979	0
1	1844	2091.99833999377	0
1	1876	2120.679581759205	0
1	1877	2121.500847507464	0
1	1879	2124.601544719918	0
1	1880	2126.563039465149	0
1	1888	2134.590886009148	0
1	1892	2137.092205098922	1
1	1897	2143.369187744806	1
1	1898	2144.60652400395	0
1	1911	2150.955897214147	0
1	1913	2152.478562479575	1
1	1914	2153.271435286238	1
1	1918	2159.441142583116	1
1	1919	2162.330213646483	1
1	1920	2163.791825137405	0
1	1932	2174.026137111401	0
1	1934	2174.877124317114	1
1	1937	2175.810260027072	1
1	1942	2178.719985063879	0
1	1976	2203.362833641735	0
1	1977	2204.373269993249	0
1	1983	2210.185249638699	0
1	1986	2213.165142975297	0
1	1996	2227.625873977615	0
1	2001	2233.038732799187	0
1	2005	2238.131746040534	0
1	2006	2241.27466256732	0
1	2009	2242.133203677804	0
1	2010	2242.165572379281	0
1	2016	2248.034681368549	0
1	2018	2248.625457119587	1
1	2020	2249.264297613157	2
1	2023	2250.786372266317	2
1	2024	2251.851852726852	1
1	2027	2255.391466517932	0
1	2029	2255.761569530635	0
1	2030	2261.477377377634	0
1	2041	2269.078404101132	0
1	2046	2280.387301146741	0
1	2048	2281.407915056777	0
1	2051	2287.690559455115	0
1	2059	2294.073389160887	0
1	2060	2295.090366773201	0
1	2065	2299.254655107225	0
1	2069	2303.270814746876	1
1	2070	2307.682920631133	1
1	2073	2309.555763780545	0
1	2075	2311.405846700726	0
1	2077	2312.071610860471	1
1	2081	2320.157440787989	2
1	2084	2321.426164919108	2
1	2088	2324.051168659983	2
1	2093	2326.939402234088	2
1	2095	2327.036206272509	2
1	2096	2328.873563340761	2
1	2097	2329.790165622099	1
1	2098	2338.277045034203	0
1	2116	2357.60217715634	0
1	2117	2358.920221585841	0
1	2123	2368.854213218632	0
1	2126	2370.75726521338	0
1	2131	2375.336149475291	0
1	2132	2377.567305401951	0
1	2140	2391.540627696864	0
1	2141	2392.413364219756	0
1	2144	2394.537575755393	0
1	2146	2394.592878363387	1
1	2147	2396.578401336881	1
1	2149	2398.064032585017	1
1	2153	2399.311348822998	2
1	2154	2399.90407198209	2
1	2155	2400.345322189044	1
1	2156	2401.38252416317	0
1	2159	2404.007776202591	0
1	2168	2409.276623201718	0
1	2170	2409.887991364572	0
1	2171	2411.910715113081	0
1	2180	2420.258845075778	0
1	2183	2422.259853475948	0
1	2189	2431.031090306844	0
1	2190	2435.690161608527	0
1	2198	2441.378231003116	0
1	2203	2448.746205401889	0
1	2219	2473.828575666467	0
1	2222	2475.228027804504	0
1	2225	2476.038431469152	0
1	2226	2476.894366788209	0
1	2231	2478.753420485976	0
1	2232	2479.300623668982	0
1	2234	2480.050812506268	0
1	2237	2481.858580083329	0
1	2243	2492.756117412037	0
1	2245	2492.905966585592	1
1	2246	2493.075051710659	1
1	2248	2495.73692269424	1
1	2251	2497.948458471926	1
1	2252	2499.43839353103	0
2	260	351.66514330095	0
2	266	362.951580585902	0
2	277	370.016165879009	4.222077968509
2	280	372.262210127957	0
2	291	379.561009813909	0
2	299	396.931567721719	0
2	306	413.354743559112	5.514238609803
2	314	431.612301925663	0
2	317	435.076695811317	0
2	320	441.060231555846	0
2	326	461.735579040208	0
2	335	483.380497951239	0
2	347	504.842172216384	0
2	355	515.518380498041	0
2	369	523.723142037469	0
2	372	526.019121203885	0
2	379	531.377649626611	2.820029591113
2	390	541.417710302589	0
2	420	568.508352258723	0
2	428	574.790764559149	0
2	434	579.731131840985	0
2	457	603.243615398497	0
2	462	604.876797641995	0
2	466	605.470753788439	0
2	472	609.354280829617	0
2	485	629.835097652943	0
2	490	635.149582827568	1.241696879626
2	497	654.921866085873	0
2	506	677.82378321412	0
2	521	701.022142819214	0
2	526	701.346691513151	0.214739238823
2	539	727.480536480054	0
2	544	730.309612115895	0.514200963848
2	558	740.263940572557	0
2	574	756.576573291962	0
2	579	769.024271757747	4.195458631023
2	582	773.279766199156	0
2	590	796.815871632312	0
2	593	806.208150294209	0
2	596	811.994198549826	0
2	631	845.301366768111	0
2	654	858.828825893213	0
2	657	864.238767685215	0.110098477309
2	670	873.020283228458	0
2	673	873.735153478274	0.117485894157
2	678	877.265866824896	3.070944220042
2	685	885.665493920193	10.581447943457
2	686	886.317546859221	3.756154977722
2	691	889.8808911806	6.109912219087
2	692	895.657472874348	8.584410617256
2	719	916.072238996472	0
2	728	930.25366047099	0
2	737	941.849736936719	0
2	744	944.869865964853	2.637685260634
2	745	945.98876324037	2.897842444656
2	757	956.598860876412	0
2	760	958.033541209448	1.39256648536
2	763	961.407163029674	1.18593505086
2	766	966.634286217467	2.897421741933
2	779	982.484974669165	0
2	784	987.540047314167	0.456917468686
2	798	997.226182684487	0
2	806	1001.59300650344	0
2	820	1020.307562619661	0
2	838	1040.493543235005	0
2	848	1050.458923441652	0
2	862	1064.799639925662	0
2	877	1072.536002681794	6.322912352038
2	878	1075.690279683458	6.306872871794
2	881	1080.380529748807	9.035054790665
2	882	1082.51571028576	10.474215275482
2	891	1091.984017511422	0
2	905	1107.118668558093	0
2	913	1116.172142119035	0
2	919	1127.136671801034	0
2	928	1133.277927373123	0
2	937	1142.07723151832	0
2	956	1150.24235597166	0
2	968	1163.699375028588	0
2	971	1167.656166705519	0
2	976	1174.051069672005	0
2	979	1175.948005818828	0
2	989	1198.652791345087	0
2	998	1210.867829546269	0
2	1003	1217.67092532282	3.658663720337
2	1004	1218.430925556211	2.667808552576
2	1011	1223.859469502587	0
2	1018	1229.678341579604	2.428552055655
2	1019	1229.755259990014	1.076225797629
2	1029	1236.596012525352	0
2	1032	1241.855993270238	0
2	1041	1250.075585329253	0
2	1054	1275.281496495889	0
2	1061	1281.748075249718	3.369932070368
2	1066	1285.490200144158	0
2	1084	1301.381891493144	0
2	1090	1313.674019769906	0
2	1097	1324.124375852554	0
2	1103	1336.00532230147	0
2	1109	1348.434193855833	0
2	1115	1356.264852421387	0
2	1142	1383.104062733279	0
2	1148	1392.280663260546	0
2	1157	1405.052759904203	0
2	1160	1406.001945531774	0
2	1176	1419.938897992173	0
2	1183	1426.485693959158	0
2	1195	1443.921521541039	0
2	1215	1461.6372909999	0
2	1223	1466.860693717653	0
2	1228	1471.802813008269	0
2	1233	1475.22942749746	0
2	1249	1487.537919025787	0
2	1256	1496.245021761891	0
2	1264	1499.843250589328	0
2	1283	1521.971236031246	0
2	1286	1526.815160039725	0.861894093007
2	1289	1531.446679799735	0
2	1304	1555.816747708508	0
2	1307	1565.558078287621	0
2	1335	1593.691818938387	0
2	1344	1601.977330642949	7.924620600086
2	1351	1607.544186653222	6.767904717583
2	1352	1607.570847047115	1.369700785022
2	1353	1607.807244698457	0.530368007965
2	1370	1626.293835459443	0
2	1379	1648.65028595701	0
2	1384	1656.020385095081	0
2	1388	1663.597088844854	0
2	1411	1692.593118654179	0
2	1418	1702.634358119831	0
2	1421	1704.701663731618	0.656249313108
2	1442	1738.454252674602	0
2	1447	1741.641488667229	0.921737286449
2	1452	1748.161508067128	0
2	1460	1757.859588268487	0
2	1469	1767.368673546613	0
2	1495	1784.049462849715	0
2	1505	1792.117079246375	0
2	1510	1794.4149079112	0
2	1536	1818.526846555099	0
2	1547	1829.46275298883	0
2	1552	1833.665581541106	0
2	1562	1843.307894685033	0
2	1571	1851.437395500495	7.992956220783
2	1587	1862.770522318967	0
2	1592	1869.154219044188	1.544254402083
2	1598	1876.33383173463	0
2	1604	1882.561313211549	0
2	1611	1887.597917859815	2.937685018348
2	1616	1894.025950261587	3.905312925869
2	1625	1897.604570887017	2.868741863357
2	1628	1902.690370284096	7.907785511963
2	1649	1916.370962753017	0
2	1652	1918.647451314642	2.032583776008
2	1657	1925.554774995774	4.819492731334
2	1665	1929.162332269995	0
2	1670	1932.874817863425	0
2	1673	1934.963229828487	0
2	1685	1944.851456758737	0
2	1689	1948.340955448881	0
2	1707	1953.268457013058	0
2	1720	1967.516282804715	9.649481432236
2	1721	1967.531425078401	7.323648692386
2	1730	1978.967346173432	14.783121365291
2	1735	1983.126179007703	1.624114088629
2	1746	1989.349374425494	0
2	1766	2012.862673080808	0
2	1769	2019.921680631541	6.404489361087
2	1778	2025.623567493432	0
2	1781	2025.846470828881	0
2	1790	2033.822624385485	0
2	1796	2048.419969629046	0
2	1803	2052.138692184956	2.513499243486
2	1816	2064.552189594795	0
2	1831	2073.668692157529	0
2	1836	2077.103648029754	0
2	1841	2088.586202574979	0
2	1876	2120.679581759205	0
2	1879	2124.601544719918	0
2	1888	2134.590886009148	0
2	1897	2143.369187744806	6.276982645884
2	1911	2150.955897214147	0
2	1914	2153.271435286238	0.792872806663
2	1919	2162.330213646483	2.889071063367
2	1932	2174.026137111401	0
2	1937	2175.810260027072	0.933135709958
2	1976	2203.362833641735	0
2	1983	2210.185249638699	0
2	1996	2227.625873977615	0
2	2005	2238.131746040534	0
2	2009	2242.133203677804	0
2	2016	2248.034681368549	0
2	2023	2250.786372266317	2.16091514673
2	2024	2251.851852726852	2.587555113695
2	2029	2255.761569530635	0
2	2041	2269.078404101132	0
2	2048	2281.407915056777	0
2	2059	2294.073389160887	0
2	2065	2299.254655107225	0
2	2070	2307.682920631133	4.412105884257
2	2075	2311.405846700726	0
2	2084	2321.426164919108	9.354554058637
2	2093	2326.939402234088	6.781961446099
2	2096	2328.873563340761	4.822394680778
2	2097	2329.790165622099	2.75395934959
2	2116	2357.60217715634	0
2	2123	2368.854213218632	0
2	2131	2375.336149475291	0
2	2140	2391.540627696864	0
2	2144	2394.537575755393	0
2	2147	2396.578401336881	1.985522973494
2	2154	2399.90407198209	1.840039397073
2	2155	2400.345322189044	1.033973366046
2	2159	2404.007776202591	0
2	2170	2409.887991364572	0
2	2180	2420.258845075778	0
2	2189	2431.031090306844	0
2	2198	2441.378231003116	0
2	2219	2473.828575666467	0
2	2225	2476.038431469152	0
2	2231	2478.753420485976	0
2	2234	2480.050812506268	0
2	2243	2492.756117412037	0
2	2246	2493.075051710659	0.169085125067
2	2251	2497.948458471926	2.211535777686
3	262	353.806486594846	1
3	268	365.681773055453	1
3	272	366.277593108417	2
3	274	366.96947711796	3
3	276	367.37562924932	4
3	282	372.538237088383	5
3	289	378.84342605593	2
3	296	395.108866655548	1
3	301	398.802451572645	1
3	303	405.13179184954	2
3	311	422.412569317898	1
3	322	442.549636705258	1
3	329	474.486377834592	1
3	332	475.421989887153	1
3	338	486.01203755361	1
3	341	490.964280940228	1
3	344	502.42111818884	1
3	350	512.879312668735	1
3	352	513.300108278291	2
3	357	517.37792215678	2
3	361	521.268841149374	2
3	363	521.451736102533	3
3	365	521.644531756804	4
3	367	523.031970179602	5
3	376	528.775135060848	6
3	378	530.516297140167	7
3	383	535.095573414865	7
3	385	535.143421297066	8
3	392	543.013960428869	6
3	394	547.115870341392	7
3	396	550.628389687831	8
3	400	551.603361689373	8
3	403	553.093432081558	8
3	405	554.58554015067	9
3	407	555.693894496381	10
3	411	560.904965690033	9
3	413	562.183175771037	10
3	430	577.285012749742	1
3	437	583.527318550585	1
3	439	585.860712101486	2
3	442	589.604390752482	2
3	445	593.268599036489	2
3	448	593.945615445594	2
3	452	601.337831599509	1
3	455	602.006823113094	1
3	460	604.606562786087	2
3	469	606.262605825436	2
3	475	621.771707115161	2
3	477	623.478152428114	3
3	479	624.125921233039	4
3	489	634.438264472399	1
3	494	644.162410354917	1
3	499	655.761150417178	1
3	503	673.959931785084	1
3	509	687.434015002645	1
3	512	689.789018320775	1
3	515	690.318468653399	1
3	518	696.078677742603	1
3	525	701.304460470991	1
3	530	711.360537148213	1
3	533	717.265105717427	1
3	536	723.783192104159	1
3	543	730.270064874937	1
3	546	732.819933204043	2
3	548	733.053058829332	3
3	550	735.684145823832	4
3	554	739.488475740151	4
3	560	743.330655856916	3
3	564	749.256155096867	3
3	568	752.712764026691	2
3	572	755.466739437295	1
3	576	760.93974334603	2
3	586	781.689184152703	2
3	599	819.528493444256	1
3	602	821.547518118468	1
3	605	822.77301123129	1
3	608	830.817407002213	1
3	611	835.789956379376	1
3	613	836.012807280952	2
3	615	836.884835418791	3
3	619	839.708282986891	2
3	622	840.808978619282	2
3	624	840.853762189383	3
3	628	844.085361322713	2
3	633	846.411013703629	2
3	638	851.095828983729	1
3	641	852.416503183553	1
3	643	852.799575985766	2
3	645	855.015362450428	3
3	648	856.870881919526	3
3	651	857.470122606675	3
3	659	864.438328555783	3
3	663	866.84705243271	3
3	668	870.064191060586	1
3	680	880.907629699735	2
3	688	886.897877553431	3
3	694	896.459467718701	4
3	697	901.138722177454	5
3	700	901.838333091167	5
3	704	906.720267424941	4
3	706	907.304629168589	5
3	712	910.20118250808	2
3	714	910.807215652924	3
3	716	913.574514808312	4
3	721	916.718514291584	4
3	731	938.113214070786	1
3	734	939.855636114844	1
3	739	941.903343999267	1
3	749	951.235323088263	1
3	752	953.7645456065	1
3	754	954.131800966522	2
3	768	967.561879589131	2
3	771	969.248929710158	3
3	776	981.128766164076	1
3	781	984.64967797129	1
3	788	992.058758373011	1
3	790	993.022457102247	2
3	792	994.843618814642	3
3	794	995.310004753829	4
3	796	995.890692324231	5
3	800	997.538262003008	6
3	809	1004.144208656995	4
3	812	1004.969069407851	4
3	815	1012.784891414861	4
3	818	1020.275262173863	4
3	826	1027.105953438855	2
3	830	1032.57990162082	1
3	833	1036.112749266605	1
3	836	1040.269936681642	1
3	841	1043.545189647818	2
3	844	1044.445633160224	2
3	851	1056.99114203557	1
3	853	1057.408332256596	2
3	855	1057.695634271076	3
3	857	1058.34030264626	4
3	866	1067.418789618196	2
3	870	1069.522717958081	3
3	874	1071.823684603934	4
3	880	1078.908115070611	5
3	887	1089.081278529005	4
3	889	1090.166423086286	5
3	893	1093.379477832127	6
3	895	1095.568665872995	7
3	897	1097.49905940848	8
3	899	1098.06237778226	9
3	908	1107.535674929563	7
3	921	1127.562633744982	2
3	923	1129.125818268705	3
3	930	1134.910175443941	2
3	933	1137.695593867913	3
3	939	1142.971604207458	2
3	941	1144.283520192181	3
3	943	1144.36415753693	4
3	948	1147.77730507514	3
3	950	1147.807613968824	4
3	958	1152.692895364539	1
3	962	1155.727372886009	1
3	965	1159.96449565742	1
3	973	1169.784451757025	1
3	983	1180.571248227153	1
3	986	1186.635293685722	1
3	991	1200.335019634567	1
3	993	1200.711607750009	2
3	1006	1220.067973760954	1
3	1008	1221.824502030007	2
3	1013	1224.304364909182	3
3	1021	1230.446106962579	4
3	1023	1232.199911607834	5
3	1025	1232.55146144496	6
3	1039	1248.169985724238	2
3	1043	1251.610940414798	3
3	1049	1260.051707580898	1
3	1052	1273.480863789561	1
3	1056	1275.614865198161	2
3	1060	1278.705910846315	3
3	1070	1290.257142892744	1
3	1072	1290.476351937939	2
3	1076	1294.558333926445	1
3	1079	1295.194969862997	1
3	1081	1298.469145961321	2
3	1088	1312.468922234017	1
3	1094	1318.486300625705	1
3	1100	1329.004263537288	1
3	1106	1341.073215308729	1
3	1112	1353.038183849804	1
3	1117	1357.209631738552	1
3	1119	1358.403414120671	2
3	1123	1368.535101766433	2
3	1125	1369.773789068574	3
3	1130	1372.702239122632	1
3	1133	1375.19663263639	1
3	1135	1375.675435175064	2
3	1139	1381.001672085159	1
3	1145	1390.252747129706	1
3	1150	1396.40857310132	1
3	1154	1400.801025564541	1
3	1162	1408.13356941288	1
3	1164	1408.536371473633	2
3	1166	1410.161985463876	3
3	1169	1415.538128359142	4
3	1173	1418.35767787119	3
3	1180	1424.921669911081	2
3	1185	1426.614094864422	2
3	1190	1432.222607842784	1
3	1193	1442.222996698082	1
3	1197	1444.198064848616	2
3	1199	1449.820937822766	3
3	1205	1455.730349019555	1
3	1207	1460.447113238915	2
3	1210	1460.896914578703	2
3	1212	1461.115872130259	3
3	1217	1462.124670061107	3
3	1219	1462.700633471581	4
3	1226	1470.579562160737	4
3	1230	1472.574543362705	5
3	1236	1475.580507206687	6
3	1238	1477.205022497322	7
3	1241	1478.320474485941	7
3	1246	1483.397426246693	5
3	1258	1496.937767586653	1
3	1260	1498.830611171799	2
3	1267	1500.784201762015	2
3	1269	1501.497158117024	3
3	1274	1506.442317961978	1
3	1276	1507.650779221399	2
3	1280	1512.051190098046	1
3	1291	1531.736532367248	1
3	1294	1540.440402047908	2
3	1296	1541.207430491449	3
3	1299	1545.342267280811	3
3	1309	1566.461871453538	1
3	1311	1573.038821450581	2
3	1315	1578.621884268138	2
3	1317	1579.471209852182	3
3	1319	1580.955306556738	4
3	1324	1584.972069186987	2
3	1327	1587.914780820544	2
3	1330	1588.562677192826	2
3	1332	1590.213117435772	3
3	1339	1594.148369303908	3
3	1341	1597.472332661122	4
3	1346	1603.412893166858	5
3	1355	1610.361140941767	6
3	1357	1612.921258492617	7
3	1366	1622.530492384492	2
3	1373	1626.720533324722	1
3	1376	1629.195389230047	1
3	1382	1655.732203974104	1
3	1390	1664.173767266319	1
3	1394	1667.84048162413	1
3	1396	1672.587431480594	2
3	1399	1682.820871623587	2
3	1401	1686.620697967989	3
3	1403	1687.400102556708	4
3	1407	1691.939830039799	3
3	1413	1697.705837649233	2
3	1424	1705.897709314654	1
3	1427	1706.977143409481	1
3	1430	1709.595656923147	1
3	1433	1713.280616346672	1
3	1436	1718.307711482229	1
3	1439	1727.842596575137	1
3	1444	1738.532256108061	1
3	1450	1745.15536924503	2
3	1454	1750.977068568455	3
3	1462	1761.69920189294	1
3	1466	1764.879909828769	1
3	1471	1769.510327921407	1
3	1473	1769.662686905255	2
3	1475	1772.57650326932	3
3	1481	1776.547486337018	1
3	1483	1779.140357189923	2
3	1485	1779.579599807901	3
3	1488	1782.22057804426	3
3	1490	1782.349907326977	4
3	1492	1783.161814779042	5
3	1497	1784.133995021681	5
3	1500	1785.615985864887	6
3	1503	1789.884108616875	6
3	1507	1793.046754686311	7
3	1512	1794.803952643133	8
3	1517	1800.159680276575	7
3	1519	1800.347969859587	8
3	1521	1800.707645616249	9
3	1523	1801.256104204597	10
3	1527	1801.956753921504	9
3	1532	1812.154992699625	7
3	1541	1823.996899238172	4
3	1543	1824.358323871243	5
3	1554	1836.45187561965	2
3	1557	1840.008274412585	3
3	1559	1841.234556093101	4
3	1566	1843.688398036539	4
3	1568	1847.353383362444	5
3	1570	1847.991543894249	6
3	1574	1852.958841086769	7
3	1576	1854.319497317849	8
3	1578	1854.602983708075	9
3	1580	1856.592614582239	10
3	1585	1861.755293482292	8
3	1589	1865.134759112188	9
3	1595	1872.634067537722	10
3	1606	1883.973638232786	7
3	1610	1884.864123740976	8
3	1615	1893.056431150796	9
3	1622	1895.235593568353	10
3	1624	1896.619244187945	11
3	1627	1899.952091821767	12
3	1630	1904.792094178918	13
3	1633	1905.949644058689	14
3	1635	1906.189272121241	15
3	1637	1906.310266049103	16
3	1641	1910.064895668043	15
3	1643	1910.432722832675	16
3	1654	1919.831290517132	13
3	1661	1927.792825467848	13
3	1679	1942.654846295255	7
3	1682	1943.763091946738	7
3	1691	1948.749602255876	6
3	1693	1950.000732737322	7
3	1698	1951.642251003415	6
3	1700	1951.799185519669	7
3	1702	1952.055013890343	8
3	1705	1953.065928144397	8
3	1709	1956.424155870648	9
3	1711	1957.474563715191	10
3	1719	1964.933833826549	11
3	1723	1968.592386030924	12
3	1725	1969.34898975897	13
3	1727	1969.484815001705	14
3	1729	1974.265543902126	15
3	1732	1979.799515164541	16
3	1737	1983.543359251332	17
3	1739	1985.116617010423	18
3	1741	1985.176373201519	19
3	1744	1989.323640583148	20
3	1751	1992.445863108941	19
3	1754	1995.174490983182	19
3	1757	2003.384739175332	19
3	1772	2021.035231488663	13
3	1774	2022.691986197565	14
3	1776	2024.424489608439	15
3	1786	2032.573350378321	14
3	1792	2040.262769658013	13
3	1800	2050.119920370208	13
3	1802	2051.289299350839	14
3	1805	2052.187559519501	15
3	1807	2052.927983738503	16
3	1812	2062.504677859905	15
3	1818	2064.570056478275	14
3	1820	2065.606714741841	15
3	1824	2068.813325353107	15
3	1826	2069.057701940143	16
3	1828	2070.722486130024	17
3	1834	2075.37107256917	17
3	1838	2081.2465855082	18
3	1843	2091.654055142967	19
3	1846	2092.260820689475	20
3	1852	2094.954573011485	17
3	1854	2095.000990167318	18
3	1856	2095.616695549053	19
3	1858	2098.156338219043	20
3	1869	2110.509970325016	12
3	1871	2112.63603880522	13
3	1883	2128.384291159794	10
3	1890	2135.52743954477	8
3	1894	2137.95428474716	9
3	1896	2141.483781000419	10
3	1900	2144.838835463873	11
3	1903	2146.097554805039	11
3	1905	2147.637824399764	12
3	1907	2147.908245022801	13
3	1916	2153.841800332868	12
3	1927	2170.106804951045	8
3	1929	2171.807960463255	9
3	1936	2175.586402497431	9
3	1939	2176.029857074613	10
3	1941	2176.532182473433	11
3	1947	2182.258267786964	9
3	1951	2186.026213005342	8
3	1957	2190.031612514235	5
3	1959	2190.338604719802	6
3	1965	2194.035644742901	3
3	1967	2194.219215812178	4
3	1969	2194.800346682568	5
3	1971	2195.505327166771	6
3	1974	2200.301928755461	6
3	1980	2205.260242721671	6
3	1985	2212.978543250985	6
3	1992	2218.401738868478	3
3	1998	2231.6888974157	2
3	2000	2232.160805776433	3
3	2012	2242.499922673285	1
3	2014	2243.184785917625	2
3	2022	2250.685370065785	3
3	2026	2252.673045758928	4
3	2036	2267.246014265392	1
3	2038	2268.474724829651	2
3	2043	2269.741634491775	2
3	2045	2277.531386126788	3
3	2050	2281.770579119244	4
3	2053	2289.120199837914	5
3	2056	2291.610947141186	5
3	2067	2301.845248084802	2
3	2072	2309.3486611221	3
3	2079	2312.48576148445	4
3	2083	2321.414216168564	5
3	2086	2322.723563111304	6
3	2090	2325.444909981807	7
3	2092	2326.927694289163	8
3	2100	2339.039642975497	9
3	2111	2353.64283353141	1
3	2114	2355.579837939564	1
3	2120	2361.018160111167	1
3	2125	2370.25216810804	1
3	2129	2374.734358178106	1
3	2135	2381.62286787679	1
3	2138	2391.369561375134	1
3	2151	2398.603661812539	1
3	2161	2406.783342546031	1
3	2163	2407.857781259968	2
3	2165	2408.145927152709	3
3	2167	2408.328100479312	4
3	2173	2413.359487324612	5
3	2177	2417.607621678589	4
3	2182	2420.888301591342	4
3	2192	2438.224905821943	1
3	2195	2440.539793634743	1
3	2200	2441.841174484505	1
3	2202	2442.019627339634	2
3	2205	2448.814280871778	3
3	2210	2451.482520193741	1
3	2213	2461.05014759091	1
3	2215	2461.893526906538	2
3	2221	2473.991061509088	1
3	2228	2478.562827554357	1
3	2236	2481.528665196426	1
3	2240	2483.86827997513	1
3	2250	2497.131458269133	1
4	262	353.806486594846	0
4	264	357.566405980517	0
4	268	365.681773055453	0
4	272	366.277593108417	1
4	274	366.96947711796	2
4	276	367.37562924932	3
4	282	372.538237088383	4
4	284	374.163436042875	4
4	285	374.368153659836	3
4	286	377.830158231489	2
4	287	378.519398061527	1
4	289	378.84342605593	1
4	293	382.666335326291	1
4	294	383.137909444656	0
4	296	395.108866655548	0
4	297	395.126404127389	0
4	301	398.802451572645	0
4	303	405.13179184954	1
4	308	415.895349948596	1
4	309	416.332614022647	0
4	311	422.412569317898	0
4	312	424.480296780403	0
4	322	442.549636705258	0
4	324	448.904844282874	0
4	329	474.486377834592	0
4	330	474.713927422567	0
4	332	475.421989887153	0
4	333	476.033825745161	0
4	338	486.01203755361	0
4	339	486.883613306033	0
4	341	490.964280940228	0
4	342	492.336284906571	0
4	344	502.42111818884	0
4	345	503.395673837673	0
4	350	512.879312668735	0
4	352	513.300108278291	1
4	353	515.118364337555	1
4	357	517.37792215678	1
4	359	519.636891850667	1
4	361	521.268841149374	1
4	363	521.451736102533	2
4	365	521.644531756804	3
4	367	523.031970179602	4
4	376	528.775135060848	5
4	378	530.516297140167	6
4	381	532.931581390173	6
4	383	535.095573414865	6
4	385	535.143421297066	7
4	386	535.545764235102	7
4	387	538.035053735395	6
4	388	539.829216051931	5
4	392	543.013960428869	5
4	394	547.115870341392	6
4	396	550.628389687831	7
4	398	551.55173563303	7
4	400	551.603361689373	7
4	401	551.832916352728	7
4	403	553.093432081558	7
4	405	554.58554015067	8
4	407	555.693894496381	9
4	408	556.335849528437	9
4	409	557.149213769189	8
4	411	560.904965690033	8
4	413	562.183175771037	9
4	414	562.322214121136	9
4	415	565.380453157962	8
4	416	566.231954696119	7
4	417	566.839578527654	6
4	418	568.432804663742	5
4	422	570.289951715391	4
4	423	570.567213328398	3
4	424	571.643710475675	2
4	425	572.740666329809	1
4	426	573.422708998887	0
4	430	577.285012749742	0
4	432	577.922934822865	0
4	437	583.527318550585	0
4	439	585.860712101486	1
4	440	589.146323134492	1
4	442	589.604390752482	1
4	443	592.903040930942	1
4	445	593.268599036489	1
4	446	593.817746098794	1
4	448	593.945615445594	1
4	449	595.261667438781	1
4	450	596.402730161048	0
4	452	601.337831599509	0
4	453	601.38797259993	0
4	455	602.006823113094	0
4	460	604.606562786087	1
4	464	605.423831156501	1
4	469	606.262605825436	1
4	470	609.09463051817	1
4	475	621.771707115161	1
4	477	623.478152428114	2
4	479	624.125921233039	3
4	480	624.944967398037	3
4	481	628.429799833182	2
4	482	629.017932507579	1
4	483	629.588844199339	0
4	489	634.438264472399	0
4	492	643.531807179902	0
4	494	644.162410354917	0
4	495	647.304306934971	0
4	499	655.761150417178	0
4	501	658.296957364463	0
4	503	673.959931785084	0
4	504	675.391498740892	0
4	509	687.434015002645	0
4	510	687.723474575934	0
4	512	689.789018320775	0
4	513	690.311063986903	0
4	515	690.318468653399	0
4	516	691.730957563379	0
4	518	696.078677742603	0
4	519	700.729956256805	0
4	525	701.304460470991	0
4	528	707.310085732354	0
4	530	711.360537148213	0
4	531	712.724221156349	0
4	533	717.265105717427	0
4	534	718.056824315266	0
4	536	723.783192104159	0
4	537	725.33807957091	0
4	543	730.270064874937	0
4	546	732.819933204043	1
4	548	733.053058829332	2
4	550	735.684145823832	3
4	552	739.022111747449	3
4	554	739.488475740151	3
4	555	739.522511109643	3
4	556	740.118348994483	2
4	560	743.330655856916	2
4	562	747.373138970954	2
4	564	749.256155096867	2
4	565	750.727083824349	2
4	566	750.775011844298	1
4	568	752.712764026691	1
4	569	753.07887186548	1
4	570	753.10004048578	0
4	572	755.466739437295	0
4	576	760.93974334603	1
4	584	773.89373902435	1
4	586	781.689184152703	1
4	587	783.213131964751	1
4	588	783.982856573524	0
4	599	819.528493444256	0
4	600	821.542366893302	0
4	602	821.547518118468	0
4	603	822.755624236636	0
4	605	822.77301123129	0
4	606	822.842229763004	0
4	608	830.817407002213	0
4	609	834.861597362792	0
4	611	835.789956379376	0
4	613	836.012807280952	1
4	615	836.884835418791	2
4	616	837.034806438485	2
4	617	839.069915621669	1
4	619	839.708282986891	1
4	620	840.057378945307	1
4	622	840.808978619282	1
4	624	840.853762189383	2
4	625	840.863990728289	2
4	626	843.359430050445	1
4	628	844.085361322713	1
4	629	844.921104578313	1
4	633	846.411013703629	1
4	635	850.583006167979	1
4	636	850.821302675544	0
4	638	851.095828983729	0
4	639	852.195318115206	0
4	641	852.416503183553	0
4	643	852.799575985766	1
4	645	855.015362450428	2
4	646	855.807839977812	2
4	648	856.870881919526	2
4	649	857.048234880819	2
4	651	857.470122606675	2
4	652	857.547547854584	2
4	659	864.438328555783	2
4	661	866.800535135732	2
4	663	866.84705243271	2
4	664	867.539995096453	2
4	665	868.099580293621	1
4	666	869.593046569255	0
4	668	870.064191060586	0
4	680	880.907629699735	1
4	688	886.897877553431	2
4	694	896.459467718701	3
4	697	901.138722177454	4
4	698	901.465141731451	4
4	700	901.838333091167	4
4	701	902.114079202464	4
4	702	902.614528626642	3
4	704	906.720267424941	3
4	706	907.304629168589	4
4	707	907.31012519721	4
4	708	908.134512321199	3
4	709	909.225439655174	2
4	710	909.693090717352	1
4	712	910.20118250808	1
4	714	910.807215652924	2
4	716	913.574514808312	3
4	717	915.645518956273	3
4	721	916.718514291584	3
4	723	920.889434872492	3
4	724	921.189758985159	2
4	725	921.977541157401	1
4	726	923.291352566595	0
4	731	938.113214070786	0
4	732	938.841008140225	0
4	734	939.855636114844	0
4	735	939.879622472592	0
4	739	941.903343999267	0
4	747	950.587369017748	0
4	749	951.235323088263	0
4	750	951.358479893366	0
4	752	953.7645456065	0
4	754	954.131800966522	1
4	755	955.155571516455	1
4	768	967.561879589131	1
4	771	969.248929710158	2
4	772	970.349892839757	2
4	773	970.679633172616	1
4	774	971.716801102549	0
4	776	981.128766164076	0
4	777	981.332106299206	0
4	781	984.64967797129	0
4	786	988.367114193134	0
4	788	992.058758373011	0
4	790	993.022457102247	1
4	792	994.843618814642	2
4	794	995.310004753829	3
4	796	995.890692324231	4
4	800	997.538262003008	5
4	802	1000.247941782766	5
4	803	1000.574016620817	4
4	804	1001.234223576389	3
4	809	1004.144208656995	3
4	810	1004.437611162366	3
4	812	1004.969069407851	3
4	813	1010.177680557275	3
4	815	1012.784891414861	3
4	816	1016.004578067017	3
4	818	1020.275262173863	3
4	822	1024.94917806127	3
4	823	1025.730075476267	2
4	824	1026.182093971087	1
4	826	1027.105953438855	1
4	827	1031.09024997439	1
4	828	1031.414633600064	0
4	830	1032.57990162082	0
4	831	1032.791424598536	0
4	833	1036.112749266605	0
4	834	1038.720979519028	0
4	836	1040.269936681642	0
4	841	1043.545189647818	1
4	842	1043.770726402074	1
4	844	1044.445633160224	1
4	845	1044.490918610847	1
4	846	1047.226864031157	0
4	851	1056.99114203557	0
4	853	1057.408332256596	1
4	855	1057.695634271076	2
4	857	1058.34030264626	3
4	858	1059.153870865227	3
4	859	1060.990258353572	2
4	860	1062.37102542837	1
4	866	1067.418789618196	1
4	870	1069.522717958081	2
4	874	1071.823684603934	3
4	880	1078.908115070611	4
4	884	1086.352829666132	4
4	885	1088.477338947329	3
4	887	1089.081278529005	3
4	889	1090.166423086286	4
4	893	1093.379477832127	5
4	895	1095.568665872995	6
4	897	1097.49905940848	7
4	899	1098.06237778226	8
4	901	1104.31923874827	8
4	902	1105.968331188678	7
4	903	1106.304654954471	6
4	908	1107.535674929563	6
4	909	1109.531476651063	6
4	910	1113.460787083141	5
4	911	1114.21011080413	4
4	915	1120.123163143185	3
4	916	1123.904984734237	2
4	917	1126.987446567924	1
4	921	1127.562633744982	1
4	923	1129.125818268705	2
4	925	1131.271519761407	2
4	926	1131.752228153774	1
4	930	1134.910175443941	1
4	933	1137.695593867913	2
4	934	1138.914280610022	2
4	935	1139.594602984482	1
4	939	1142.971604207458	1
4	941	1144.283520192181	2
4	943	1144.36415753693	3
4	945	1145.577659760458	3
4	946	1146.216535869932	2
4	948	1147.77730507514	2
4	950	1147.807613968824	3
4	951	1148.683185749859	3
4	952	1149.254555803479	2
4	953	1149.256796067071	1
4	954	1149.285956691064	0
4	958	1152.692895364539	0
4	960	1155.096742239287	0
4	962	1155.727372886009	0
4	963	1157.606046279745	0
4	965	1159.96449565742	0
4	966	1163.007294517365	0
4	973	1169.784451757025	0
4	981	1177.061709706086	0
4	983	1180.571248227153	0
4	984	1182.161715236312	0
4	986	1186.635293685722	0
4	987	1187.235182521896	0
4	991	1200.335019634567	0
4	993	1200.711607750009	1
4	995	1202.544609633107	1
4	996	1206.577389754977	0
4	1006	1220.067973760954	0
4	1008	1221.824502030007	1
4	1013	1224.304364909182	2
4	1021	1230.446106962579	3
4	1023	1232.199911607834	4
4	1025	1232.55146144496	5
4	1027	1235.673621772489	5
4	1034	1246.166107112746	4
4	1035	1246.878914102078	3
4	1036	1246.995298981728	2
4	1037	1247.397441450179	1
4	1039	1248.169985724238	1
4	1043	1251.610940414798	2
4	1045	1254.658903122661	2
4	1046	1254.678271265057	1
4	1047	1255.777429088751	0
4	1049	1260.051707580898	0
4	1050	1264.323235570242	0
4	1052	1273.480863789561	0
4	1056	1275.614865198161	1
4	1060	1278.705910846315	2
4	1063	1284.201523900062	2
4	1064	1284.890239328625	1
4	1068	1288.757985699009	0
4	1070	1290.257142892744	0
4	1072	1290.476351937939	1
4	1073	1290.895588244249	1
4	1074	1293.308201133378	0
4	1076	1294.558333926445	0
4	1077	1294.88631649305	0
4	1079	1295.194969862997	0
4	1081	1298.469145961321	1
4	1082	1300.407237576866	1
4	1086	1307.813795803945	0
4	1088	1312.468922234017	0
4	1092	1316.870316002396	0
4	1094	1318.486300625705	0
4	1095	1319.04325141452	0
4	1100	1329.004263537288	0
4	1101	1329.998749377256	0
4	1106	1341.073215308729	0
4	1107	1342.802787194888	0
4	1112	1353.038183849804	0
4	1113	1353.928390460081	0
4	1117	1357.209631738552	0
4	1119	1358.403414120671	1
4	1121	1366.567421450414	1
4	1123	1368.535101766433	1
4	1125	1369.773789068574	2
4	1126	1371.637597866714	2
4	1127	1372.031062819128	1
4	1128	1372.087487462169	0
4	1130	1372.702239122632	0
4	1131	1373.32263397655	0
4	1133	1375.19663263639	0
4	1135	1375.675435175064	1
4	1136	1375.732366677854	1
4	1137	1378.645863893398	0
4	1139	1381.001672085159	0
4	1140	1381.167445009916	0
4	1145	1390.252747129706	0
4	1146	1390.396854045659	0
4	1150	1396.40857310132	0
4	1152	1398.565253853272	0
4	1154	1400.801025564541	0
4	1155	1401.980720971548	0
4	1162	1408.13356941288	0
4	1164	1408.536371473633	1
4	1166	1410.161985463876	2
4	1169	1415.538128359142	3
4	1170	1416.102550296008	3
4	1171	1416.993503304225	2
4	1173	1418.35767787119	2
4	1174	1419.534989055705	2
4	1178	1423.066456309282	1
4	1180	1424.921669911081	1
4	1181	1425.053484889657	1
4	1185	1426.614094864422	1
4	1187	1429.56451991461	1
4	1188	1429.618891596257	0
4	1190	1432.222607842784	0
4	1191	1434.654872296349	0
4	1193	1442.222996698082	0
4	1197	1444.198064848616	1
4	1199	1449.820937822766	2
4	1201	1451.30031794013	2
4	1202	1452.455952206737	1
4	1203	1455.591281335758	0
4	1205	1455.730349019555	0
4	1207	1460.447113238915	1
4	1208	1460.45728814917	1
4	1210	1460.896914578703	1
4	1212	1461.115872130259	2
4	1213	1461.407783096467	2
4	1217	1462.124670061107	2
4	1219	1462.700633471581	3
4	1221	1466.096701651258	3
4	1226	1470.579562160737	3
4	1230	1472.574543362705	4
4	1236	1475.580507206687	5
4	1238	1477.205022497322	6
4	1239	1478.048765896095	6
4	1241	1478.320474485941	6
4	1242	1478.497849196587	6
4	1243	1481.57513850687	5
4	1244	1482.955097770279	4
4	1246	1483.397426246693	4
4	1247	1483.558463672483	4
4	1251	1491.574580072261	3
4	1252	1492.069956120706	2
4	1253	1494.606191112297	1
4	1254	1496.096300541112	0
4	1258	1496.937767586653	0
4	1260	1498.830611171799	1
4	1262	1499.395156975144	1
4	1267	1500.784201762015	1
4	1269	1501.497158117024	2
4	1270	1501.530564927123	2
4	1271	1503.175775586448	1
4	1272	1503.309493543768	0
4	1274	1506.442317961978	0
4	1276	1507.650779221399	1
4	1277	1508.656815829474	1
4	1278	1508.977187036677	0
4	1280	1512.051190098046	0
4	1281	1512.237082849398	0
4	1291	1531.736532367248	0
4	1294	1540.440402047908	1
4	1296	1541.207430491449	2
4	1297	1544.861186601811	2
4	1299	1545.342267280811	2
4	1300	1545.491429564258	2
4	1301	1546.766938540282	1
4	1302	1551.275082155081	0
4	1309	1566.461871453538	0
4	1311	1573.038821450581	1
4	1313	1577.49556707396	1
4	1315	1578.621884268138	1
4	1317	1579.471209852182	2
4	1319	1580.955306556738	3
4	1320	1582.952816031858	3
4	1321	1583.426027025072	2
4	1322	1584.884805684776	1
4	1324	1584.972069186987	1
4	1325	1586.943045017802	1
4	1327	1587.914780820544	1
4	1328	1588.071952397748	1
4	1330	1588.562677192826	1
4	1332	1590.213117435772	2
4	1333	1592.923541851564	2
4	1339	1594.148369303908	2
4	1341	1597.472332661122	3
4	1346	1603.412893166858	4
4	1355	1610.361140941767	5
4	1357	1612.921258492617	6
4	1359	1615.758074195883	6
4	1360	1616.758898448964	5
4	1361	1618.521006691594	4
4	1362	1618.911471913901	3
4	1363	1621.039764416408	2
4	1364	1621.742432868493	1
4	1366	1622.530492384492	1
4	1367	1622.657213240162	1
4	1368	1623.406988088438	0
4	1373	1626.720533324722	0
4	1374	1628.550343260642	0
4	1376	1629.195389230047	0
4	1377	1629.981252020042	0
4	1382	1655.732203974104	0
4	1386	1659.356933482402	0
4	1390	1664.173767266319	0
4	1392	1667.654740842815	0
4	1394	1667.84048162413	0
4	1396	1672.587431480594	1
4	1397	1677.769602546048	1
4	1399	1682.820871623587	1
4	1401	1686.620697967989	2
4	1403	1687.400102556708	3
4	1404	1690.547474809883	3
4	1405	1691.172939930736	2
4	1407	1691.939830039799	2
4	1408	1692.049277455009	2
4	1409	1692.592168858182	1
4	1413	1697.705837649233	1
4	1415	1698.008325989806	1
4	1416	1698.858628533607	0
4	1424	1705.897709314654	0
4	1425	1706.107596806655	0
4	1427	1706.977143409481	0
4	1428	1708.251274109489	0
4	1430	1709.595656923147	0
4	1431	1710.58956693621	0
4	1433	1713.280616346672	0
4	1434	1717.171873253496	0
4	1436	1718.307711482229	0
4	1437	1720.163804078176	0
4	1439	1727.842596575137	0
4	1440	1728.648153484853	0
4	1444	1738.532256108061	0
4	1450	1745.15536924503	1
4	1454	1750.977068568455	2
4	1456	1752.92468794254	2
4	1457	1753.82588845149	1
4	1458	1754.133610183396	0
4	1462	1761.69920189294	0
4	1464	1763.55313570852	0
4	1466	1764.879909828769	0
4	1467	1765.755158475189	0
4	1471	1769.510327921407	0
4	1473	1769.662686905255	1
4	1475	1772.57650326932	2
4	1477	1773.243001202994	2
4	1478	1774.839567594374	1
4	1479	1776.417952998393	0
4	1481	1776.547486337018	0
4	1483	1779.140357189923	1
4	1485	1779.579599807901	2
4	1486	1780.182338692978	2
4	1488	1782.22057804426	2
4	1490	1782.349907326977	3
4	1492	1783.161814779042	4
4	1493	1783.823484467478	4
4	1497	1784.133995021681	4
4	1500	1785.615985864887	5
4	1501	1787.681061097426	5
4	1503	1789.884108616875	5
4	1507	1793.046754686311	6
4	1512	1794.803952643133	7
4	1514	1796.820972151853	7
4	1515	1799.584944545479	6
4	1517	1800.159680276575	6
4	1519	1800.347969859587	7
4	1521	1800.707645616249	8
4	1523	1801.256104204597	9
4	1524	1801.835465122729	9
4	1525	1801.897279276018	8
4	1527	1801.956753921504	8
4	1528	1808.607587808616	8
4	1529	1809.476076202495	7
4	1530	1810.918735428311	6
4	1532	1812.154992699625	6
4	1533	1816.058458143162	6
4	1534	1818.10139469241	5
4	1538	1823.057087009778	4
4	1539	1823.880078216089	3
4	1541	1823.996899238172	3
4	1543	1824.358323871243	4
4	1544	1825.703899330336	4
4	1545	1827.822818536031	3
4	1549	1830.835599186335	2
4	1550	1832.573419578964	1
4	1554	1836.45187561965	1
4	1557	1840.008274412585	2
4	1559	1841.234556093101	3
4	1560	1842.701383078121	3
4	1566	1843.688398036539	3
4	1568	1847.353383362444	4
4	1570	1847.991543894249	5
4	1574	1852.958841086769	6
4	1576	1854.319497317849	7
4	1578	1854.602983708075	8
4	1580	1856.592614582239	9
4	1581	1857.422525881371	9
4	1582	1857.62236706384	8
4	1583	1859.321052879442	7
4	1585	1861.755293482292	7
4	1589	1865.134759112188	8
4	1595	1872.634067537722	9
4	1596	1874.266446992785	9
4	1600	1878.048119507971	8
4	1601	1882.184248303137	7
4	1602	1882.493833019031	6
4	1606	1883.973638232786	6
4	1610	1884.864123740976	7
4	1615	1893.056431150796	8
4	1622	1895.235593568353	9
4	1624	1896.619244187945	10
4	1627	1899.952091821767	11
4	1630	1904.792094178918	12
4	1633	1905.949644058689	13
4	1635	1906.189272121241	14
4	1637	1906.310266049103	15
4	1638	1908.124936986943	15
4	1639	1908.222722071235	14
4	1641	1910.064895668043	14
4	1643	1910.432722832675	15
4	1644	1910.649375496478	15
4	1645	1911.540443434593	14
4	1646	1914.053120424833	13
4	1647	1915.239173158431	12
4	1654	1919.831290517132	12
4	1659	1927.741585013267	12
4	1661	1927.792825467848	12
4	1662	1928.417502533341	12
4	1663	1928.90361422016	11
4	1667	1931.358848210444	10
4	1668	1931.884371168331	9
4	1675	1936.564970792349	8
4	1676	1937.128165850376	7
4	1677	1937.934037557211	6
4	1679	1942.654846295255	6
4	1680	1943.476130068031	6
4	1682	1943.763091946738	6
4	1683	1944.31385979569	6
4	1687	1947.72053748987	5
4	1691	1948.749602255876	5
4	1693	1950.000732737322	6
4	1695	1950.501250390203	6
4	1696	1951.020614823665	5
4	1698	1951.642251003415	5
4	1700	1951.799185519669	6
4	1702	1952.055013890343	7
4	1703	1953.011392489042	7
4	1705	1953.065928144397	7
4	1709	1956.424155870648	8
4	1711	1957.474563715191	9
4	1719	1964.933833826549	10
4	1723	1968.592386030924	11
4	1725	1969.34898975897	12
4	1727	1969.484815001705	13
4	1729	1974.265543902126	14
4	1732	1979.799515164541	15
4	1737	1983.543359251332	16
4	1739	1985.116617010423	17
4	1741	1985.176373201519	18
4	1744	1989.323640583148	19
4	1748	1991.73312070838	19
4	1749	1992.202263967166	18
4	1751	1992.445863108941	18
4	1752	1992.531558985016	18
4	1754	1995.174490983182	18
4	1755	1998.431725144525	18
4	1757	2003.384739175332	18
4	1758	2007.301000975661	18
4	1759	2007.492655118349	17
4	1760	2007.715989741487	16
4	1761	2008.931364546711	15
4	1762	2009.566306916443	14
4	1763	2011.107950541116	13
4	1764	2011.414956174436	12
4	1772	2021.035231488663	12
4	1774	2022.691986197565	13
4	1776	2024.424489608439	14
4	1783	2027.890544097847	14
4	1784	2030.526046087627	13
4	1786	2032.573350378321	13
4	1787	2033.465811385505	13
4	1788	2033.632416784002	12
4	1792	2040.262769658013	12
4	1794	2045.837794519895	12
4	1800	2050.119920370208	12
4	1802	2051.289299350839	13
4	1805	2052.187559519501	14
4	1807	2052.927983738503	15
4	1809	2059.491712717878	15
4	1810	2061.135677783263	14
4	1812	2062.504677859905	14
4	1813	2062.785763923047	14
4	1814	2063.69579062432	13
4	1818	2064.570056478275	13
4	1820	2065.606714741841	14
4	1822	2067.872587099042	14
4	1824	2068.813325353107	14
4	1826	2069.057701940143	15
4	1828	2070.722486130024	16
4	1829	2072.620899277716	16
4	1834	2075.37107256917	16
4	1838	2081.2465855082	17
4	1843	2091.654055142967	18
4	1846	2092.260820689475	19
4	1847	2092.31379229381	19
4	1848	2093.261665677752	18
4	1849	2093.80824172578	17
4	1850	2094.235805639376	16
4	1852	2094.954573011485	16
4	1854	2095.000990167318	17
4	1856	2095.616695549053	18
4	1858	2098.156338219043	19
4	1859	2099.217193854885	19
4	1860	2099.670678425933	18
4	1861	2100.221533046299	17
4	1862	2101.121964285334	16
4	1863	2101.152595919005	15
4	1864	2105.376966865297	14
4	1865	2106.839387589731	13
4	1866	2108.431128260693	12
4	1867	2110.503194577171	11
4	1869	2110.509970325016	11
4	1871	2112.63603880522	12
4	1872	2114.759260466178	12
4	1873	2116.952376694095	11
4	1874	2119.050614067505	10
4	1881	2127.98583555146	9
4	1883	2128.384291159794	9
4	1884	2128.447392933378	9
4	1885	2129.695897770078	8
4	1886	2131.774638033437	7
4	1890	2135.52743954477	7
4	1894	2137.95428474716	8
4	1896	2141.483781000419	9
4	1900	2144.838835463873	10
4	1901	2145.073011959373	10
4	1903	2146.097554805039	10
4	1905	2147.637824399764	11
4	1907	2147.908245022801	12
4	1908	2148.05136512672	12
4	1909	2148.184280948148	11
4	1916	2153.841800332868	11
4	1921	2166.159593272286	11
4	1922	2166.617095592756	10
4	1923	2167.770280933834	9
4	1924	2168.108531751823	8
4	1925	2169.43573635198	7
4	1927	2170.106804951045	7
4	1929	2171.807960463255	8
4	1930	2172.575209369968	8
4	1936	2175.586402497431	8
4	1939	2176.029857074613	9
4	1941	2176.532182473433	10
4	1943	2178.785737238451	10
4	1944	2181.291998932659	9
4	1945	2181.961600358418	8
4	1947	2182.258267786964	8
4	1948	2184.092131972387	8
4	1949	2185.824376192222	7
4	1951	2186.026213005342	7
4	1952	2186.356285175642	7
4	1953	2186.372624043624	6
4	1954	2186.738241159318	5
4	1955	2190.005009668269	4
4	1957	2190.031612514235	4
4	1959	2190.338604719802	5
4	1960	2192.383554712768	5
4	1961	2192.622194558968	4
4	1962	2192.844842025418	3
4	1963	2193.048228706209	2
4	1965	2194.035644742901	2
4	1967	2194.219215812178	3
4	1969	2194.800346682568	4
4	1971	2195.505327166771	5
4	1972	2199.690206780381	5
4	1974	2200.301928755461	5
4	1978	2204.753618222198	5
4	1980	2205.260242721671	5
4	1981	2206.85800557408	5
4	1985	2212.978543250985	5
4	1987	2213.66665880283	5
4	1988	2215.204268934965	4
4	1989	2215.698509834331	3
4	1990	2216.306535686352	2
4	1992	2218.401738868478	2
4	1993	2219.066625470565	2
4	1994	2224.099009269793	1
4	1998	2231.6888974157	1
4	2000	2232.160805776433	2
4	2002	2234.677397452809	2
4	2003	2236.781766462168	1
4	2007	2241.708587287725	0
4	2012	2242.499922673285	0
4	2014	2243.184785917625	1
4	2022	2250.685370065785	2
4	2026	2252.673045758928	3
4	2031	2264.238596089552	3
4	2032	2264.279857152158	2
4	2033	2264.564681973834	1
4	2034	2265.770590922185	0
4	2036	2267.246014265392	0
4	2038	2268.474724829651	1
4	2039	2268.580242849714	1
4	2043	2269.741634491775	1
4	2045	2277.531386126788	2
4	2050	2281.770579119244	3
4	2053	2289.120199837914	4
4	2054	2289.167344389278	4
4	2056	2291.610947141186	4
4	2057	2293.379544558134	4
4	2061	2295.636561588369	3
4	2062	2296.359002969939	2
4	2063	2298.882568716382	1
4	2067	2301.845248084802	1
4	2072	2309.3486611221	2
4	2079	2312.48576148445	3
4	2083	2321.414216168564	4
4	2086	2322.723563111304	5
4	2090	2325.444909981807	6
4	2092	2326.927694289163	7
4	2100	2339.039642975497	8
4	2101	2339.14564560691	8
4	2102	2339.352242344972	7
4	2103	2347.370785972195	6
4	2104	2347.773791810735	5
4	2105	2348.287416256663	4
4	2106	2349.422979558196	3
4	2107	2351.045060147961	2
4	2108	2352.966199738066	1
4	2109	2352.969195385754	0
4	2111	2353.64283353141	0
4	2112	2354.994042393939	0
4	2114	2355.579837939564	0
4	2118	2360.383991467353	0
4	2120	2361.018160111167	0
4	2121	2361.930365586488	0
4	2125	2370.25216810804	0
4	2127	2374.111761643646	0
4	2129	2374.734358178106	0
4	2133	2378.44386499021	0
4	2135	2381.62286787679	0
4	2136	2382.143384252107	0
4	2138	2391.369561375134	0
4	2142	2394.31946646781	0
4	2151	2398.603661812539	0
4	2157	2401.954128611118	0
4	2161	2406.783342546031	0
4	2163	2407.857781259968	1
4	2165	2408.145927152709	2
4	2167	2408.328100479312	3
4	2173	2413.359487324612	4
4	2174	2413.976216248816	4
4	2175	2415.647587382823	3
4	2177	2417.607621678589	3
4	2178	2419.130822100073	3
4	2182	2420.888301591342	3
4	2184	2422.914851624538	3
4	2185	2426.163707120383	2
4	2186	2426.610487483074	1
4	2187	2426.69514001017	0
4	2192	2438.224905821943	0
4	2193	2439.693878532661	0
4	2195	2440.539793634743	0
4	2196	2441.141011823364	0
4	2200	2441.841174484505	0
4	2202	2442.019627339634	1
4	2205	2448.814280871778	2
4	2206	2449.02991594003	2
4	2207	2449.741810941637	1
4	2208	2450.013889024628	0
4	2210	2451.482520193741	0
4	2211	2454.366605738087	0
4	2213	2461.05014759091	0
4	2215	2461.893526906538	1
4	2216	2467.345480190609	1
4	2217	2469.320603441278	0
4	2221	2473.991061509088	0
4	2223	2475.555948346219	0
4	2228	2478.562827554357	0
4	2229	2478.653498318036	0
4	2236	2481.528665196426	0
4	2238	2482.822839713536	0
4	2240	2483.86827997513	0
4	2241	2484.924143752765	0
4	2250	2497.131458269133	0
5	263	356.394973417554	25
5	277	370.016165879009	26
5	278	372.067039803894	27
5	283	374.089980866135	28
5	292	382.027872377696	29
5	306	413.354743559112	30
5	307	415.525134547372	31
5	315	431.685403470352	32
5	318	436.091573469734	33
5	323	447.638041665716	34
5	327	462.360675634899	35
5	336	484.260779123001	36
5	348	506.093293089636	37
5	358	518.791238538074	38
5	370	524.652145355202	39
5	379	531.377649626611	40
5	380	532.057631871284	41
5	397	550.803119315053	42
5	421	570.079414054946	43
5	431	577.319774481461	44
5	435	581.940827981848	45
5	458	604.308184076873	46
5	463	604.902264054503	47
5	467	605.601067539404	48
5	473	619.256519672594	49
5	490	635.149582827568	50
5	491	641.05810173011	51
5	500	658.194420446817	52
5	507	682.506081014944	53
5	526	701.346691513151	54
5	527	705.531410740838	55
5	544	730.309612115895	56
5	551	738.709238120114	57
5	561	743.477071666477	58
5	579	769.024271757747	59
5	580	769.621925017819	60
5	583	773.546487196823	61
5	591	797.526453608838	62
5	594	808.490157099016	63
5	597	819.116557468134	64
5	634	849.531307244858	65
5	657	864.238767685215	66
5	660	865.353428466576	67
5	673	873.735153478274	68
5	678	877.265866824896	69
5	685	885.665493920193	70
5	686	886.317546859221	71
5	691	889.8808911806	72
5	692	895.657472874348	73
5	695	898.463025487355	74
5	722	917.801467928077	75
5	729	930.484625660835	76
5	744	944.869865964853	77
5	745	945.98876324037	78
5	746	946.970276240309	79
5	760	958.033541209448	80
5	763	961.407163029674	81
5	766	966.634286217467	82
5	769	968.087242020965	83
5	784	987.540047314167	84
5	785	988.257878444376	85
5	801	999.646706896446	86
5	807	1002.148357400854	87
5	821	1020.467526622227	88
5	839	1042.243630717637	89
5	849	1053.510681213535	90
5	877	1072.536002681794	91
5	878	1075.690279683458	92
5	881	1080.380529748807	93
5	882	1082.51571028576	94
5	883	1083.682483562437	95
5	900	1100.864275918353	96
5	906	1107.132453955912	97
5	914	1117.174629024353	98
5	924	1130.633106759623	99
5	931	1135.605205984813	100
5	944	1145.178055353471	101
5	959	1152.913590303071	102
5	969	1165.232082318638	103
5	974	1172.062677626917	104
5	977	1174.063824362032	105
5	980	1176.657237943114	106
5	994	1201.221029841515	107
5	1003	1217.67092532282	108
5	1004	1218.430925556211	109
5	1009	1221.836925184905	110
5	1018	1229.678341579604	111
5	1019	1229.755259990014	112
5	1026	1234.561522980421	113
5	1030	1238.044838849135	114
5	1033	1245.816469410916	115
5	1044	1254.344288617959	116
5	1061	1281.748075249718	117
5	1062	1283.192731473044	118
5	1067	1287.981211600937	119
5	1085	1302.79049299658	120
5	1091	1316.869864258655	121
5	1098	1326.133278778113	122
5	1104	1336.190660974546	123
5	1110	1349.906164058633	124
5	1120	1361.168845172829	125
5	1143	1384.276276988904	126
5	1151	1396.896807467853	127
5	1158	1405.339569099385	128
5	1167	1415.403751446769	129
5	1177	1422.858395705503	130
5	1186	1428.412845758115	131
5	1200	1450.452033671439	132
5	1220	1465.5284645152	133
5	1224	1469.826123394863	134
5	1231	1475.220962332625	135
5	1234	1475.417913698887	136
5	1250	1490.849230361012	137
5	1261	1499.113023492525	138
5	1265	1500.006633320392	139
5	1286	1526.815160039725	140
5	1287	1529.630412088694	141
5	1292	1537.831776894468	142
5	1305	1557.034952298355	143
5	1312	1574.85326317185	144
5	1344	1601.977330642949	145
5	1351	1607.544186653222	146
5	1352	1607.570847047115	147
5	1353	1607.807244698457	148
5	1358	1615.687796221515	149
5	1371	1626.475781486219	150
5	1380	1649.377386904495	151
5	1385	1656.508327476393	152
5	1391	1665.928874019931	153
5	1414	1697.967007310831	154
5	1421	1704.701663731618	155
5	1422	1704.840818966033	156
5	1447	1741.641488667229	157
5	1448	1744.680116408711	158
5	1455	1752.520700971954	159
5	1463	1763.159534757878	160
5	1476	1772.897480186647	161
5	1498	1784.758668641418	162
5	1508	1793.079187815061	163
5	1513	1795.213566598418	164
5	1537	1820.486581849533	165
5	1548	1830.754813683623	166
5	1555	1837.400503211535	167
5	1571	1851.437395500495	168
5	1572	1852.289908618647	169
5	1592	1869.154219044188	170
5	1593	1872.303792661262	171
5	1599	1876.459145172083	172
5	1611	1887.597917859815	173
5	1616	1894.025950261587	174
5	1625	1897.604570887017	175
5	1628	1902.690370284096	176
5	1631	1905.735981185574	177
5	1652	1918.647451314642	178
5	1657	1925.554774995774	179
5	1658	1927.07259847667	180
5	1666	1931.102197453758	181
5	1671	1933.384212548465	182
5	1674	1935.60556379424	183
5	1686	1946.719469047704	184
5	1694	1950.413462511345	185
5	1720	1967.516282804715	186
5	1721	1967.531425078401	187
5	1730	1978.967346173432	188
5	1735	1983.126179007703	189
5	1742	1987.833627023034	190
5	1747	1990.687132602121	191
5	1769	2019.921680631541	192
5	1770	2020.004071778713	193
5	1779	2025.675111844116	194
5	1782	2026.869489245864	195
5	1793	2043.566389395425	196
5	1803	2052.138692184956	197
5	1808	2059.002359521049	198
5	1821	2067.435834609194	199
5	1832	2074.164817769977	200
5	1839	2081.885300155982	201
5	1844	2091.99833999377	202
5	1877	2121.500847507464	203
5	1880	2126.563039465149	204
5	1897	2143.369187744806	205
5	1898	2144.60652400395	206
5	1914	2153.271435286238	207
5	1919	2162.330213646483	208
5	1920	2163.791825137405	209
5	1937	2175.810260027072	210
5	1942	2178.719985063879	211
5	1977	2204.373269993249	212
5	1986	2213.165142975297	213
5	2001	2233.038732799187	214
5	2006	2241.27466256732	215
5	2010	2242.165572379281	216
5	2023	2250.786372266317	217
5	2024	2251.851852726852	218
5	2027	2255.391466517932	219
5	2030	2261.477377377634	220
5	2046	2280.387301146741	221
5	2051	2287.690559455115	222
5	2060	2295.090366773201	223
5	2070	2307.682920631133	224
5	2073	2309.555763780545	225
5	2084	2321.426164919108	226
5	2093	2326.939402234088	227
5	2096	2328.873563340761	228
5	2097	2329.790165622099	229
5	2098	2338.277045034203	230
5	2117	2358.920221585841	231
5	2126	2370.75726521338	232
5	2132	2377.567305401951	233
5	2141	2392.413364219756	234
5	2147	2396.578401336881	235
5	2154	2399.90407198209	236
5	2155	2400.345322189044	237
5	2156	2401.38252416317	238
5	2168	2409.276623201718	239
5	2171	2411.910715113081	240
5	2183	2422.259853475948	241
5	2190	2435.690161608527	242
5	2203	2448.746205401889	243
5	2222	2475.228027804504	244
5	2226	2476.894366788209	245
5	2232	2479.300623668982	246
5	2237	2481.858580083329	247
5	2246	2493.075051710659	248
5	2251	2497.948458471926	249
5	2252	2499.43839353103	250
6	263	356.394973417554	4.729830116604
6	277	370.016165879009	7.064585293107
6	278	372.067039803894	6.272951893394
6	283	374.089980866135	1.827770738178
6	292	382.027872377696	2.466862563787
6	306	413.354743559112	16.423175837393
6	307	415.525134547372	7.684629598063
6	315	431.685403470352	0.073101544689
6	318	436.091573469734	1.014877658417
6	323	447.638041665716	6.57781010987
6	327	462.360675634899	0.625096594691
6	336	484.260779123001	0.880281171762
6	348	506.093293089636	1.251120873252
6	358	518.791238538074	3.272858040033
6	370	524.652145355202	0.929003317733
6	379	531.377649626611	5.358528422726
6	380	532.057631871284	3.500011835786
6	397	550.803119315053	9.385409012464
6	421	570.079414054946	1.571061796223
6	431	577.319774481461	2.529009922312
6	435	581.940827981848	2.209696140863
6	458	604.308184076873	1.064568678376
6	463	604.902264054503	0.025466412508
6	467	605.601067539404	0.130313750965
6	473	619.256519672594	9.902238842977
6	490	635.149582827568	5.314485174625
6	491	641.05810173011	7.150215782168
6	500	658.194420446817	3.272554360944
6	507	682.506081014944	4.682297800824
6	526	701.346691513151	0.324548693937
6	527	705.531410740838	4.39945846651
6	544	730.309612115895	2.829075635841
6	551	738.709238120114	8.913826968067
6	561	743.477071666477	3.21313109392
6	579	769.024271757747	12.447698465785
6	580	769.621925017819	4.793111891095
6	583	773.546487196823	0.266720997667
6	591	797.526453608838	0.710581976526
6	594	808.490157099016	2.282006804807
6	597	819.116557468134	7.122358918308
6	634	849.531307244858	4.229940476747
6	657	864.238767685215	5.409941792002
6	660	865.353428466576	1.22475925867
6	673	873.735153478274	0.714870249816
6	678	877.265866824896	3.648199240779
6	685	885.665493920193	11.470571315339
6	686	886.317546859221	11.233500882485
6	691	889.8808911806	7.319499299101
6	692	895.657472874348	11.886493912835
6	695	898.463025487355	11.389963230263
6	722	917.801467928077	1.729228931605
6	729	930.484625660835	0.230965189845
6	744	944.869865964853	3.020129028134
6	745	945.98876324037	3.756582536151
6	746	946.970276240309	3.879355444595
6	760	958.033541209448	1.434680333036
6	763	961.407163029674	4.766188305586
6	766	966.634286217467	6.413058238653
6	769	968.087242020965	4.350377545431
6	784	987.540047314167	5.055072645002
6	785	988.257878444376	1.174748598895
6	801	999.646706896446	2.420524211959
6	807	1002.148357400854	0.555350897414
6	821	1020.467526622227	0.159964002566
6	839	1042.243630717637	1.750087482632
6	849	1053.510681213535	3.051757771883
6	877	1072.536002681794	7.736362756132
6	878	1075.690279683458	9.477189353702
6	881	1080.380529748807	10.997122937143
6	882	1082.51571028576	11.170235327618
6	883	1083.682483562437	11.640988552159
6	900	1100.864275918353	8.880258406931
6	906	1107.132453955912	0.013785397819
6	914	1117.174629024353	1.002486905318
6	924	1130.633106759623	3.496434958589
6	931	1135.605205984813	2.32727861169
6	944	1145.178055353471	3.100823835151
6	959	1152.913590303071	2.671234331411
6	969	1165.232082318638	1.53270729005
6	974	1172.062677626917	4.406510921398
6	977	1174.063824362032	0.012754690027
6	980	1176.657237943114	0.709232124286
6	994	1201.221029841515	2.568238496428
6	1003	1217.67092532282	6.803095776551
6	1004	1218.430925556211	4.418663953728
6	1009	1221.836925184905	6.07380818127
6	1018	1229.678341579604	5.818872077017
6	1019	1229.755259990014	2.505470466065
6	1026	1234.561522980421	5.882488788036
6	1030	1238.044838849135	1.448826323783
6	1033	1245.816469410916	3.960476140678
6	1044	1254.344288617959	4.268703288706
6	1061	1281.748075249718	6.466578753829
6	1062	1283.192731473044	4.814588293694
6	1067	1287.981211600937	2.491011456779
6	1085	1302.79049299658	1.408601503436
6	1091	1316.869864258655	3.195844488749
6	1098	1326.133278778113	2.008902925559
6	1104	1336.190660974546	0.185338673076
6	1110	1349.906164058633	1.4719702028
6	1120	1361.168845172829	4.903992751442
6	1143	1384.276276988904	1.172214255625
6	1151	1396.896807467853	4.616144207307
6	1158	1405.339569099385	0.286809195182
6	1167	1415.403751446769	9.401805914995
6	1177	1422.858395705503	2.91949771333
6	1186	1428.412845758115	1.927151798957
6	1200	1450.452033671439	6.5305121304
6	1220	1465.5284645152	3.8911735153
6	1224	1469.826123394863	2.96542967721
6	1231	1475.220962332625	3.418149324356
6	1234	1475.417913698887	0.188486201427
6	1250	1490.849230361012	3.311311335225
6	1261	1499.113023492525	2.868001730634
6	1265	1500.006633320392	0.163382731064
6	1286	1526.815160039725	4.843924008479
6	1287	1529.630412088694	3.677146141976
6	1292	1537.831776894468	6.385097094733
6	1305	1557.034952298355	1.218204589847
6	1312	1574.85326317185	9.295184884229
6	1344	1601.977330642949	8.285511704562
6	1351	1607.544186653222	13.491476610359
6	1352	1607.570847047115	6.794565111476
6	1353	1607.807244698457	1.606098436364
6	1358	1615.687796221515	8.410919531023
6	1371	1626.475781486219	0.181946026776
6	1380	1649.377386904495	0.727100947485
6	1385	1656.508327476393	0.487942381312
6	1391	1665.928874019931	2.331785175077
6	1414	1697.967007310831	5.373888656652
6	1421	1704.701663731618	2.067305611787
6	1422	1704.840818966033	0.795404547523
6	1447	1741.641488667229	3.187235992627
6	1448	1744.680116408711	3.960365027931
6	1455	1752.520700971954	4.359192904826
6	1463	1763.159534757878	5.299946489391
6	1476	1772.897480186647	5.528806640034
6	1498	1784.758668641418	0.709205791703
6	1508	1793.079187815061	0.962108568686
6	1513	1795.213566598418	0.798658687218
6	1537	1820.486581849533	1.959735294434
6	1548	1830.754813683623	1.292060694793
6	1555	1837.400503211535	3.734921670429
6	1571	1851.437395500495	8.129500815462
6	1572	1852.289908618647	8.845469338935
6	1592	1869.154219044188	6.383696725221
6	1593	1872.303792661262	4.693828019157
6	1599	1876.459145172083	0.125313437453
6	1611	1887.597917859815	5.036604648266
6	1616	1894.025950261587	9.36571742012
6	1625	1897.604570887017	7.483933551299
6	1628	1902.690370284096	7.954541260436
6	1631	1905.735981185574	10.953396413441
6	1652	1918.647451314642	2.276488561625
6	1657	1925.554774995774	8.93990745714
6	1658	1927.07259847667	6.33731621223
6	1666	1931.102197453758	1.939865183763
6	1671	1933.384212548465	0.50939468504
6	1674	1935.60556379424	0.642333965753
6	1686	1946.719469047704	1.868012288967
6	1694	1950.413462511345	2.072507062464
6	1720	1967.516282804715	14.247825791657
6	1721	1967.531425078401	9.664623705922
6	1730	1978.967346173432	18.759569787417
6	1735	1983.126179007703	18.941954199562
6	1742	1987.833627023034	6.33156210396
6	1747	1990.687132602121	1.337758176627
6	1769	2019.921680631541	7.059007550733
6	1770	2020.004071778713	6.486880508259
6	1779	2025.675111844116	0.051544350684
6	1782	2026.869489245864	1.023018416983
6	1793	2043.566389395425	9.74376500994
6	1803	2052.138692184956	3.71872255591
6	1808	2059.002359521049	9.377166579579
6	1821	2067.435834609194	2.883645014399
6	1832	2074.164817769977	0.496125612448
6	1839	2081.885300155982	4.781652126228
6	1844	2091.99833999377	3.412137418791
6	1877	2121.500847507464	0.821265748259
6	1880	2126.563039465149	1.961494745231
6	1897	2143.369187744806	8.778301735658
6	1898	2144.60652400395	7.514318905028
6	1914	2153.271435286238	2.315538072091
6	1919	2162.330213646483	9.851651166908
6	1920	2163.791825137405	4.350682554289
6	1937	2175.810260027072	1.784122915671
6	1942	2178.719985063879	3.842860746765
6	1977	2204.373269993249	1.010436351514
6	1986	2213.165142975297	2.979893336598
6	2001	2233.038732799187	5.412858821572
6	2006	2241.27466256732	3.142916526786
6	2010	2242.165572379281	0.032368701477
6	2023	2250.786372266317	2.751690897768
6	2024	2251.851852726852	3.226395607265
6	2027	2255.391466517932	6.127168904775
6	2030	2261.477377377634	5.715807846999
6	2046	2280.387301146741	11.308897045609
6	2051	2287.690559455115	6.282644398338
6	2060	2295.090366773201	1.016977612314
6	2070	2307.682920631133	8.428265523908
6	2073	2309.555763780545	6.284949033669
6	2084	2321.426164919108	10.020318218382
6	2093	2326.939402234088	14.867791373617
6	2096	2328.873563340761	8.716122552772
6	2097	2329.790165622099	5.738996962116
6	2098	2338.277045034203	11.240838761694
6	2117	2358.920221585841	1.318044429501
6	2126	2370.75726521338	1.903051994748
6	2132	2377.567305401951	2.23115592666
6	2141	2392.413364219756	0.872736522892
6	2147	2396.578401336881	2.040825581488
6	2154	2399.90407198209	5.311193618703
6	2155	2400.345322189044	2.281289604027
6	2156	2401.38252416317	2.071175340172
6	2168	2409.276623201718	5.268846999127
6	2171	2411.910715113081	2.022723748509
6	2183	2422.259853475948	2.00100840017
6	2190	2435.690161608527	4.659071301683
6	2203	2448.746205401889	7.367974398773
6	2222	2475.228027804504	1.399452138037
6	2226	2476.894366788209	0.855935319057
6	2232	2479.300623668982	0.547203183006
6	2237	2481.858580083329	1.807767577061
6	2246	2493.075051710659	0.318934298622
6	2251	2497.948458471926	5.042491886334
6	2252	2499.43839353103	3.70147083679
7	263	356.394973417554	2.588486822708
7	278	372.067039803894	6.385266748441
7	283	374.089980866135	7.812387757718
7	284	374.163436042875	7.193958924915
7	285	374.368153659836	6.992524410516
7	286	377.830158231489	5.567948103532
7	287	378.519398061527	5.981160973144
7	292	382.027872377696	3.184446321766
7	293	382.666335326291	3.105325512382
7	296	395.108866655548	0
7	307	415.525134547372	16.722682974727
7	308	415.895349948596	10.763558099056
7	311	422.412569317898	0
7	323	447.638041665716	5.088404960458
7	329	474.486377834592	0
7	332	475.421989887153	0
7	338	486.01203755361	0
7	341	490.964280940228	0
7	344	502.42111818884	0
7	350	512.879312668735	0
7	353	515.118364337555	1.818256059264
7	358	518.791238538074	3.272858040033
7	359	519.636891850667	2.258969693887
7	370	524.652145355202	3.383304205828
7	380	532.057631871284	10.605895768751
7	381	532.931581390173	11.287049633369
7	386	535.545764235102	12.5137940555
7	387	538.035053735395	14.311911697926
7	388	539.829216051931	13.810094848046
7	397	550.803119315053	22.027984254205
7	398	551.55173563303	21.035438492863
7	401	551.832916352728	16.737342937863
7	408	556.335849528437	21.192428231371
7	409	557.149213769189	15.7315034666
7	414	562.322214121136	19.308253692267
7	415	565.380453157962	18.26458281657
7	416	566.231954696119	15.603565008288
7	417	566.839578527654	15.236216838281
7	418	568.432804663742	15.339372582184
7	421	570.079414054946	15.493873904276
7	422	570.289951715391	14.59605721901
7	423	570.567213328398	9.662247638365
7	424	571.643710475675	9.460534704638
7	425	572.740666329809	4.232314071086
7	431	577.319774481461	0.034761731719
7	437	583.527318550585	0
7	440	589.146323134492	3.285611033006
7	443	592.903040930942	3.29865017846
7	446	593.817746098794	0.549147062305
7	449	595.261667438781	1.316051993187
7	452	601.337831599509	0
7	455	602.006823113094	0
7	458	604.308184076873	1.064568678376
7	463	604.902264054503	0.295701268416
7	464	605.423831156501	0.547033514506
7	467	605.601067539404	0.130313750965
7	470	609.09463051817	2.832024692734
7	473	619.256519672594	9.902238842977
7	480	624.944967398037	3.173260282876
7	481	628.429799833182	4.951647405068
7	482	629.017932507579	4.89201127454
7	491	641.05810173011	6.619837257711
7	494	644.162410354917	0
7	500	658.194420446817	2.433270029639
7	503	673.959931785084	0
7	509	687.434015002645	0
7	512	689.789018320775	0
7	515	690.318468653399	0
7	518	696.078677742603	0
7	527	705.531410740838	4.226950269847
7	530	711.360537148213	0
7	533	717.265105717427	0
7	536	723.783192104159	0
7	551	738.709238120114	8.439173245177
7	552	739.022111747449	6.202178543406
7	555	739.522511109643	6.469452280311
7	556	740.118348994483	4.434203170651
7	561	743.477071666477	3.988595926326
7	562	747.373138970954	7.109198398397
7	565	750.727083824349	7.396427967433
7	566	750.775011844298	1.518856747431
7	569	753.07887186548	0.366107838789
7	572	755.466739437295	0
7	580	769.621925017819	13.045351725857
7	583	773.546487196823	12.606743850793
7	584	773.89373902435	0.613972825194
7	587	783.213131964751	1.523947812048
7	599	819.528493444256	0
7	602	821.547518118468	0
7	605	822.77301123129	0
7	608	830.817407002213	0
7	611	835.789956379376	0
7	616	837.034806438485	1.021999157533
7	617	839.069915621669	2.185080202878
7	620	840.057378945307	0.349095958416
7	625	840.863990728289	0.055012109007
7	626	843.359430050445	2.505667861062
7	629	844.921104578313	0.8357432556
7	634	849.531307244858	4.229940476747
7	635	850.583006167979	4.17199246435
7	638	851.095828983729	0
7	641	852.416503183553	0
[...]
9	297	395.126404127389	0.017537471841
9	308	415.895349948596	17.092898375951
9	309	416.332614022647	11.200822173107
9	312	424.480296780403	2.067727462505
9	324	448.904844282874	6.355207577616
9	330	474.713927422567	0.227549587975
9	333	476.033825745161	0.611835858008
9	339	486.883613306033	0.871575752423
9	342	492.336284906571	1.372003966343
9	345	503.395673837673	0.974555648833
9	353	515.118364337555	2.23905166882
9	359	519.636891850667	4.118511352626
9	381	532.931581390173	11.47984528764
9	386	535.545764235102	13.901232478298
9	387	538.035053735395	15.003083555793
9	388	539.829216051931	16.106074014462
9	398	551.55173563303	22.776600572182
9	401	551.832916352728	21.316619212561
9	408	556.335849528437	21.240276113572
9	409	557.149213769189	22.005792472123
9	414	562.322214121136	20.904503818547
9	415	565.380453157962	22.366492729093
9	416	566.231954696119	19.116084354727
9	417	566.839578527654	16.211188839823
9	418	568.432804663742	16.829442974369
9	422	570.289951715391	15.704411564721
9	423	570.567213328398	14.873318832017
9	424	571.643710475675	10.738744785642
9	425	572.740666329809	10.557490558772
9	426	573.422708998887	4.914356740164
9	432	577.922934822865	0.637922073123
9	440	589.146323134492	5.619004583907
9	443	592.903040930942	7.042328829456
9	446	593.817746098794	4.213355346312
9	449	595.261667438781	1.993068402292
9	450	596.402730161048	2.457114715454
9	453	601.38797259993	0.050141000421
9	464	605.423831156501	0.817268370414
9	470	609.09463051817	3.623876729731
9	480	624.944967398037	15.59068656842
9	481	628.429799833182	6.658092718021
9	482	629.017932507579	5.539780079465
9	483	629.588844199339	5.4629229663
9	492	643.531807179902	9.093542707503
9	495	647.304306934971	3.141896580054
9	501	658.296957364463	2.535806947285
9	504	675.391498740892	1.431566955808
9	510	687.723474575934	0.289459573289
9	513	690.311063986903	0.522045666128
9	516	691.730957563379	1.41248890998
9	519	700.729956256805	4.651278514202
9	528	707.310085732354	6.005625261363
9	531	712.724221156349	1.363684008136
9	534	718.056824315266	0.791718597839
9	537	725.33807957091	1.554887466751
9	552	739.022111747449	8.752046872512
9	555	739.522511109643	6.7025779056
9	556	740.118348994483	7.065290165151
9	562	747.373138970954	7.884663230803
9	565	750.727083824349	10.463143251792
9	566	750.775011844298	7.444355987382
9	569	753.07887186548	3.822716768613
9	570	753.10004048578	0.387276459089
9	584	773.89373902435	12.95399567832
9	587	783.213131964751	9.933365765595
9	588	783.982856573524	2.293672420821
9	600	821.542366893302	2.013873449046
9	603	822.755624236636	1.208106118168
9	606	822.842229763004	0.069218531714
9	609	834.861597362792	4.044190360579
9	616	837.034806438485	1.244850059109
9	617	839.069915621669	3.057108340717
9	620	840.057378945307	3.172543526516
9	625	840.863990728289	1.155707741398
9	626	843.359430050445	2.550451431163
9	629	844.921104578313	4.06734238893
9	635	850.583006167979	5.281639399868
9	636	850.821302675544	4.410288971915
9	639	852.195318115206	1.099489131477
9	646	855.807839977812	3.391336794259
9	649	857.048234880819	4.248658895053
9	652	857.547547854584	2.532185404156
9	661	866.800535135732	9.330412529057
9	664	867.539995096453	8.71116920324
9	665	868.099580293621	3.661251737838
9	666	869.593046569255	2.745994136545
9	698	901.465141731451	28.444858502993
9	701	902.114079202464	21.206449502729
9	702	902.614528626642	15.716651073211
9	707	907.31012519721	10.850657478509
9	708	908.134512321199	6.995790143745
9	709	909.225439655174	7.387106564007
9	710	909.693090717352	2.972823292411
9	717	915.645518956273	8.340889787684
9	723	920.889434872492	10.082219219568
9	724	921.189758985159	7.615244176847
9	725	921.977541157401	5.905302160929
9	726	923.291352566595	6.572838275011
9	732	938.841008140225	0.727794069439
9	735	939.879622472592	0.023986357748
9	747	950.587369017748	8.684025018481
9	750	951.358479893366	0.123156805103
9	755	955.155571516455	1.391025909955
9	772	970.349892839757	13.751031963345
9	773	970.679633172616	3.117753583485
9	774	971.716801102549	2.467871392391
9	777	981.332106299206	0.20334013513
9	786	988.367114193134	3.717436221844
9	802	1000.247941782766	7.225484680519
9	803	1000.574016620817	5.730397806175
9	804	1001.234223576389	5.92421882256
9	810	1004.437611162366	7.211428477879
9	813	1010.177680557275	12.639418554267
9	816	1016.004578067017	14.411571563577
9	822	1024.94917806127	19.980108653419
9	823	1025.730075476267	12.945184061406
9	824	1026.182093971087	5.906831797224
9	827	1031.09024997439	10.782687354729
9	828	1031.414633600064	4.308680161209
9	831	1032.791424598536	0.211522977716
9	834	1038.720979519028	2.608230252423
9	842	1043.770726402074	3.277183167069
9	845	1044.490918610847	0.945728963029
9	846	1047.226864031157	2.781230870933
9	858	1059.153870865227	2.162728829657
9	859	1060.990258353572	3.581926096976
9	860	1062.37102542837	4.675391157294
9	884	1086.352829666132	21.55318974047
9	885	1088.477338947329	21.058549329133
9	901	1104.31923874827	32.495554144336
9	902	1105.968331188678	27.060216118067
9	903	1106.304654954471	17.223376425466
9	909	1109.531476651063	17.547459139641
9	910	1113.460787083141	20.081309251014
9	911	1114.21011080413	18.641444931135
9	915	1120.123163143185	22.060785360925
9	916	1123.904984734237	16.786316176144
9	917	1126.987446567924	19.451771638361
9	925	1131.271519761407	4.134847960373
9	926	1131.752228153774	4.189594408792
9	934	1138.914280610022	5.636353236899
9	935	1139.594602984482	4.684427540541
9	945	1145.577659760458	3.500428242138
9	946	1146.216535869932	3.244931662474
9	951	1148.683185749859	4.399665557678
9	952	1149.254555803479	4.890398266549
9	953	1149.256796067071	1.479490991931
9	954	1149.285956691064	1.47834272224
9	960	1155.096742239287	2.403846874748
9	963	1157.606046279745	1.878673393736
9	966	1163.007294517365	3.042798859945
9	981	1177.061709706086	1.113703887258
9	984	1182.161715236312	1.590467009159
9	987	1187.235182521896	0.599888836174
9	995	1202.544609633107	2.20958999854
9	996	1206.577389754977	5.865782004968
9	1027	1235.673621772489	13.849119742482
9	1034	1246.166107112746	15.720000150167
9	1035	1246.878914102078	14.679002494244
9	1036	1246.995298981728	14.443837536768
9	1037	1247.397441450179	10.801428924827
9	1045	1254.658903122661	6.488917398423
9	1046	1254.678271265057	4.602685935804
9	1047	1255.777429088751	4.166488673953
9	1050	1264.323235570242	4.271527989344
9	1063	1284.201523900062	8.920027404173
9	1064	1284.890239328625	9.275374130464
9	1068	1288.757985699009	3.267785554851
9	1073	1290.895588244249	0.638445351505
9	1074	1293.308201133378	2.831849195439
9	1077	1294.88631649305	0.327982566605
9	1082	1300.407237576866	5.212267713869
9	1086	1307.813795803945	6.431904310801
9	1092	1316.870316002396	3.19629623249
9	1095	1319.04325141452	0.556950788815
9	1101	1329.998749377256	0.994485839968
9	1107	1342.802787194888	1.729571886159
9	1113	1353.928390460081	0.890206610277
9	1121	1366.567421450414	9.357789711862
9	1126	1371.637597866714	13.234183746043
9	1127	1372.031062819128	3.495961052695
9	1128	1372.087487462169	2.313698393595
9	1131	1373.32263397655	0.620394853918
9	1136	1375.732366677854	0.535734041464
9	1137	1378.645863893398	2.970428718334
9	1140	1381.167445009916	0.165772924757
9	1146	1390.396854045659	0.144106915953
9	1152	1398.565253853272	2.156680751952
9	1155	1401.980720971548	1.179695407007
9	1170	1416.102550296008	7.968980883128
9	1171	1416.993503304225	8.457131830592
9	1174	1419.534989055705	9.373003591829
9	1178	1423.066456309282	4.708778438092
9	1181	1425.053484889657	5.114586897484
9	1187	1429.56451991461	3.078825955452
9	1188	1429.618891596257	3.004796731835
9	1191	1434.654872296349	2.432264453565
9	1201	1451.30031794013	7.378796399091
9	1202	1452.455952206737	8.257887358121
9	1203	1455.591281335758	5.770343512992
9	1208	1460.45728814917	4.726939129615
9	1213	1461.407783096467	0.960669857552
9	1221	1466.096701651258	4.980829520999
9	1239	1478.048765896095	11.188072178442
9	1242	1478.497849196587	7.91828703585
9	1243	1481.57513850687	9.772325498601
9	1244	1482.955097770279	10.380554407574
9	1247	1483.558463672483	8.329036175023
9	1251	1491.574580072261	14.369557574939
9	1252	1492.069956120706	13.749481634765
9	1253	1494.606191112297	11.208764865604
9	1254	1496.096300541112	8.558381515325
9	1262	1499.395156975144	2.457389388491
9	1270	1501.530564927123	1.687314337795
9	1271	1503.175775586448	2.391573824433
9	1272	1503.309493543768	1.812335426744
9	1277	1508.656815829474	2.214497867496
9	1278	1508.977187036677	1.326407815278
9	1281	1512.237082849398	0.185892751352
9	1297	1544.861186601811	13.124654234563
9	1300	1545.491429564258	5.05102751635
9	1301	1546.766938540282	5.559508048833
9	1302	1551.275082155081	5.93281487427
9	1313	1577.49556707396	11.033695620422
9	1320	1582.952816031858	9.913994581277
9	1321	1583.426027025072	4.804142756934
9	1322	1584.884805684776	5.413595832594
9	1325	1586.943045017802	5.987738461064
9	1328	1588.071952397748	3.099883210761
9	1333	1592.923541851564	5.00876103102
9	1359	1615.758074195883	25.544956760111
9	1360	1616.758898448964	23.067079510577
9	1361	1618.521006691594	24.372637387686
9	1362	1618.911471913901	21.439139252779
9	1363	1621.039764416408	17.62687124955
9	1364	1621.742432868493	11.381291926726
9	1367	1622.657213240162	9.735954747545
9	1368	1623.406988088438	0.876495703946
9	1374	1628.550343260642	1.82980993592
9	1377	1629.981252020042	0.785862789995
9	1386	1659.356933482402	3.336548387321
9	1392	1667.654740842815	3.480973576496
9	1397	1677.769602546048	9.929120921918
9	1404	1690.547474809883	17.960043329289
9	1405	1691.172939930736	8.352068307149
9	1408	1692.049277455009	5.42857948702
9	1409	1692.592168858182	5.192066301474
9	1415	1698.008325989806	5.415207335627
9	1416	1698.858628533607	1.152790884374
9	1425	1706.107596806655	0.209887492001
9	1428	1708.251274109489	1.274130700008
9	1431	1710.58956693621	0.993910013063
9	1434	1717.171873253496	3.891256906824
9	1437	1720.163804078176	1.856092595947
9	1440	1728.648153484853	0.805556909716
9	1456	1752.92468794254	7.76931869751
9	1457	1753.82588845149	5.664380384362
9	1458	1754.133610183396	3.156541614941
9	1464	1763.55313570852	1.85393381558
9	1467	1765.755158475189	0.87524864642
9	1477	1773.243001202994	3.732673281587
9	1478	1774.839567594374	5.176880689119
9	1479	1776.417952998393	3.841449729073
9	1486	1780.182338692978	3.63485235596
9	1493	1783.823484467478	4.683127277555
9	1501	1787.681061097426	5.460483053166
9	1514	1796.820972151853	12.771509302138
9	1515	1799.584944545479	15.450949523798
9	1524	1801.835465122729	16.219479257842
9	1525	1801.897279276018	12.013170659143
9	1528	1808.607587808616	16.490508562241
9	1529	1809.476076202495	16.429321516184
9	1530	1810.918735428311	16.503827517111
9	1533	1816.058458143162	21.254505500029
9	1534	1818.10139469241	17.941714415835
9	1538	1823.057087009778	22.349441393529
9	1539	1823.880078216089	22.623974011492
9	1544	1825.703899330336	23.747145408832
9	1545	1827.822818536031	15.667825836406
9	1549	1830.835599186335	6.838699948163
9	1550	1832.573419578964	8.215095707721
9	1560	1842.701383078121	9.035801537015
9	1581	1857.422525881371	17.414251468786
9	1582	1857.62236706384	16.387810970739
9	1583	1859.321052879442	16.013158194409
9	1596	1874.266446992785	26.913063630341
9	1600	1878.048119507971	25.089278421202
9	1601	1882.184248303137	27.864750985288
9	1602	1882.493833019031	27.890849310956
9	1638	1908.124936986943	46.369643504651
9	1639	1908.222722071235	45.452199752268
9	1644	1910.649375496478	45.51461638429
9	1645	1911.540443434593	38.906375896871
9	1646	1914.053120424833	37.719288690203
9	1647	1915.239173158431	32.677859946882
9	1659	1927.741585013267	42.877461272291
9	1662	1928.417502533341	35.361071382545
9	1663	1928.90361422016	33.668020651807
9	1667	1931.358848210444	31.406756388677
9	1668	1931.884371168331	27.092276989413
9	1675	1936.564970792349	30.254704743246
9	1676	1937.128165850376	27.063270182333
9	1677	1937.934037557211	27.501314724536
9	1680	1943.476130068031	27.105167315014
9	1683	1944.31385979569	24.482569278558
9	1687	1947.72053748987	18.558205219875
9	1695	1950.501250390203	15.538020561716
9	1696	1951.020614823665	8.36576852841
9	1703	1953.011392489042	9.248300542304
9	1748	1991.73312070838	42.983518452504
9	1749	1992.202263967166	42.201531229844
9	1752	1992.531558985016	40.889307981601
9	1755	1998.431725144525	46.632539624856
9	1758	2007.301000975661	55.245987085318
9	1759	2007.492655118349	54.426726973952
9	1760	2007.715989741487	54.447532728429
9	1761	2008.931364546711	52.507208676063
9	1762	2009.566306916443	52.091743201252
9	1763	2011.107950541116	46.174116714567
9	1764	2011.414956174436	42.822570143512
9	1783	2027.890544097847	48.091028933306
9	1784	2030.526046087627	46.982686836295
9	1787	2033.465811385505	48.349194375082
9	1788	2033.632416784002	48.456043582483
9	1794	2045.837794519895	56.488420094401
9	1809	2059.491712717878	64.317221734696
9	1810	2061.135677783263	57.750938607931
9	1813	2062.785763923047	49.923090842239
9	1814	2063.69579062432	42.660559135657
9	1822	2067.872587099042	43.448097490603
9	1829	2072.620899277716	46.997331784284
9	1847	2092.31379229381	52.051022635797
9	1848	2093.261665677752	44.841696048706
9	1849	2093.80824172578	43.688321355572
9	1850	2094.235805639376	42.946506288537
9	1859	2099.217193854885	47.029634335384
9	1860	2099.670678425933	46.74269468743
9	1861	2100.221533046299	37.716855186394
9	1862	2101.121964285334	36.569774690539
9	1863	2101.152595919005	36.58253944073
9	1864	2105.376966865297	39.770252123456
9	1865	2106.839387589731	38.026062236624
9	1866	2108.431128260693	39.37342632055
9	1867	2110.503194577171	39.780708447147
9	1872	2114.759260466178	41.090568308649
9	1873	2116.952376694095	41.581304124925
9	1874	2119.050614067505	41.946966037751
9	1881	2127.98583555146	36.331780408493
9	1884	2128.447392933378	36.186572243903
9	1885	2129.695897770078	34.741324758593
9	1886	2131.774638033437	36.773647866119
9	1901	2145.073011959373	46.91667374033
9	1908	2148.05136512672	37.541394801704
9	1909	2148.184280948148	35.548242142928
9	1921	2166.159593272286	41.558048552368
9	1922	2166.617095592756	38.232804432962
9	1923	2167.770280933834	33.179394924686
9	1924	2168.108531751823	32.581092207053
9	1925	2169.43573635198	31.48145160482
9	1930	2172.575209369968	31.091428369549
9	1943	2178.785737238451	32.688182433412
9	1944	2181.291998932659	33.654174532895
9	1945	2181.961600358418	34.053355335617
9	1948	2184.092131972387	33.13623475824
9	1949	2185.824376192222	31.982575859354
9	1952	2186.356285175642	16.249480224597
9	1953	2186.372624043624	14.564663580369
9	1954	2186.738241159318	12.712104047917
9	1955	2190.005009668269	14.418607170838
9	1960	2192.383554712768	16.353697638155
9	1961	2192.622194558968	16.090012085535
9	1962	2192.844842025418	10.586574238454
9	1963	2193.048228706209	7.022015700867
9	1972	2199.690206780381	9.658594266146
9	1978	2204.753618222198	10.717973479297
9	1981	2206.85800557408	12.638789761902
9	1987	2213.66665880283	18.161331636059
9	1988	2215.204268934965	14.902340179504
9	1989	2215.698509834331	12.335676192596
9	1990	2216.306535686352	11.046292964681
9	1993	2219.066625470565	8.881375831866
9	1994	2224.099009269793	11.120466018808
9	2002	2234.677397452809	7.051523475194
9	2003	2236.781766462168	5.092869046468
9	2007	2241.708587287725	3.576841247191
9	2031	2264.238596089552	16.203914721003
9	2032	2264.279857152158	13.594487086373
9	2033	2264.564681973834	11.891636214906
9	2034	2265.770590922185	10.00902139155
9	2039	2268.580242849714	1.334228584322
9	2054	2289.167344389278	19.425709897503
9	2057	2293.379544558134	15.848158431346
9	2061	2295.636561588369	13.865982469125
9	2062	2296.359002969939	7.238803132025
9	2063	2298.882568716382	7.271621575196
9	2101	2339.14564560691	37.300397522108
9	2102	2339.352242344972	30.003581222872
9	2103	2347.370785972195	35.964939271469
9	2104	2347.773791810735	35.288030326285
9	2105	2348.287416256663	26.873200088099
9	2106	2349.422979558196	26.699416446892
9	2107	2351.045060147961	25.600150166154
9	2108	2352.966199738066	26.038505448903
9	2109	2352.969195385754	13.929552410257
9	2112	2354.994042393939	1.351208862529
9	2118	2360.383991467353	2.781814311013
9	2121	2361.930365586488	0.912205475321
9	2127	2374.111761643646	3.859593535606
9	2133	2378.44386499021	3.107715514919
9	2136	2382.143384252107	0.520516375317
9	2142	2394.31946646781	2.778838770946
9	2157	2401.954128611118	3.350466798579
9	2174	2413.976216248816	6.118434988848
9	2175	2415.647587382823	7.501660230114
9	2178	2419.130822100073	10.802721620761
9	2184	2422.914851624538	9.555364299926
9	2185	2426.163707120383	8.556085441794
9	2186	2426.610487483074	6.351642407296
9	2187	2426.69514001017	5.806838418828
9	2193	2439.693878532661	1.468972710718
9	2196	2441.141011823364	0.601218188621
9	2206	2449.02991594003	7.188741455525
9	2207	2449.741810941637	7.722183602003
9	2208	2450.013889024628	1.19960815285
9	2211	2454.366605738087	2.884085544346
9	2216	2467.345480190609	6.295332599699
9	2217	2469.320603441278	7.42707653474
9	2223	2475.555948346219	1.564886837131
9	2229	2478.653498318036	0.090670763679
9	2238	2482.822839713536	1.29417451711
9	2241	2484.924143752765	1.055863777635
10	280	372.262210127957	10
10	291	379.561009813909	11
10	355	515.518380498041	12
10	369	523.723142037469	13
10	372	526.019121203885	14
10	390	541.417710302589	15
10	420	568.508352258723	16
10	457	603.243615398497	17
10	462	604.876797641995	18
10	466	605.470753788439	19
10	472	609.354280829617	20
10	558	740.263940572557	21
10	574	756.576573291962	22
10	582	773.279766199156	23
10	631	845.301366768111	24
10	654	858.828825893213	25
10	670	873.020283228458	26
10	719	916.072238996472	27
10	757	956.598860876412	28
10	798	997.226182684487	29
10	806	1001.59300650344	30
10	820	1020.307562619661	31
10	838	1040.493543235005	32
10	862	1064.799639925662	33
10	891	1091.984017511422	34
10	905	1107.118668558093	35
10	913	1116.172142119035	36
10	919	1127.136671801034	37
10	928	1133.277927373123	38
10	937	1142.07723151832	39
10	976	1174.051069672005	40
10	979	1175.948005818828	41
10	1011	1223.859469502587	42
10	1029	1236.596012525352	43
10	1032	1241.855993270238	44
10	1041	1250.075585329253	45
10	1054	1275.281496495889	46
10	1066	1285.490200144158	47
10	1084	1301.381891493144	48
10	1090	1313.674019769906	49
10	1176	1419.938897992173	50
10	1183	1426.485693959158	51
10	1195	1443.921521541039	52
10	1215	1461.6372909999	53
10	1223	1466.860693717653	54
10	1228	1471.802813008269	55
10	1233	1475.22942749746	56
10	1249	1487.537919025787	57
10	1264	1499.843250589328	58
10	1335	1593.691818938387	59
10	1384	1656.020385095081	60
10	1411	1692.593118654179	61
10	1452	1748.161508067128	62
10	1495	1784.049462849715	63
10	1505	1792.117079246375	64
10	1510	1794.4149079112	65
10	1536	1818.526846555099	66
10	1547	1829.46275298883	67
10	1552	1833.665581541106	68
10	1562	1843.307894685033	69
10	1587	1862.770522318967	70
10	1598	1876.33383173463	71
10	1604	1882.561313211549	72
10	1649	1916.370962753017	73
10	1665	1929.162332269995	74
10	1670	1932.874817863425	75
10	1673	1934.963229828487	76
10	1685	1944.851456758737	77
10	1689	1948.340955448881	78
10	1707	1953.268457013058	79
10	1746	1989.349374425494	80
10	1766	2012.862673080808	81
10	1778	2025.623567493432	82
10	1781	2025.846470828881	83
10	1790	2033.822624385485	84
10	1796	2048.419969629046	85
10	1816	2064.552189594795	86
10	1831	2073.668692157529	87
10	1836	2077.103648029754	88
10	1841	2088.586202574979	89
10	1876	2120.679581759205	90
10	1879	2124.601544719918	91
10	1888	2134.590886009148	92
10	1911	2150.955897214147	93
10	1932	2174.026137111401	94
10	1976	2203.362833641735	95
10	1983	2210.185249638699	96
10	1996	2227.625873977615	97
10	2005	2238.131746040534	98
10	2016	2248.034681368549	99
10	2029	2255.761569530635	100
10	2041	2269.078404101132	101
10	2048	2281.407915056777	102
10	2059	2294.073389160887	103
10	2065	2299.254655107225	104
10	2075	2311.405846700726	105
10	2116	2357.60217715634	106
10	2131	2375.336149475291	107
10	2140	2391.540627696864	108
10	2170	2409.887991364572	109
10	2180	2420.258845075778	110
11	2253	2500	0.2
12	2253	2500	0.1

