version 2
run Monotonicity_test_recover_rate-420-20221219-18:28:38-16586
attr configname Monotonicity_test_recover_rate
attr datetime 20221219-18:28:38
attr experiment Monotonicity_test_recover_rate
attr inifile omnetpp.ini
attr iterationvars $0=100
attr iterationvarsf 100-
attr measurement $0=100
attr network Network
attr processid 16586
attr repetition 20
attr replication #20
attr resultdir results
attr runnumber 420
attr seedset 20
param *.minion.arrival_mean 2
param *.minion.service_mean 1.5
param *.boss.arrival_mean 2.5
param *.boss.service_mean 0.5
param *.player.recover_rate_x 100
param **.minion.arrival_distribution 0
param **.minion.service_distribution 0
param **.boss.arrival_distribution 0
param **.boss.service_distribution 0

vector 0 Network.player minion_jobs_number_stat:vector ETV
attr source signal_minion_jobs_number
vector 1 Network.player minion_jobs_queue_number_stat:vector ETV
attr source signal_minion_jobs_queue_number
vector 2 Network.player minion_recovered_stat:vector ETV
attr source signal_minion_recovered
vector 3 Network.player minion_defeated_stat:vector ETV
attr source signal_minion_defeated
vector 4 Network.player boss_jobs_number_stat:vector ETV
attr source signal_boss_jobs_number
vector 5 Network.player boss_jobs_queue_number_stat:vector ETV
attr source signal_boss_jobs_queue_number
vector 6 Network.player boss_defeated_stat:vector ETV
attr source signal_boss_defeated
vector 7 Network.player boss_waiting_time_stat:vector ETV
attr source signal_boss_waiting_time
vector 8 Network.player boss_response_time_stat:vector ETV
attr source signal_boss_response_time
vector 9 Network.player minion_waiting_time_stat:vector ETV
attr source signal_minion_waiting_time
vector 10 Network.player minion_response_time_stat:vector ETV
attr source signal_minion_response_time
vector 11 Network.player minion_throughput:vector ETV
attr source signal_minion_throughput
vector 12 Network.player boss_throughput:vector ETV
attr source signal_boss_throughput
0	0	0	0
0	8	1.475936466977	1
0	13	3.730925202752	1
0	19	6.134917151617	2
0	25	7.642590788304	1
0	28	8.271653330047	2
0	30	8.608748920118	3
0	33	10.853423156612	3
0	39	14.051777269678	3
0	47	18.82527828976	4
0	55	23.10859048974	5
0	58	25.419909667733	5
0	61	28.121855238539	5
0	63	28.597489964681	6
0	74	34.771138062164	1
0	76	35.534438184687	2
0	80	37.581608524637	1
0	83	38.203644759162	1
0	89	41.746143950221	1
0	91	42.002961748316	2
0	93	42.729746083643	3
0	104	54.254833598278	1
0	107	57.131943526799	1
0	109	57.299662815999	2
0	111	58.156642994317	3
0	115	58.826469190154	4
0	127	61.974182770929	2
0	130	63.506694930179	2
0	139	65.587909603713	2
0	147	69.326946563363	2
0	150	69.877880209654	3
0	152	70.324477668643	4
0	162	74.283910722513	3
0	167	77.627000700964	4
0	173	78.895845455093	4
0	175	79.829261305116	5
0	177	82.797764508767	6
0	185	86.115454005235	4
0	190	90.089106104419	2
0	192	90.113241670634	3
0	196	95.081742684895	2
0	205	97.287401507354	2
0	214	99.711199423089	2
0	216	100.397657196425	3
0	218	101.940672862048	4
0	220	102.72001329184	5
0	222	102.831426718047	6
0	227	103.912999775513	7
0	232	106.643181716138	8
0	235	107.975787179574	8
0	241	109.787763829296	8
0	265	115.505923606742	8
0	267	115.91159488419	9
0	273	118.546234240501	9
0	275	118.710117728145	10
0	286	126.137874734036	8
0	288	126.61421443621	9
0	296	128.343662097308	10
0	301	129.633329320514	11
0	308	131.080050985599	12
0	310	131.268220661301	13
0	316	132.44600878056	14
0	318	133.157667495303	15
0	321	137.173458215421	15
0	323	137.239223899945	16
0	327	139.182009970249	15
0	337	141.494218739722	16
0	342	143.001386461686	17
0	351	144.51634367258	18
0	353	144.654008471758	19
0	361	146.95027499485	17
0	363	148.242294534819	18
0	369	150.784120253166	18
0	371	151.31892698475	19
0	377	152.924687071644	20
0	382	154.43212090337	20
0	386	154.814398138944	19
0	388	155.030548834878	20
0	397	157.061520144166	20
0	399	157.388584264474	21
0	406	159.419955664983	20
0	415	165.352371063195	17
0	418	165.658126119813	17
0	429	172.980181886361	16
0	434	173.859263406751	17
0	436	174.019054385884	18
0	447	175.460712991757	18
0	452	178.904855642887	16
0	456	179.406316794119	17
0	461	179.598142668546	18
0	469	182.05655466561	19
0	473	184.56584297415	20
0	477	185.703598163492	21
0	480	187.532238949279	21
0	483	187.784298569022	21
0	485	188.161420225844	22
0	487	188.177695072658	23
0	489	190.687853466191	24
0	499	193.698194517676	23
0	501	194.300745490017	24
0	504	196.83730573852	24
0	507	201.12258918232	24
0	517	204.970819969699	20
0	521	206.084177022413	19
0	523	206.191579444632	20
0	539	211.043835662652	19
0	542	211.876596570852	19
0	544	211.935572434091	20
0	548	214.571666192232	19
0	559	217.249368388605	20
0	562	217.910311146634	20
0	567	220.23029310268	21
0	573	221.399384626193	21
0	591	227.470469086195	22
0	594	228.287352022287	23
0	597	230.23588514924	24
0	600	230.435103408201	24
0	608	237.434544524416	22
0	610	237.884994139134	23
0	614	238.506725476394	22
0	618	240.660448293186	21
0	622	244.162448847539	20
0	630	246.869587909383	20
0	651	253.817758377252	19
0	654	254.542941132361	20
0	661	256.666923981658	20
0	666	257.706176477161	21
0	668	259.418906018825	22
0	678	262.397852245217	21
0	688	267.350962307868	17
0	690	267.946483211128	18
0	703	272.894973869564	19
0	715	277.860467693215	17
0	717	277.871263860048	18
0	719	278.913272899502	19
0	721	280.703735047665	20
0	723	280.938961320112	21
0	725	280.970592211443	22
0	739	286.145435952426	20
0	741	286.618282700499	21
0	743	287.404069541022	22
0	745	289.980825085914	23
0	753	293.191003872741	21
0	756	293.501274775165	21
0	758	293.8430281191	22
0	763	296.233528864321	23
0	765	298.058319469011	24
0	771	299.053299227771	23
0	790	307.453824252635	20
0	795	309.236937777112	21
0	798	310.226694132705	21
0	810	314.890374174762	18
0	813	315.332255831492	18
0	816	316.517676356446	18
0	830	323.090124222901	17
0	850	327.697217707022	14
0	856	329.647278053593	14
0	860	331.268830258769	13
0	866	334.581026154516	13
0	873	338.367650336779	12
0	883	345.871347170073	11
0	886	347.126416340977	11
0	888	350.114345954886	12
0	890	350.549975900492	13
0	892	350.899433721017	14
0	894	351.626207472882	15
0	899	352.65166488692	13
0	910	354.466025592611	14
0	913	358.943918537656	14
0	917	363.079907595411	13
0	919	363.839653139161	14
0	937	370.630341190005	13
0	942	371.523281820906	14
0	944	372.036871763645	15
0	949	373.286284132562	16
0	953	376.336307644944	16
0	956	377.162125460526	16
0	958	377.828342516418	17
0	960	380.737608762467	18
0	977	383.539151478835	17
0	981	384.597643506745	18
0	986	385.515804769862	19
0	994	387.793791547397	20
0	996	387.821953400228	21
0	1002	389.379853469553	21
0	1013	392.835717535049	22
0	1026	398.272370122322	21
0	1030	398.553114442226	22
0	1032	399.357645999001	23
0	1034	400.409511582907	24
0	1049	406.661720353876	22
0	1051	407.012319754987	23
0	1069	412.330104523347	20
0	1075	415.176337667485	20
0	1077	416.250186839365	21
0	1083	418.44378306365	18
0	1085	418.70932640241	19
0	1090	422.046510022977	17
0	1096	425.005008488502	17
0	1102	427.15610103543	17
0	1106	428.686437830785	16
0	1111	429.473777409455	16
0	1114	431.739581444764	17
0	1119	433.958719302376	18
0	1124	435.593295271204	19
0	1127	438.447400659297	19
0	1129	438.505305757073	20
0	1131	438.778438670068	21
0	1133	439.772653832323	22
0	1135	439.960346291652	23
0	1144	441.564616237292	23
0	1146	442.05210292711	24
0	1148	442.294747539625	25
0	1153	445.853961631764	26
0	1155	448.292659143167	27
0	1157	448.690083148288	28
0	1166	450.282108647456	25
0	1168	450.460773653561	26
0	1174	452.242558016468	25
0	1177	452.639199508373	26
0	1181	452.967747744397	27
0	1187	453.817818717943	28
0	1189	454.068145512012	29
0	1193	455.093644392517	30
0	1199	457.55764385612	31
0	1202	458.776938943584	31
0	1211	461.424836668097	31
0	1217	463.586857785406	31
0	1219	463.815963480455	32
0	1226	468.011244511344	31
0	1229	468.483180281947	31
0	1231	468.510191598005	32
0	1233	469.671652032542	33
0	1239	472.467678623866	30
0	1241	472.784659822929	31
0	1249	475.330568253973	29
0	1260	480.430188403063	29
0	1263	480.930488568374	30
0	1269	486.874396507163	30
0	1272	489.680159310052	30
0	1274	490.247108431444	31
0	1279	490.765623027922	32
0	1281	490.921414792045	33
0	1283	491.206401964836	34
0	1285	492.011585021463	35
0	1287	492.314779303607	36
0	1291	493.771748060312	37
0	1293	494.015217246361	38
0	1312	501.716130277493	32
0	1314	502.71696435715	33
0	1324	507.530555426944	32
0	1330	509.655288919402	32
0	1345	516.39118557003	31
0	1348	516.839715213557	32
0	1355	517.77550777746	33
0	1362	518.512794333994	33
0	1366	519.276254767417	34
0	1373	519.952565213864	35
0	1378	521.000457371777	35
0	1383	521.954551087191	36
0	1387	523.178811713222	35
0	1402	528.81205726796	35
0	1406	529.286981619205	36
0	1410	529.549291941676	36
0	1413	530.638016786312	36
0	1433	538.482842707936	33
0	1444	547.178928317245	29
0	1448	548.733524682854	30
0	1451	549.068661864319	31
0	1453	549.231929400092	32
0	1461	553.294015458879	30
0	1465	554.605854952902	31
0	1470	557.194232830286	30
0	1474	558.884840786187	31
0	1490	564.51258706422	28
0	1496	566.415122661243	28
0	1499	567.770904527871	28
0	1503	569.691712665721	27
0	1510	571.548096124039	26
0	1516	572.668804184654	26
0	1525	574.396268174088	26
0	1529	576.265489326002	25
0	1534	578.040583821386	26
0	1542	579.871234182523	27
0	1551	583.12090100008	27
0	1560	587.045790295191	23
0	1575	593.226080109546	24
0	1582	596.781948355796	20
0	1584	597.26732637985	21
0	1592	599.945547172708	21
0	1602	602.203984983999	22
0	1604	602.399563291095	23
0	1611	603.60727685176	24
0	1613	605.12569644671	25
0	1615	605.466920005807	26
0	1621	606.81354707622	26
0	1623	607.416575171157	27
0	1628	609.840731474337	28
0	1630	610.859101144189	29
0	1632	611.369137611757	30
0	1640	617.562776675681	28
0	1647	618.769337947802	27
0	1652	620.718035131038	28
0	1655	621.829625872356	28
0	1657	622.217239726229	29
0	1661	629.643972522323	28
0	1663	630.149727782335	29
0	1667	631.009769256168	30
0	1675	635.976618438773	29
0	1683	638.968184492199	27
0	1685	640.516370573522	28
0	1687	641.069912800549	29
0	1689	641.54644091009	30
0	1694	643.981146721649	28
0	1697	644.115825591014	28
0	1700	644.465907277349	28
0	1707	647.520704008698	27
0	1719	653.530855961908	27
0	1726	658.109235726838	26
0	1728	660.693820731376	27
0	1731	661.50700729387	27
0	1733	661.873867687979	28
0	1735	664.20031260378	29
0	1741	665.948732693313	29
0	1743	666.078736495538	30
0	1746	666.46805090101	30
0	1750	667.386504659289	29
0	1753	667.996734277791	29
0	1755	668.5108796826	30
0	1757	668.763026276693	31
0	1760	668.975042923258	31
0	1778	677.795183770169	28
0	1787	683.917215583691	25
0	1790	685.89072111622	25
0	1792	686.138788016448	26
0	1794	686.376848784852	27
0	1796	688.011429931945	28
0	1798	690.121331324903	29
0	1801	691.462680991986	29
0	1811	692.608564019734	30
0	1813	693.32804760578	31
0	1817	693.753702052878	31
0	1820	694.873967676181	31
0	1826	695.219388481503	32
0	1830	696.7234403404	33
0	1832	696.725091826252	34
0	1834	696.895628812802	35
0	1836	696.975270312094	36
0	1842	698.316820350825	36
0	1845	699.672511719965	36
0	1850	701.295311429783	34
0	1852	701.645325300869	35
0	1854	701.956755258061	36
0	1857	703.649773176772	36
0	1864	705.105758950785	35
0	1867	705.342402646528	35
0	1869	705.68035356448	36
0	1875	707.920870110858	35
0	1884	714.293120842187	36
0	1886	714.690882029252	37
0	1890	715.959531331558	38
0	1892	717.235989040317	39
0	1896	718.379887934275	39
0	1902	724.331553120244	36
0	1904	724.398563706206	37
0	1909	726.244532535225	35
0	1914	728.765439938125	36
0	1917	730.016198608076	36
0	1919	730.287496088404	37
0	1924	732.092759500267	35
0	1926	732.704122036351	36
0	1928	732.993188548401	37
0	1932	734.438531734723	36
0	1940	736.51587915317	37
0	1950	742.004182598707	33
0	1952	743.054230033811	34
0	1958	744.426417626485	35
0	1963	746.074634584557	35
0	1965	746.331636263245	36
0	1967	747.759774489744	37
0	1973	749.141252221576	37
0	1977	750.208679767284	36
0	1979	750.643701365853	37
0	1987	754.313539426121	35
0	1994	755.139920154413	36
0	2007	761.218189604885	30
0	2011	761.330887145833	31
0	2021	765.010872846737	30
0	2024	765.889722226499	31
0	2032	769.492366584186	29
0	2045	774.312154319452	28
0	2052	777.187916092429	29
0	2057	781.433533200657	28
0	2068	785.774610792791	28
0	2075	787.605065865188	28
0	2077	787.632693773257	29
0	2080	791.812542128832	29
0	2082	792.825630074558	30
0	2084	793.106118645999	31
0	2090	795.983979322456	30
0	2096	797.31547067304	31
0	2102	798.947913671804	31
0	2111	800.734366954587	31
0	2120	806.029631059075	29
0	2124	807.847741533025	30
0	2126	808.260311205554	31
0	2135	813.282516964542	31
0	2142	814.80326033177	30
0	2152	818.380597665156	29
0	2155	820.204965312734	29
0	2159	820.677722622633	30
0	2169	823.250885573292	31
0	2172	823.636215506689	32
0	2174	823.680603697767	33
0	2176	824.140443518389	34
0	2181	824.5663821598	35
0	2196	831.965951881763	33
0	2200	833.975527892492	32
0	2202	834.073187536907	33
0	2207	837.418737714379	34
0	2210	837.747149868744	34
0	2214	838.959011875208	35
0	2221	841.166020368849	36
0	2225	841.685744191678	37
0	2227	841.799011240053	38
0	2233	843.124210790441	38
0	2235	843.46544411402	39
0	2237	843.715834367818	40
0	2239	845.103795560344	41
0	2249	848.061481364927	40
0	2252	848.917083284492	40
0	2259	853.693651716453	39
0	2261	853.911773855917	40
0	2264	857.385069520553	40
0	2267	857.900159935581	40
0	2270	859.230698072923	40
0	2283	865.144344761167	39
0	2289	866.484172554759	39
0	2297	868.062799063376	37
0	2300	868.461943861207	37
0	2308	871.159455576234	38
0	2310	871.273454975753	39
0	2315	872.034504904911	40
0	2317	872.04771715127	41
0	2323	875.058228708188	40
0	2328	878.126773031486	41
0	2332	880.002037860351	41
0	2334	883.70005389078	42
0	2341	889.062400308099	40
0	2344	889.189540069077	41
0	2346	889.612380146626	42
0	2355	898.607801413106	36
0	2363	901.554409570433	34
0	2368	902.361903903002	35
0	2380	907.119633944209	35
0	2382	907.667524238388	36
0	2391	910.654370556012	36
0	2396	914.462906312602	37
0	2403	919.744930545071	38
0	2406	920.095310223823	39
0	2416	925.901466869047	36
0	2428	931.507376905208	35
0	2430	932.216983490642	36
0	2432	933.360039476501	37
0	2434	934.260872373583	38
0	2436	934.569648124422	39
0	2438	934.952087838802	40
0	2441	935.74034302397	40
0	2454	942.690812453095	36
0	2460	943.45587894108	36
0	2462	944.586795422435	37
0	2464	945.542918757345	38
0	2478	951.221910696391	36
0	2481	957.478605080943	36
0	2487	958.774822653768	36
0	2489	959.302037136426	37
0	2491	959.552667700896	38
0	2495	962.020802260956	37
0	2501	964.793223245996	37
0	2506	967.111036862389	38
0	2510	967.152372507332	39
0	2512	967.723845333867	40
0	2519	968.400315165639	40
0	2528	971.673625276461	40
0	2530	971.821424855389	41
0	2536	974.736374890298	41
0	2540	976.527026050755	40
0	2543	978.849575332548	40
0	2545	978.904229455845	41
0	2548	980.519529589722	41
0	2550	980.9335921944	42
0	2553	983.033967220205	42
0	2571	986.349449136726	39
0	2579	988.432299146613	40
0	2583	992.082964898419	39
0	2585	992.736902315575	40
0	2589	993.572343230744	41
0	2594	997.059792217434	40
0	2597	998.524488732491	40
0	2607	1002.948315165793	39
0	2619	1007.309897750726	38
0	2623	1007.846666047912	39
0	2627	1008.538137460777	40
0	2633	1010.316844427901	40
0	2635	1010.32339610515	41
0	2637	1012.661253765336	42
0	2647	1015.847830315247	40
0	2658	1020.002065119623	39
0	2660	1020.529638096667	40
0	2671	1030.630371999522	38
0	2673	1032.131439791749	39
0	2675	1032.535908282347	40
0	2680	1033.550338911019	41
0	2685	1038.133311890602	39
0	2699	1047.34353785101	36
0	2705	1048.452961328502	37
0	2710	1048.851188658538	37
0	2712	1048.965983194782	38
0	2722	1050.296145731878	39
0	2728	1052.889735558881	38
0	2733	1059.556932580499	39
0	2739	1060.473779027897	40
0	2745	1061.366321453799	41
0	2756	1065.666245940433	40
0	2758	1066.322105935879	41
0	2768	1071.917559265743	40
0	2772	1074.285323199861	39
0	2786	1080.756375846712	37
0	2788	1080.803294716724	38
0	2796	1083.920925437386	36
0	2800	1085.632065948788	35
0	2802	1085.881024951777	36
0	2805	1086.526930345249	36
0	2810	1088.677667304748	34
0	2813	1091.090605399845	34
0	2815	1091.572913161553	35
0	2817	1092.470615700581	36
0	2824	1095.209263596196	35
0	2832	1098.909158835205	33
0	2834	1100.130459329658	34
0	2837	1101.199825187616	34
0	2839	1104.758150167743	35
0	2841	1105.003012560043	36
0	2843	1107.394887791978	37
0	2849	1111.081306110806	37
0	2860	1116.157834466965	35
0	2863	1116.872288774698	35
0	2870	1119.514895203193	34
0	2876	1122.145516414426	34
0	2878	1123.23354262624	35
0	2880	1125.169911513354	36
0	2882	1126.779374563809	37
0	2887	1129.209711027372	37
0	2893	1131.038960465685	35
0	2895	1132.557374560692	36
0	2899	1134.187450884406	35
0	2910	1139.438765556535	33
0	2918	1143.290022315633	34
0	2922	1144.501115725244	33
0	2924	1145.921560863155	34
0	2926	1145.938670358564	35
0	2932	1147.238809729512	35
0	2936	1147.4729911281	36
0	2946	1153.077454481509	33
0	2949	1154.077344331839	33
0	2951	1155.040799589928	34
0	2953	1156.148315326523	35
0	2959	1157.433474976802	35
0	2961	1158.522220316812	36
0	2966	1160.106772972285	37
0	2970	1161.375673712814	36
0	2981	1165.765672842169	34
0	2984	1166.205534274449	34
0	2988	1167.338062236198	35
0	2991	1168.099143660134	36
0	2993	1168.168793330247	37
0	2995	1169.928995576489	38
0	3000	1171.720794279516	39
0	3006	1175.452686342609	36
0	3015	1179.13856785774	36
0	3017	1180.480870072571	37
0	3030	1183.491750637775	38
0	3033	1185.497684128544	39
0	3036	1185.662505075319	39
0	3043	1187.418872684063	38
0	3049	1187.584710319416	39
0	3063	1190.460858182918	40
0	3075	1195.173555103475	41
0	3079	1195.598413961956	42
0	3082	1196.454902700783	43
0	3094	1200.219289344093	44
0	3102	1203.159888181434	42
0	3107	1203.847782390463	43
0	3109	1203.956179320445	44
0	3111	1204.297618020684	45
0	3114	1205.172092061761	45
0	3122	1207.694016105792	43
0	3125	1208.270653916928	43
0	3130	1209.470503997461	44
0	3134	1210.23294700089	45
0	3138	1210.870568714365	45
0	3142	1212.298264149774	44
0	3147	1215.056353089888	42
0	3155	1218.453653235772	40
0	3165	1225.935892611531	36
0	3179	1230.571110173611	34
0	3182	1231.081346303788	34
0	3193	1232.216726197292	35
0	3196	1232.986373252132	36
0	3201	1234.754571793928	36
0	3203	1236.248749942962	37
0	3206	1239.389788719175	37
0	3208	1239.393768325231	38
0	3214	1241.136745284186	38
0	3226	1245.328894206735	38
0	3244	1248.453099454901	35
0	3246	1248.988363540226	36
0	3248	1250.012186345676	37
0	3250	1250.189861127574	38
0	3256	1252.294023222415	38
0	3258	1253.419419661115	39
0	3263	1253.67331081511	39
0	3267	1254.689790634648	39
0	3271	1256.781952421222	38
0	3277	1258.164602373172	38
0	3280	1259.674102022718	38
0	3289	1263.258212038806	38
0	3296	1264.993817940483	37
0	3299	1265.449121825671	37
0	3306	1268.994388525007	36
0	3313	1271.727814064513	35
0	3322	1274.342152863859	34
0	3324	1274.420193770631	35
0	3326	1274.507154623989	36
0	3329	1276.472330868062	37
0	3334	1279.905542477467	38
0	3336	1280.686736789309	39
0	3342	1282.808909638685	39
0	3345	1283.667331481048	39
0	3353	1286.551905585352	39
0	3355	1286.84532385459	40
0	3366	1292.112416648227	39
0	3371	1295.340746536063	40
0	3378	1295.932392471978	39
0	3380	1296.50933879653	40
0	3382	1300.094137369838	41
0	3384	1300.873465038817	42
0	3390	1303.373808195003	39
0	3394	1305.049874274615	40
0	3399	1306.058907701242	41
0	3411	1312.707129259891	39
0	3417	1316.864786792839	36
0	3426	1320.418031087507	36
0	3435	1323.07437156518	36
0	3439	1326.133084642322	37
0	3453	1330.578944109867	36
0	3459	1331.185021759995	36
0	3464	1331.598965109403	37
0	3472	1333.422500216951	32
0	3474	1335.22191826534	33
0	3482	1339.831264666098	31
0	3484	1340.390780367065	32
0	3486	1341.679701185789	33
0	3488	1343.005454075102	34
0	3494	1343.229336299774	35
0	3515	1348.327509648797	34
0	3517	1348.938839348954	35
0	3520	1349.052188524187	35
0	3522	1350.002734630147	36
0	3526	1352.95905834314	35
0	3531	1353.8179415929	35
0	3538	1355.850720216032	35
0	3550	1360.458270180457	35
0	3554	1361.273249114121	36
0	3559	1364.234504236699	35
0	3568	1370.116443213195	35
0	3576	1371.52899920864	36
0	3578	1371.534491534158	37
0	3583	1373.091865700613	38
0	3586	1373.949873663053	38
0	3591	1375.75751660706	39
0	3594	1377.356876558237	39
0	3596	1377.791445167085	40
0	3600	1381.812428971341	39
0	3604	1382.958669308845	40
0	3609	1384.575130303071	41
0	3612	1384.818701649873	42
0	3616	1388.276420587099	41
0	3626	1390.847566638563	40
0	3631	1391.268510076198	40
0	3633	1391.47441137179	41
0	3646	1396.778769500508	41
0	3648	1397.494648084326	42
0	3650	1397.498375044314	43
0	3652	1398.71285731209	44
0	3654	1399.50317630287	45
0	3656	1399.698299846551	46
0	3659	1401.580812866988	46
0	3665	1404.379353436096	46
0	3668	1405.977026042735	46
0	3670	1406.490368438304	47
0	3674	1410.158192056012	46
0	3682	1415.103614706921	46
0	3684	1415.394341462439	47
0	3689	1417.395319172212	46
0	3698	1418.627844861155	45
0	3714	1422.827936859465	44
0	3720	1423.80481580921	45
0	3725	1425.775063048871	43
0	3727	1426.400522028149	44
0	3729	1427.959261222197	45
0	3733	1428.237513554132	46
0	3736	1428.997291424554	47
0	3739	1430.56154586651	47
0	3746	1431.791370692697	46
0	3749	1432.364501245154	46
0	3751	1433.056673726956	47
0	3765	1439.542781823638	43
0	3767	1440.526275851162	44
0	3785	1447.684034945384	43
0	3787	1448.165859224861	44
0	3790	1451.26987451218	44
0	3795	1453.365383292978	45
0	3798	1456.158585034071	45
0	3800	1456.45046382558	46
0	3811	1462.31827008628	41
0	3813	1462.419214992148	42
0	3820	1463.808413882489	41
0	3827	1466.756704257698	40
0	3830	1468.706455363855	40
0	3833	1469.697425097923	40
0	3836	1470.671031782863	40
0	3838	1470.94118509425	41
0	3840	1472.612993541756	42
0	3843	1473.450740866124	42
0	3850	1474.882357526786	43
0	3853	1475.046987140616	44
0	3855	1476.905700738086	45
0	3857	1477.103543674936	46
0	3862	1477.892938308454	46
0	3866	1479.646657805214	46
0	3878	1482.344930090856	46
0	3880	1482.747930683245	47
0	3882	1482.782155225829	48
0	3884	1483.184417548009	49
0	3891	1486.142723628993	48
0	3893	1487.243609262194	49
0	3896	1488.24134876254	49
0	3898	1488.74411275498	50
0	3901	1489.25046001659	50
0	3906	1489.752839118277	51
0	3908	1489.864647995392	52
0	3910	1492.244365633252	53
0	3912	1492.486586168886	54
0	3914	1493.284194910397	55
0	3916	1493.881353441835	56
0	3924	1497.896253454439	54
0	3926	1498.306185036506	55
0	3928	1498.801766946637	56
0	3937	1501.6120119012	56
0	3941	1503.607050115098	55
0	3948	1505.836577177949	54
0	3957	1508.2640641251	54
0	3962	1509.975833956702	52
0	3968	1512.085829940584	52
0	3971	1512.44569567584	52
0	3975	1512.669501794383	53
0	3978	1513.363618735028	54
0	3980	1514.634588698105	55
0	3987	1519.194291564833	54
0	3989	1520.049873884956	55
0	3991	1520.679329981912	56
0	3993	1520.727000715399	57
0	3999	1523.116264179861	57
0	4003	1524.70932966556	58
0	4006	1525.895438246071	59
0	4008	1526.042833864235	60
0	4023	1529.585376424713	60
0	4025	1532.403945873472	61
0	4029	1533.636604377575	62
0	4035	1534.791388458157	63
0	4037	1535.060951269148	64
0	4044	1538.084997180854	63
0	4052	1541.297562792853	61
0	4067	1543.118222827375	62
0	4071	1543.547308075887	63
0	4073	1543.830622909133	64
0	4077	1545.156509146558	63
0	4083	1550.183738721464	60
0	4098	1556.216264465597	60
0	4100	1556.670333149843	61
0	4102	1557.032045700026	62
0	4108	1558.588708311076	62
0	4113	1559.250600008565	63
0	4118	1563.937956633301	61
0	4120	1564.024943000036	62
0	4124	1566.597673361496	61
0	4140	1574.452353699369	59
0	4142	1574.510212128625	60
0	4148	1575.223391961702	61
0	4150	1575.30458860804	62
0	4153	1576.419412575943	62
0	4165	1578.260526343212	63
0	4167	1578.998468266163	64
0	4171	1580.312420095478	65
0	4173	1581.99811461902	66
0	4186	1585.197260848078	65
0	4188	1585.666684709244	66
0	4200	1589.110246940739	66
0	4202	1589.896679619321	67
0	4205	1590.978037467298	67
0	4210	1591.294257639751	67
0	4214	1591.560842900328	68
0	4232	1597.544036906989	67
0	4258	1609.607896978516	62
0	4261	1609.713641164872	62
0	4280	1615.882547268257	60
0	4283	1616.382188647343	61
0	4285	1618.059883883054	62
0	4287	1618.211737360709	63
0	4294	1623.335221006784	62
0	4303	1627.139313587098	62
0	4305	1627.194034199063	63
0	4311	1629.949954566335	63
0	4316	1632.501976780952	64
0	4322	1632.955952760892	64
0	4326	1634.970101561144	65
0	4332	1637.364510800185	66
0	4334	1638.509702846288	67
0	4336	1639.014950977312	68
0	4341	1640.413984064595	68
0	4350	1643.217069216035	69
0	4365	1648.278416497043	66
0	4371	1648.491071862436	67
0	4375	1649.881786083118	68
0	4381	1653.358453247724	68
0	4383	1653.937802512837	69
0	4385	1654.650013730847	70
0	4388	1656.397912283482	70
0	4390	1656.939713279971	71
0	4392	1657.444686841537	72
0	4396	1659.608776113447	71
0	4398	1660.21629329052	72
0	4411	1664.326924313352	72
0	4419	1666.871100331792	73
0	4421	1667.094451459834	74
0	4425	1667.188260374575	75
0	4427	1667.448779190795	76
0	4431	1668.083185355501	77
0	4434	1668.175665752626	78
0	4447	1672.178537195357	77
0	4449	1673.099392113966	78
0	4451	1674.85687199392	79
0	4467	1679.933543613541	80
0	4472	1681.727822027512	81
0	4483	1686.911010887301	80
0	4485	1687.239397786158	81
0	4504	1694.6865707735	80
0	4510	1697.617145393358	80
0	4515	1698.900232486959	81
0	4524	1703.018271489841	78
0	4537	1707.789770581291	77
0	4545	1711.927112744821	72
0	4547	1712.69042950407	73
0	4567	1717.937471335721	70
0	4596	1726.122842590563	71
0	4607	1729.109933589582	70
0	4610	1731.418547997972	70
0	4614	1732.997032932728	69
0	4619	1735.470156814804	70
0	4622	1739.36501747703	70
0	4626	1741.385221542883	69
0	4630	1743.571859873223	68
0	4642	1746.482703478967	68
0	4650	1748.729296264803	69
0	4653	1749.156475051153	69
0	4655	1749.567269955612	70
0	4660	1750.344577085544	71
0	4663	1750.582495766292	71
0	4668	1754.60369889294	69
0	4672	1758.077172157404	68
0	4677	1759.031618463979	69
0	4684	1761.837893523546	68
0	4686	1762.085833791782	69
0	4688	1763.926623044167	70
0	4690	1764.747437299975	71
0	4694	1766.658127375794	70
0	4697	1768.606623275514	70
0	4699	1772.395479352622	71
0	4704	1774.332963244348	71
0	4714	1777.231552371419	71
0	4719	1778.826190138181	72
0	4722	1780.534744736915	72
0	4724	1781.168002845825	73
0	4734	1785.721381312958	71
0	4737	1786.376975220256	72
0	4739	1787.184736675019	73
0	4743	1788.92159615462	72
0	4745	1789.14433901361	73
0	4763	1800.857324766478	69
0	4765	1801.775689598277	70
0	4769	1802.363097695196	70
0	4778	1804.641915450888	69
0	4782	1805.298012484273	69
0	4791	1806.666678346741	68
0	4793	1807.183608088958	69
0	4796	1807.461690048178	70
0	4798	1808.329944721451	71
0	4820	1817.047046641728	70
0	4826	1818.041818439602	70
0	4833	1821.070593468562	71
0	4835	1821.767263445641	72
0	4845	1825.166922171412	72
0	4851	1826.839361308503	72
0	4853	1827.038313847445	73
0	4859	1830.647605972788	73
0	4864	1832.980949433625	71
0	4866	1835.180096560522	72
0	4870	1839.019835507447	71
0	4875	1841.997483216748	71
0	4879	1843.303066691574	71
0	4892	1847.58094772392	70
0	4895	1849.877312814886	70
0	4900	1852.685816311952	70
0	4914	1855.361330481861	69
0	4928	1863.440672524591	64
0	4938	1865.949524461633	63
0	4942	1866.690147382722	64
0	4945	1866.95612910475	65
0	4950	1868.288357836215	66
0	4952	1871.308828676687	67
0	4967	1876.048704212131	67
0	4969	1876.883602664767	68
0	4972	1877.966402190146	68
0	4976	1879.465773087009	69
0	4979	1880.530335692416	70
0	4989	1885.626816186748	66
0	4991	1886.365405998186	67
0	5004	1891.761741635233	63
0	5006	1892.222080707508	64
0	5012	1896.593066130908	64
0	5017	1897.189427953506	65
0	5019	1898.245129467002	66
0	5026	1902.058753370833	64
0	5039	1905.704466330056	64
0	5054	1910.193313562957	64
0	5057	1911.99144765468	64
0	5062	1913.169745724595	64
0	5064	1913.938477903036	65
0	5073	1917.548001054411	66
0	5076	1920.42805366936	66
0	5082	1921.538264310811	66
0	5102	1931.883659257907	61
0	5108	1932.129816539447	62
0	5112	1933.240089453454	63
0	5122	1935.821087602153	62
0	5126	1936.801539209352	63
0	5129	1937.877395983014	64
0	5140	1940.844399031135	65
0	5144	1941.78034219676	64
0	5152	1944.056495785594	65
0	5154	1944.200492928881	66
0	5159	1946.023563838666	66
0	5167	1947.53883171644	67
0	5172	1948.592269627586	66
0	5185	1957.222315854522	65
0	5202	1960.765416208088	66
0	5210	1962.377265210755	67
0	5215	1965.085721296682	68
0	5217	1966.230240031188	69
0	5219	1966.904006675467	70
0	5225	1969.569863779232	69
0	5228	1970.368450177818	70
0	5230	1970.776534547479	71
0	5236	1972.412727005375	71
0	5238	1972.424163042593	72
0	5240	1972.509583965115	73
0	5251	1976.077967167774	71
0	5253	1976.302999531291	72
0	5268	1981.426385383304	72
0	5276	1983.94576634012	72
0	5282	1984.991695885974	73
0	5295	1988.308128063356	72
0	5311	1995.709110604959	67
0	5313	1996.644743421628	68
0	5315	1996.83992348177	69
0	5319	1999.385878219508	69
1	0	0	0
1	8	1.475936466977	0
1	9	2.13466891295	0
1	13	3.730925202752	0
1	19	6.134917151617	1
1	20	6.23917886778	1
1	21	6.864382539482	0
1	25	7.642590788304	0
1	28	8.271653330047	1
1	30	8.608748920118	2
1	31	10.423834549554	2
1	33	10.853423156612	2
1	37	13.922675540828	2
1	39	14.051777269678	2
1	47	18.82527828976	3
1	55	23.10859048974	4
1	56	24.611921033252	4
1	58	25.419909667733	4
1	59	27.337211428266	4
1	61	28.121855238539	4
1	63	28.597489964681	5
1	64	30.170494292773	5
1	68	31.296787089817	4
1	69	31.388783504787	3
1	70	31.426316523876	2
1	71	31.854264341299	1
1	72	34.164903140188	0
1	74	34.771138062164	0
1	76	35.534438184687	1
1	77	35.758126218532	1
1	78	36.825457891518	0
1	80	37.581608524637	0
1	81	37.755195670235	0
1	83	38.203644759162	0
1	84	38.344359680564	0
1	89	41.746143950221	0
1	91	42.002961748316	1
1	93	42.729746083643	2
1	94	45.268424620668	2
1	95	47.57515357287	1
1	96	47.94539593469	0
1	104	54.254833598278	0
1	105	55.018852401988	0
1	107	57.131943526799	0
1	109	57.299662815999	1
1	111	58.156642994317	2
1	115	58.826469190154	3
1	117	59.888836479757	3
1	118	59.97754258136	2
1	125	61.140264032708	1
1	127	61.974182770929	1
1	128	63.32865311114	1
1	130	63.506694930179	1
1	131	63.674319787259	1
1	139	65.587909603713	1
1	140	65.59210230557	1
1	147	69.326946563363	1
1	150	69.877880209654	2
1	152	70.324477668643	3
1	156	72.08868236165	3
1	157	73.324229482238	2
1	162	74.283910722513	2
1	167	77.627000700964	3
1	168	77.840999944153	3
1	173	78.895845455093	3
1	175	79.829261305116	4
1	177	82.797764508767	5
1	181	84.726645387387	5
1	182	85.165385203138	4
1	183	85.316329152636	3
1	185	86.115454005235	3
1	186	86.210167106335	3
1	187	88.482435887312	2
1	188	89.973033099343	1
1	190	90.089106104419	1
1	192	90.113241670634	2
1	193	90.912400991316	2
1	194	93.459835741159	1
1	196	95.081742684895	1
1	197	95.355902156603	1
1	205	97.287401507354	1
1	206	97.542271159726	1
1	214	99.711199423089	1
1	216	100.397657196425	2
1	218	101.940672862048	3
1	220	102.72001329184	4
1	222	102.831426718047	5
1	227	103.912999775513	6
1	232	106.643181716138	7
1	233	107.79778571083	7
1	235	107.975787179574	7
1	236	108.824784762832	7
1	241	109.787763829296	7
1	245	111.309166710586	7
1	265	115.505923606742	7
1	267	115.91159488419	8
1	268	117.060687056504	8
1	273	118.546234240501	8
1	275	118.710117728145	9
1	276	119.072497579923	9
1	277	119.882585733616	8
1	278	121.572469496084	7
1	286	126.137874734036	7
1	288	126.61421443621	8
1	296	128.343662097308	9
1	301	129.633329320514	10
1	308	131.080050985599	11
1	310	131.268220661301	12
1	316	132.44600878056	13
1	318	133.157667495303	14
1	319	134.121878718914	14
1	321	137.173458215421	14
1	323	137.239223899945	15
1	324	137.95359305118	15
1	325	138.003794004733	14
1	327	139.182009970249	14
1	337	141.494218739722	15
1	342	143.001386461686	16
1	351	144.51634367258	17
1	353	144.654008471758	18
1	354	145.934737507017	18
1	355	146.17777034102	17
1	359	146.517394380662	16
1	361	146.95027499485	16
1	363	148.242294534819	17
1	367	150.560957382573	17
1	369	150.784120253166	17
1	371	151.31892698475	18
1	377	152.924687071644	19
1	380	153.794628871572	19
1	382	154.43212090337	19
1	383	154.601179791629	19
1	384	154.763513806267	18
1	386	154.814398138944	18
1	388	155.030548834878	19
1	392	156.461112056383	19
1	397	157.061520144166	19
1	399	157.388584264474	20
1	403	158.46208435242	20
1	404	158.640114297427	19
1	406	159.419955664983	19
1	407	161.15692148747	19
1	411	162.400854536429	18
1	412	164.294442563378	17
1	413	164.312224709661	16
1	415	165.352371063195	16
1	416	165.611651607912	16
1	418	165.658126119813	16
1	422	170.843352559121	16
1	423	171.288391084296	15
1	429	172.980181886361	15
1	434	173.859263406751	16
1	436	174.019054385884	17
1	445	175.280740434777	17
1	447	175.460712991757	17
1	448	175.882204905583	17
1	449	176.258972427277	16
1	450	176.385926365952	15
1	452	178.904855642887	15
1	456	179.406316794119	16
1	461	179.598142668546	17
1	469	182.05655466561	18
1	473	184.56584297415	19
1	477	185.703598163492	20
1	478	185.729074535757	20
1	480	187.532238949279	20
1	481	187.611602615279	20
1	483	187.784298569022	20
1	485	188.161420225844	21
1	487	188.177695072658	22
1	489	190.687853466191	23
1	493	191.815703123583	23
1	497	193.462554804971	22
1	499	193.698194517676	22
1	501	194.300745490017	23
1	502	196.658408602983	23
1	504	196.83730573852	23
1	505	197.160116307723	23
1	507	201.12258918232	23
1	508	201.498077698505	23
1	509	202.591895698611	22
1	510	203.184234482505	21
1	511	203.5486194016	20
1	512	203.606767095977	19
1	517	204.970819969699	19
1	518	205.726824069013	19
1	519	206.05302435353	18
1	521	206.084177022413	18
1	523	206.191579444632	19
1	536	209.008128000306	19
1	537	209.102469392487	18
1	539	211.043835662652	18
1	540	211.803411576968	18
1	542	211.876596570852	18
1	544	211.935572434091	19
1	545	213.428162056534	19
1	546	213.914364623554	18
1	548	214.571666192232	18
1	559	217.249368388605	19
1	560	217.351670612533	19
1	562	217.910311146634	19
1	567	220.23029310268	20
1	568	220.74934777195	20
1	573	221.399384626193	20
1	591	227.470469086195	21
1	594	228.287352022287	22
1	597	230.23588514924	23
1	598	230.350688661184	23
1	600	230.435103408201	23
1	604	233.030902547908	23
1	605	236.775178457451	22
1	606	237.396269608696	21
1	608	237.434544524416	21
1	610	237.884994139134	22
1	611	238.105130270012	22
1	612	238.506096441318	21
1	614	238.506725476394	21
1	615	239.117386404026	21
1	616	240.517518430311	20
1	618	240.660448293186	20
1	619	242.314994214246	20
1	620	242.334864776033	19
1	622	244.162448847539	19
1	623	244.358642443412	19
1	630	246.869587909383	19
1	638	248.562539299778	19
1	639	249.036940118144	18
1	651	253.817758377252	18
1	654	254.542941132361	19
1	656	255.656477777224	19
1	661	256.666923981658	19
1	666	257.706176477161	20
1	668	259.418906018825	21
1	675	262.255314988769	21
1	676	262.361181687419	20
1	678	262.397852245217	20
1	682	263.346441184036	20
1	683	264.633272456574	19
1	684	266.609042505217	18
1	685	266.761435248861	17
1	686	266.898026317745	16
1	688	267.350962307868	16
1	690	267.946483211128	17
1	703	272.894973869564	18
1	705	273.0447738676	18
1	706	273.333846403165	17
1	710	275.35125244036	16
1	715	277.860467693215	16
1	717	277.871263860048	17
1	719	278.913272899502	18
1	721	280.703735047665	19
1	723	280.938961320112	20
1	725	280.970592211443	21
1	729	282.085394173786	21
1	730	282.94201350856	20
1	737	285.412960980185	19
1	739	286.145435952426	19
1	741	286.618282700499	20
1	743	287.404069541022	21
1	745	289.980825085914	22
1	746	290.772779733755	22
1	747	290.791780196943	21
1	748	291.235909380866	20
1	753	293.191003872741	20
1	754	293.249635104858	20
1	756	293.501274775165	20
1	758	293.8430281191	21
1	763	296.233528864321	22
1	765	298.058319469011	23
1	766	298.072668987067	23
1	767	298.512230712399	22
1	771	299.053299227771	22
1	776	302.575564180387	22
1	777	303.446012459606	21
1	778	305.515017137161	20
1	779	305.735317333227	19
1	790	307.453824252635	19
1	795	309.236937777112	20
1	796	309.53691195126	20
1	798	310.226694132705	20
1	805	313.058680978825	20
1	806	313.670840064698	19
1	807	314.191630312359	18
1	808	314.230717403584	17
1	810	314.890374174762	17
1	811	315.199375528677	17
1	813	315.332255831492	17
1	814	315.395256232792	17
1	816	316.517676356446	17
1	820	319.044879360725	17
1	824	322.430101164391	16
1	830	323.090124222901	16
1	839	325.538337787704	16
1	843	326.176180478024	15
1	844	326.61609104492	14
1	848	327.584063596398	13
1	850	327.697217707022	13
1	854	328.869612378675	13
1	856	329.647278053593	13
1	857	330.494476147129	13
1	858	330.70654085926	12
1	860	331.268830258769	12
1	861	331.907202740595	12
1	866	334.581026154516	12
1	867	335.828825568918	12
1	871	337.816960106124	11
1	873	338.367650336779	11
1	877	340.96275126615	11
1	878	342.643378615958	10
1	883	345.871347170073	10
1	884	346.483101415202	10
1	886	347.126416340977	10
1	888	350.114345954886	11
1	890	350.549975900492	12
1	892	350.899433721017	13
1	894	351.626207472882	14
1	895	351.67857083355	14
1	896	352.162750555983	13
1	897	352.225296156842	12
1	899	352.65166488692	12
1	910	354.466025592611	13
1	911	358.600241222286	13
1	913	358.943918537656	13
1	914	360.168201452771	13
1	915	361.573382494088	12
1	917	363.079907595411	12
1	919	363.839653139161	13
1	923	366.677032427826	13
1	924	366.846036140578	12
1	937	370.630341190005	12
1	942	371.523281820906	13
1	944	372.036871763645	14
1	949	373.286284132562	15
1	951	373.473812467391	15
1	953	376.336307644944	15
1	954	377.107698535998	15
1	956	377.162125460526	15
1	958	377.828342516418	16
1	960	380.737608762467	17
1	967	382.818876653456	17
1	968	382.948949989349	16
1	977	383.539151478835	16
1	981	384.597643506745	17
1	986	385.515804769862	18
1	994	387.793791547397	19
1	996	387.821953400228	20
1	1000	388.409143172644	20
1	1002	389.379853469553	20
1	1013	392.835717535049	21
1	1014	393.745085899169	21
1	1024	398.071405124292	20
1	1026	398.272370122322	20
1	1030	398.553114442226	21
1	1032	399.357645999001	22
1	1034	400.409511582907	23
1	1036	401.36902820341	23
1	1040	401.998213859867	22
1	1041	402.957050051021	21
1	1049	406.661720353876	21
1	1051	407.012319754987	22
1	1055	408.169772720426	22
1	1059	409.076689170452	21
1	1060	409.844046324821	20
1	1061	410.22335903795	19
1	1069	412.330104523347	19
1	1073	413.870845158941	19
1	1075	415.176337667485	19
1	1077	416.250186839365	20
1	1078	416.338552018204	20
1	1079	416.544061793981	19
1	1080	416.901905133658	18
1	1081	417.222918050021	17
1	1083	418.44378306365	17
1	1085	418.70932640241	18
1	1086	418.899203172688	18
1	1087	419.442746889653	17
1	1088	419.807018354764	16
1	1090	422.046510022977	16
1	1091	423.195649601395	16
1	1096	425.005008488502	16
1	1097	425.674582112243	16
1	1102	427.15610103543	16
1	1103	427.211933781436	16
1	1104	428.499695247082	15
1	1106	428.686437830785	15
1	1107	428.854343344703	15
1	1111	429.473777409455	15
1	1114	431.739581444764	16
1	1119	433.958719302376	17
1	1124	435.593295271204	18
1	1125	437.974911229733	18
1	1127	438.447400659297	18
1	1129	438.505305757073	19
1	1131	438.778438670068	20
1	1133	439.772653832323	21
1	1135	439.960346291652	22
1	1142	441.532226836785	22
1	1144	441.564616237292	22
1	1146	442.05210292711	23
1	1148	442.294747539625	24
1	1153	445.853961631764	25
1	1155	448.292659143167	26
1	1157	448.690083148288	27
1	1158	448.776255258208	27
1	1159	448.847494438636	26
1	1160	448.927470534195	25
1	1164	450.132290890043	24
1	1166	450.282108647456	24
1	1168	450.460773653561	25
1	1169	451.035116736464	25
1	1170	451.529697264155	24
1	1174	452.242558016468	24
1	1177	452.639199508373	25
1	1181	452.967747744397	26
1	1187	453.817818717943	27
1	1189	454.068145512012	28
1	1193	455.093644392517	29
1	1199	457.55764385612	30
1	1200	458.630756621433	30
1	1202	458.776938943584	30
1	1203	459.784029818783	30
1	1211	461.424836668097	30
1	1212	462.781817312367	30
1	1217	463.586857785406	30
1	1219	463.815963480455	31
1	1220	464.966116923961	31
1	1221	466.774653536356	30
1	1226	468.011244511344	30
1	1227	468.400513564151	30
1	1229	468.483180281947	30
1	1231	468.510191598005	31
1	1233	469.671652032542	32
1	1234	469.721590536646	32
1	1235	471.084983353149	31
1	1236	471.210548952682	30
1	1237	472.390463388181	29
1	1239	472.467678623866	29
1	1241	472.784659822929	30
1	1245	473.846024381469	30
1	1246	474.744697944119	29
1	1247	474.812307746292	28
1	1249	475.330568253973	28
1	1250	475.606913954413	28
1	1260	480.430188403063	28
1	1263	480.930488568374	29
1	1267	486.662386864932	29
1	1269	486.874396507163	29
1	1270	487.790624025241	29
1	1272	489.680159310052	29
1	1274	490.247108431444	30
1	1279	490.765623027922	31
1	1281	490.921414792045	32
1	1283	491.206401964836	33
1	1285	492.011585021463	34
1	1287	492.314779303607	35
1	1291	493.771748060312	36
1	1293	494.015217246361	37
1	1295	494.445336716304	37
1	1296	494.656277998504	36
1	1300	496.85774783082	35
1	1301	497.357611579263	34
1	1302	497.644659025999	33
1	1306	498.651837577237	32
1	1307	499.35792767437	31
1	1312	501.716130277493	31
1	1314	502.71696435715	32
1	1315	503.894416779486	32
1	1322	507.066481964269	31
1	1324	507.530555426944	31
1	1325	507.793270542862	31
1	1330	509.655288919402	31
1	1331	510.973670995996	31
1	1341	514.928729354363	30
1	1345	516.39118557003	30
1	1348	516.839715213557	31
1	1355	517.77550777746	32
1	1360	518.488007873183	32
1	1362	518.512794333994	32
1	1366	519.276254767417	33
1	1373	519.952565213864	34
1	1376	520.899402714769	34
1	1378	521.000457371777	34
1	1383	521.954551087191	35
1	1384	522.719809009907	35
1	1385	523.002049409689	34
1	1387	523.178811713222	34
1	1391	526.113156324029	34
1	1402	528.81205726796	34
1	1406	529.286981619205	35
1	1408	529.512417257578	35
1	1410	529.549291941676	35
1	1411	529.62529529528	35
1	1413	530.638016786312	35
1	1417	531.635561180437	35
1	1421	532.272873283338	34
1	1422	532.684938213586	33
1	1423	533.011015233959	32
1	1433	538.482842707936	32
1	1435	538.78052139646	32
1	1436	539.686150571901	31
1	1437	540.350446959261	30
1	1438	542.303619836757	29
1	1442	547.06510650444	28
1	1444	547.178928317245	28
1	1448	548.733524682854	29
1	1451	549.068661864319	30
1	1453	549.231929400092	31
1	1454	550.493403132033	31
1	1455	550.821025506823	30
1	1456	550.959962415422	29
1	1461	553.294015458879	29
1	1465	554.605854952902	30
1	1467	555.647113438239	30
1	1468	556.779791753388	29
1	1470	557.194232830286	29
1	1474	558.884840786187	30
1	1482	560.378543782037	30
1	1483	560.421914172151	29
1	1487	562.897467951112	28
1	1488	563.111897681964	27
1	1490	564.51258706422	27
1	1494	565.759953710938	27
1	1496	566.415122661243	27
1	1497	567.399963045688	27
1	1499	567.770904527871	27
1	1500	568.29709429318	27
1	1501	568.736330122233	26
1	1503	569.691712665721	26
1	1504	569.893384253453	26
1	1505	570.056476978182	25
1	1510	571.548096124039	25
1	1511	571.987795833877	25
1	1516	572.668804184654	25
1	1523	574.328748927721	25
1	1525	574.396268174088	25
1	1526	575.10654926661	25
1	1527	575.199481112802	24
1	1529	576.265489326002	24
1	1534	578.040583821386	25
1	1542	579.871234182523	26
1	1543	580.200190259406	26
1	1551	583.12090100008	26
1	1552	583.287792934442	26
1	1553	583.96300841873	25
1	1554	584.357353468478	24
1	1555	584.40313545018	23
1	1556	585.094589841466	22
1	1560	587.045790295191	22
1	1575	593.226080109546	23
1	1576	594.781708849321	23
1	1577	594.830331192374	22
1	1578	595.414833628059	21
1	1579	595.607015139748	20
1	1580	596.25937474486	19
1	1582	596.781948355796	19
1	1584	597.26732637985	20
1	1585	597.503427315492	20
1	1592	599.945547172708	20
1	1602	602.203984983999	21
1	1604	602.399563291095	22
1	1611	603.60727685176	23
1	1613	605.12569644671	24
1	1615	605.466920005807	25
1	1616	606.031533709723	25
1	1621	606.81354707622	25
1	1623	607.416575171157	26
1	1628	609.840731474337	27
1	1630	610.859101144189	28
1	1632	611.369137611757	29
1	1633	612.919591593254	29
1	1634	614.466784451878	28
1	1638	615.843826702503	27
1	1640	617.562776675681	27
1	1641	617.866374320074	27
1	1642	618.206027799719	26
1	1647	618.769337947802	26
1	1652	620.718035131038	27
1	1653	621.362332893699	27
1	1655	621.829625872356	27
1	1657	622.217239726229	28
1	1658	625.49543413913	28
1	1659	628.159012864357	27
1	1661	629.643972522323	27
1	1663	630.149727782335	28
1	1667	631.009769256168	29
1	1669	634.651415916709	29
1	1670	635.43655464585	28
1	1675	635.976618438773	28
1	1676	636.716380053643	28
1	1680	637.628357741923	27
1	1681	638.431730052092	26
1	1683	638.968184492199	26
1	1685	640.516370573522	27
1	1687	641.069912800549	28
1	1689	641.54644091009	29
1	1690	643.033831192852	29
1	1691	643.038928932893	28
1	1692	643.692897566709	27
1	1694	643.981146721649	27
1	1695	644.056489760886	27
1	1697	644.115825591014	27
1	1698	644.242558067703	27
1	1700	644.465907277349	27
1	1701	644.979475120635	27
1	1702	646.135439856516	26
1	1707	647.520704008698	26
1	1714	652.190897836945	26
1	1719	653.530855961908	26
1	1723	657.205312248173	26
1	1724	657.792872481411	25
1	1726	658.109235726838	25
1	1728	660.693820731376	26
1	1729	660.841898008498	26
1	1731	661.50700729387	26
1	1733	661.873867687979	27
1	1735	664.20031260378	28
1	1739	664.466752153714	28
1	1741	665.948732693313	28
1	1743	666.078736495538	29
1	1744	666.445912972225	29
1	1746	666.46805090101	29
1	1747	666.787463768954	29
1	1748	667.105779550151	28
1	1750	667.386504659289	28
1	1751	667.689754245995	28
1	1753	667.996734277791	28
1	1755	668.5108796826	29
1	1757	668.763026276693	30
1	1758	668.911643731937	30
1	1760	668.975042923258	30
1	1770	674.035154753744	30
1	1771	675.234402888399	29
1	1772	676.078749976574	28
1	1776	677.709624670678	27
1	1778	677.795183770169	27
1	1779	678.817440716327	27
1	1780	681.156428240026	26
1	1784	682.402262310931	25
1	1785	683.425726037399	24
1	1787	683.917215583691	24
1	1788	685.430481310384	24
1	1790	685.89072111622	24
1	1792	686.138788016448	25
1	1794	686.376848784852	26
1	1796	688.011429931945	27
1	1798	690.121331324903	28
1	1799	691.296691189533	28
1	1801	691.462680991986	28
1	1811	692.608564019734	29
1	1813	693.32804760578	30
1	1815	693.731714273935	30
1	1817	693.753702052878	30
1	1818	694.401876536697	30
1	1820	694.873967676181	30
1	1826	695.219388481503	31
1	1830	696.7234403404	32
1	1832	696.725091826252	33
1	1834	696.895628812802	34
1	1836	696.975270312094	35
1	1840	698.067691221751	35
1	1842	698.316820350825	35
1	1843	698.657310823027	35
1	1845	699.672511719965	35
1	1846	699.736577072504	35
1	1847	700.3807652198	34
1	1848	700.533531357147	33
1	1850	701.295311429783	33
1	1852	701.645325300869	34
1	1854	701.956755258061	35
1	1855	702.035212999022	35
1	1857	703.649773176772	35
1	1861	704.806808156553	35
1	1862	704.857266542805	34
1	1864	705.105758950785	34
1	1865	705.303460209387	34
1	1867	705.342402646528	34
1	1869	705.68035356448	35
1	1870	705.861757818515	35
1	1871	706.733563755772	34
1	1875	707.920870110858	34
1	1884	714.293120842187	35
1	1886	714.690882029252	36
1	1890	715.959531331558	37
1	1892	717.235989040317	38
1	1894	718.164853372304	38
1	1896	718.379887934275	38
1	1897	721.213818297488	38
1	1898	721.234618805943	37
1	1899	721.55121016522	36
1	1900	722.309428895733	35
1	1902	724.331553120244	35
1	1904	724.398563706206	36
1	1905	724.623561793176	36
1	1906	725.119842847734	35
1	1907	725.928438246315	34
1	1909	726.244532535225	34
1	1914	728.765439938125	35
1	1915	729.521116982624	35
1	1917	730.016198608076	35
1	1919	730.287496088404	36
1	1920	730.984584202057	36
1	1921	732.006967003183	35
1	1922	732.058801735528	34
1	1924	732.092759500267	34
1	1926	732.704122036351	35
1	1928	732.993188548401	36
1	1929	733.550147465463	36
1	1930	734.420012120011	35
1	1932	734.438531734723	35
1	1940	736.51587915317	36
1	1941	737.907658662917	36
1	1942	738.333432156293	35
1	1946	740.386585212569	34
1	1947	741.813264392876	33
1	1948	741.898007404197	32
1	1950	742.004182598707	32
1	1952	743.054230033811	33
1	1958	744.426417626485	34
1	1961	745.976015276349	34
1	1963	746.074634584557	34
1	1965	746.331636263245	35
1	1967	747.759774489744	36
1	1971	749.007290042037	36
1	1973	749.141252221576	36
1	1974	749.314704993437	36
1	1975	749.995186085268	35
1	1977	750.208679767284	35
1	1979	750.643701365853	36
1	1983	751.476462406505	36
1	1984	752.461606698502	35
1	1985	753.250740018537	34
1	1987	754.313539426121	34
1	1994	755.139920154413	35
1	1996	755.467274877735	35
1	1997	756.294966858612	34
1	1998	756.690363829024	33
1	1999	757.247891284654	32
1	2000	758.904988579515	31
1	2004	760.355399409139	30
1	2005	760.612021211294	29
1	2007	761.218189604885	29
1	2011	761.330887145833	30
1	2013	762.803691605449	30
1	2014	763.979112989559	29
1	2021	765.010872846737	29
1	2024	765.889722226499	30
1	2025	766.391294997514	30
1	2026	766.700056058435	29
1	2030	769.457828497036	28
1	2032	769.492366584186	28
1	2036	770.503365152937	28
1	2043	774.10813610628	27
1	2045	774.312154319452	27
1	2052	777.187916092429	28
1	2054	778.017833945001	28
1	2055	778.429588100275	27
1	2057	781.433533200657	27
1	2061	782.310863492123	27
1	2068	785.774610792791	27
1	2070	786.266023830433	27
1	2075	787.605065865188	27
1	2077	787.632693773257	28
1	2078	791.739579089577	28
1	2080	791.812542128832	28
1	2082	792.825630074558	29
1	2084	793.106118645999	30
1	2085	793.315463647799	30
1	2086	794.219460102915	29
1	2090	795.983979322456	29
1	2096	797.31547067304	30
1	2097	798.162715263267	30
1	2102	798.947913671804	30
1	2103	799.411333468598	30
1	2111	800.734366954587	30
1	2112	801.091374849821	30
1	2113	801.627116850669	29
1	2114	804.490651328648	28
1	2120	806.029631059075	28
1	2124	807.847741533025	29
1	2126	808.260311205554	30
1	2130	808.972348757939	30
1	2135	813.282516964542	30
1	2136	813.617524104858	30
1	2140	814.75439193086	29
1	2142	814.80326033177	29
1	2149	816.742715277702	29
1	2150	818.314773996151	28
1	2152	818.380597665156	28
1	2153	818.522750767217	28
1	2155	820.204965312734	28
1	2159	820.677722622633	29
1	2169	823.250885573292	30
1	2172	823.636215506689	31
1	2174	823.680603697767	32
1	2176	824.140443518389	33
1	2181	824.5663821598	34
1	2189	829.879791128221	34
1	2190	829.964101517902	33
1	2191	830.712067768813	32
1	2196	831.965951881763	32
1	2197	832.770843430742	32
1	2198	833.238889845423	31
1	2200	833.975527892492	31
1	2202	834.073187536907	32
1	2207	837.418737714379	33
1	2208	837.463215322285	33
1	2210	837.747149868744	33
1	2214	838.959011875208	34
1	2221	841.166020368849	35
1	2225	841.685744191678	36
1	2227	841.799011240053	37
1	2228	841.943607763731	37
1	2233	843.124210790441	37
1	2235	843.46544411402	38
1	2237	843.715834367818	39
1	2239	845.103795560344	40
1	2240	845.194168302569	40
1	2247	846.896805630338	39
1	2249	848.061481364927	39
1	2250	848.757818563924	39
1	2252	848.917083284492	39
1	2256	850.721850777527	39
1	2257	853.158322870595	38
1	2259	853.693651716453	38
1	2261	853.911773855917	39
1	2262	854.392526190336	39
1	2264	857.385069520553	39
1	2265	857.816912037371	39
1	2267	857.900159935581	39
1	2268	858.3007834215	39
1	2270	859.230698072923	39
1	2274	860.871536850753	39
1	2275	861.073800850058	38
1	2283	865.144344761167	38
1	2284	865.297621755252	38
1	2289	866.484172554759	38
1	2290	866.578364209766	38
1	2294	867.478714533332	37
1	2295	867.79682178957	36
1	2297	868.062799063376	36
1	2298	868.456905063464	36
1	2300	868.461943861207	36
1	2308	871.159455576234	37
1	2310	871.273454975753	38
1	2315	872.034504904911	39
1	2317	872.04771715127	40
1	2318	872.198587674326	40
1	2319	873.902133378565	39
1	2323	875.058228708188	39
1	2328	878.126773031486	40
1	2330	878.300416092587	40
1	2332	880.002037860351	40
1	2334	883.70005389078	41
1	2335	884.025345252257	41
1	2336	884.584834427486	40
1	2337	886.404273659819	39
1	2341	889.062400308099	39
1	2344	889.189540069077	40
1	2346	889.612380146626	41
1	2347	890.494366366065	41
1	2348	891.701459804621	40
1	2349	893.125537023226	39
1	2350	893.906979050157	38
1	2351	894.418377973786	37
1	2352	897.689024522027	36
1	2353	897.897022437803	35
1	2355	898.607801413106	35
1	2356	899.051011346383	35
1	2357	899.426558831806	34
1	2361	901.083693934211	33
1	2363	901.554409570433	33
1	2368	902.361903903002	34
1	2369	904.517064981477	34
1	2380	907.119633944209	34
1	2382	907.667524238388	35
1	2389	910.047276388964	35
1	2391	910.654370556012	35
1	2396	914.462906312602	36
1	2403	919.744930545071	37
1	2406	920.095310223823	38
1	2407	921.965606076065	38
1	2408	922.132819767073	37
1	2409	922.726084069741	36
1	2410	924.645179577925	35
1	2416	925.901466869047	35
1	2419	928.967225309797	35
1	2420	929.04762272125	34
1	2428	931.507376905208	34
1	2430	932.216983490642	35
1	2432	933.360039476501	36
1	2434	934.260872373583	37
1	2436	934.569648124422	38
1	2438	934.952087838802	39
1	2439	935.292346222118	39
1	2441	935.74034302397	39
1	2442	936.945474056795	39
1	2446	937.243890782768	38
1	2447	938.217915224923	37
1	2448	940.102131931495	36
1	2452	941.51564561841	35
1	2454	942.690812453095	35
1	2455	943.043368308031	35
1	2460	943.45587894108	35
1	2462	944.586795422435	36
1	2464	945.542918757345	37
1	2465	946.594132277506	37
1	2466	946.845674709099	36
1	2473	949.352467036085	35
1	2478	951.221910696391	35
1	2479	952.344889618529	35
1	2481	957.478605080943	35
1	2485	958.605282800591	35
1	2487	958.774822653768	35
1	2489	959.302037136426	36
1	2491	959.552667700896	37
1	2492	959.593872900691	37
1	2493	961.197864508265	36
1	2495	962.020802260956	36
1	2496	962.861021880616	36
1	2501	964.793223245996	36
1	2506	967.111036862389	37
1	2510	967.152372507332	38
1	2512	967.723845333867	39
1	2517	968.229401147311	39
1	2519	968.400315165639	39
1	2520	969.322507307402	39
1	2528	971.673625276461	39
1	2530	971.821424855389	40
1	2534	974.442374563054	40
1	2536	974.736374890298	40
1	2537	975.444630270899	40
1	2538	975.466417973392	39
1	2540	976.527026050755	39
1	2541	977.406880450317	39
1	2543	978.849575332548	39
1	2545	978.904229455845	40
1	2546	979.398285701499	40
1	2548	980.519529589722	40
1	2550	980.9335921944	41
1	2551	981.974606637333	41
1	2553	983.033967220205	41
1	2557	983.783228611779	41
1	2561	984.337225807804	40
1	2562	984.464884639625	39
1	2569	986.205073816232	38
1	2571	986.349449136726	38
1	2579	988.432299146613	39
1	2580	988.641899275964	39
1	2581	992.02361153492	38
1	2583	992.082964898419	38
1	2585	992.736902315575	39
1	2589	993.572343230744	40
1	2591	995.449744394409	40
1	2592	995.583615794037	39
1	2594	997.059792217434	39
1	2595	997.31494912731	39
1	2597	998.524488732491	39
1	2598	999.056580611372	39
1	2605	1002.003987096022	38
1	2607	1002.948315165793	38
1	2611	1005.739206908559	38
1	2612	1006.570659263788	37
1	2619	1007.309897750726	37
1	2623	1007.846666047912	38
1	2627	1008.538137460777	39
1	2631	1010.308710452601	39
1	2633	1010.316844427901	39
1	2635	1010.32339610515	40
1	2637	1012.661253765336	41
1	2638	1012.754425358772	41
1	2639	1012.818703623857	40
1	2643	1013.968633122809	39
1	2647	1015.847830315247	39
1	2655	1018.855928589098	39
1	2656	1019.943327379281	38
1	2658	1020.002065119623	38
1	2660	1020.529638096667	39
1	2661	1025.060235864303	39
1	2668	1028.434450707506	38
1	2669	1028.523261838466	37
1	2671	1030.630371999522	37
1	2673	1032.131439791749	38
1	2675	1032.535908282347	39
1	2680	1033.550338911019	40
1	2681	1034.20869187421	40
1	2682	1035.536986860656	39
1	2683	1037.011015671467	38
1	2685	1038.133311890602	38
1	2689	1038.538007495679	38
1	2693	1044.419544349968	37
1	2694	1045.882658445783	36
1	2695	1046.165442366186	35
1	2699	1047.34353785101	35
1	2705	1048.452961328502	36
1	2706	1048.633330264479	36
1	2710	1048.851188658538	36
1	2712	1048.965983194782	37
1	2722	1050.296145731878	38
1	2725	1051.405107980498	38
1	2726	1052.36301208016	37
1	2728	1052.889735558881	37
1	2733	1059.556932580499	38
1	2739	1060.473779027897	39
1	2745	1061.366321453799	40
1	2753	1064.709156882977	40
1	2754	1065.608809728199	39
1	2756	1065.666245940433	39
1	2758	1066.322105935879	40
1	2765	1070.71719364549	40
1	2766	1071.605149923083	39
1	2768	1071.917559265743	39
1	2769	1072.753323606272	39
1	2770	1073.865897387935	38
1	2772	1074.285323199861	38
1	2773	1076.481643233257	38
1	2774	1077.254515405361	37
1	2775	1078.009349202784	36
1	2786	1080.756375846712	36
1	2788	1080.803294716724	37
1	2792	1082.708290267205	37
1	2793	1083.404182238562	36
1	2794	1083.545708560849	35
1	2796	1083.920925437386	35
1	2797	1084.212492891718	35
1	2798	1084.671194978718	34
1	2800	1085.632065948788	34
1	2802	1085.881024951777	35
1	2803	1086.459107474503	35
1	2805	1086.526930345249	35
1	2806	1087.385430394418	35
1	2807	1087.531863467642	34
1	2808	1087.991360128537	33
1	2810	1088.677667304748	33
1	2811	1090.202839383276	33
1	2813	1091.090605399845	33
1	2815	1091.572913161553	34
1	2817	1092.470615700581	35
1	2821	1093.989377812996	35
1	2822	1094.646276403646	34
1	2824	1095.209263596196	34
1	2825	1096.845072424235	34
1	2826	1097.110707775705	33
1	2827	1097.533234513809	32
1	2832	1098.909158835205	32
1	2834	1100.130459329658	33
1	2835	1100.340402006853	33
1	2837	1101.199825187616	33
1	2839	1104.758150167743	34
1	2841	1105.003012560043	35
1	2843	1107.394887791978	36
1	2847	1110.462797537686	36
1	2849	1111.081306110806	36
1	2856	1112.811872116678	36
1	2857	1113.879781376211	35
1	2858	1115.402044943345	34
1	2860	1116.157834466965	34
1	2861	1116.200891717036	34
1	2863	1116.872288774698	34
1	2867	1118.128280710108	34
1	2868	1118.397012290461	33
1	2870	1119.514895203193	33
1	2871	1119.968881252276	33
1	2876	1122.145516414426	33
1	2878	1123.23354262624	34
1	2880	1125.169911513354	35
1	2882	1126.779374563809	36
1	2883	1128.60629692232	36
1	2887	1129.209711027372	36
1	2889	1130.455298304343	36
1	2890	1130.715712692654	35
1	2891	1130.937979167421	34
1	2893	1131.038960465685	34
1	2895	1132.557374560692	35
1	2896	1132.792814994992	35
1	2897	1133.685144034123	34
1	2899	1134.187450884406	34
1	2900	1134.631489089053	34
1	2901	1135.323640889097	33
1	2908	1138.631355454001	32
1	2910	1139.438765556535	32
1	2918	1143.290022315633	33
1	2919	1143.325569913511	33
1	2920	1143.374518725225	32
1	2922	1144.501115725244	32
1	2924	1145.921560863155	33
1	2926	1145.938670358564	34
1	2927	1146.410588436931	34
1	2932	1147.238809729512	34
1	2936	1147.4729911281	35
1	2941	1148.964917685849	35
1	2942	1149.006932523459	34
1	2943	1151.316190300989	33
1	2944	1152.770392016431	32
1	2946	1153.077454481509	32
1	2947	1153.48095102398	32
1	2949	1154.077344331839	32
1	2951	1155.040799589928	33
1	2953	1156.148315326523	34
1	2954	1156.553768151671	34
1	2959	1157.433474976802	34
1	2961	1158.522220316812	35
1	2966	1160.106772972285	36
1	2967	1160.981635114029	36
1	2968	1161.155515401281	35
1	2970	1161.375673712814	35
1	2974	1162.189222538694	35
1	2978	1162.738219997537	34
1	2979	1165.358148385301	33
1	2981	1165.765672842169	33
1	2982	1165.89504700641	33
1	2984	1166.205534274449	33
1	2988	1167.338062236198	34
1	2991	1168.099143660134	35
1	2993	1168.168793330247	36
1	2995	1169.928995576489	37
1	3000	1171.720794279516	38
1	3001	1171.882446082867	38
1	3002	1172.527169837951	37
1	3003	1173.146261184851	36
1	3004	1173.349982441055	35
1	3006	1175.452686342609	35
1	3007	1176.389949460507	35
1	3015	1179.13856785774	35
1	3017	1180.480870072571	36
1	3030	1183.491750637775	37
1	3033	1185.497684128544	38
1	3034	1185.636650104845	38
1	3036	1185.662505075319	38
1	3040	1186.953623721327	38
1	3041	1187.337284348321	37
1	3043	1187.418872684063	37
1	3049	1187.584710319416	38
1	3063	1190.460858182918	39
1	3075	1195.173555103475	40
1	3079	1195.598413961956	41
1	3082	1196.454902700783	42
1	3094	1200.219289344093	43
1	3098	1200.728636078268	43
1	3099	1200.968274174035	42
1	3100	1201.639163816795	41
1	3102	1203.159888181434	41
1	3107	1203.847782390463	42
1	3109	1203.956179320445	43
1	3111	1204.297618020684	44
1	3112	1205.16364154391	44
1	3114	1205.172092061761	44
1	3115	1205.905552138334	44
1	3116	1206.236039868746	43
1	3120	1207.583064758237	42
1	3122	1207.694016105792	42
1	3123	1208.142873085268	42
1	3125	1208.270653916928	42
1	3130	1209.470503997461	43
1	3134	1210.23294700089	44
1	3136	1210.52735659258	44
1	3138	1210.870568714365	44
1	3139	1211.831662128992	44
1	3140	1212.019030161475	43
1	3142	1212.298264149774	43
1	3143	1213.121320167426	43
1	3144	1213.438360929191	42
1	3145	1213.934385668128	41
1	3147	1215.056353089888	41
1	3151	1216.344844846906	41
1	3152	1216.513357068888	40
1	3153	1217.32448851945	39
1	3155	1218.453653235772	39
1	3159	1220.07261647903	39
1	3160	1220.858947437922	38
1	3161	1221.726828443184	37
1	3162	1222.439444948038	36
1	3163	1224.536558729259	35
1	3165	1225.935892611531	35
1	3166	1226.968174826762	35
1	3173	1229.430100836447	34
1	3177	1229.88164402583	33
1	3179	1230.571110173611	33
1	3180	1230.851086563101	33
1	3182	1231.081346303788	33
1	3193	1232.216726197292	34
1	3196	1232.986373252132	35
1	3199	1234.654104192597	35
1	3201	1234.754571793928	35
1	3203	1236.248749942962	36
1	3204	1237.681783899974	36
1	3206	1239.389788719175	36
1	3208	1239.393768325231	37
1	3209	1239.670165032471	37
1	3214	1241.136745284186	37
1	3221	1244.098372165593	37
1	3226	1245.328894206735	37
1	3227	1245.450558392098	37
1	3237	1247.747665409457	36
1	3238	1247.902668946313	35
1	3239	1248.020423807984	34
1	3244	1248.453099454901	34
1	3246	1248.988363540226	35
1	3248	1250.012186345676	36
1	3250	1250.189861127574	37
1	3254	1251.665291535627	37
1	3256	1252.294023222415	37
1	3258	1253.419419661115	38
1	3259	1253.584660104916	38
1	3263	1253.67331081511	38
1	3265	1254.37153299579	38
1	3267	1254.689790634648	38
1	3268	1255.217587390181	38
1	3269	1255.50400429047	37
1	3271	1256.781952421222	37
1	3272	1257.485367630478	37
1	3277	1258.164602373172	37
1	3278	1258.532258358734	37
1	3280	1259.674102022718	37
1	3287	1262.799371593189	37
1	3289	1263.258212038806	37
1	3290	1263.800280698532	37
1	3294	1264.587915634274	36
1	3296	1264.993817940483	36
1	3297	1265.366754765071	36
1	3299	1265.449121825671	36
1	3300	1265.777057300929	36
1	3304	1268.939222110341	35
1	3306	1268.994388525007	35
1	3307	1269.127424608117	35
1	3311	1271.13343318834	34
1	3313	1271.727814064513	34
1	3314	1272.192577156338	34
1	3315	1272.916715477144	33
1	3322	1274.342152863859	33
1	3324	1274.420193770631	34
1	3326	1274.507154623989	35
1	3329	1276.472330868062	36
1	3334	1279.905542477467	37
1	3336	1280.686736789309	38
1	3340	1281.886351189042	38
1	3342	1282.808909638685	38
1	3343	1283.368944173886	38
1	3345	1283.667331481048	38
1	3346	1285.167966718573	38
1	3353	1286.551905585352	38
1	3355	1286.84532385459	39
1	3363	1291.480706541412	39
1	3364	1291.843618833507	38
1	3366	1292.112416648227	38
1	3371	1295.340746536063	39
1	3372	1295.344742476437	39
1	3373	1295.520830378732	38
1	3378	1295.932392471978	38
1	3380	1296.50933879653	39
1	3382	1300.094137369838	40
1	3384	1300.873465038817	41
1	3385	1301.623819148646	41
1	3386	1302.328482502748	40
1	3387	1302.887465786081	39
1	3388	1303.269414320382	38
1	3390	1303.373808195003	38
1	3394	1305.049874274615	39
1	3399	1306.058907701242	40
1	3401	1306.86931071074	40
1	3402	1307.093277923502	39
1	3409	1312.416377434435	38
1	3411	1312.707129259891	38
1	3412	1313.568236813633	38
1	3413	1315.083422484672	37
1	3414	1315.19781840285	36
1	3415	1315.939220094139	35
1	3417	1316.864786792839	35
1	3421	1319.232760473982	35
1	3426	1320.418031087507	35
1	3427	1320.813216259962	35
1	3435	1323.07437156518	35
1	3439	1326.133084642322	36
1	3441	1326.745643847785	36
1	3442	1327.207312034162	35
1	3453	1330.578944109867	35
1	3454	1330.739630547904	35
1	3459	1331.185021759995	35
1	3464	1331.598965109403	36
1	3465	1331.670293110275	36
1	3466	1331.671526745903	35
1	3467	1332.205808074236	34
1	3468	1332.270832708928	33
1	3469	1332.335994549042	32
1	3470	1333.26139014362	31
1	3472	1333.422500216951	31
1	3474	1335.22191826534	32
1	3475	1335.745329254701	32
1	3479	1339.363906637251	31
1	3480	1339.811367322543	30
1	3482	1339.831264666098	30
1	3484	1340.390780367065	31
1	3486	1341.679701185789	32
1	3488	1343.005454075102	33
1	3494	1343.229336299774	34
1	3500	1344.22550924997	34
1	3510	1346.107495578041	33
1	3515	1348.327509648797	33
1	3517	1348.938839348954	34
1	3518	1349.022372241649	34
1	3520	1349.052188524187	34
1	3522	1350.002734630147	35
1	3523	1350.298616363479	35
1	3524	1351.834158060041	34
1	3526	1352.95905834314	34
1	3527	1353.390561039514	34
1	3531	1353.8179415929	34
1	3533	1355.276890163942	34
1	3538	1355.850720216032	34
1	3542	1358.175586403165	34
1	3550	1360.458270180457	34
1	3554	1361.273249114121	35
1	3556	1363.266547332009	35
1	3557	1363.953060595485	34
1	3559	1364.234504236699	34
1	3560	1364.606443418743	34
1	3568	1370.116443213195	34
1	3576	1371.52899920864	35
1	3578	1371.534491534158	36
1	3583	1373.091865700613	37
1	3584	1373.660161989629	37
1	3586	1373.949873663053	37
1	3591	1375.75751660706	38
1	3592	1376.083685691323	38
1	3594	1377.356876558237	38
1	3596	1377.791445167085	39
1	3597	1379.979721934186	39
1	3598	1380.540869166069	38
1	3600	1381.812428971341	38
1	3604	1382.958669308845	39
1	3609	1384.575130303071	40
1	3612	1384.818701649873	41
1	3613	1384.903438655828	41
1	3614	1387.899434371474	40
1	3616	1388.276420587099	40
1	3617	1389.507336115278	40
1	3624	1390.799206595985	39
1	3626	1390.847566638563	39
1	3627	1391.068271983808	39
1	3631	1391.268510076198	39
1	3633	1391.47441137179	40
1	3638	1393.50210666324	40
1	3646	1396.778769500508	40
1	3648	1397.494648084326	41
1	3650	1397.498375044314	42
1	3652	1398.71285731209	43
1	3654	1399.50317630287	44
1	3656	1399.698299846551	45
1	3657	1400.751236122091	45
1	3659	1401.580812866988	45
1	3660	1401.845910435741	45
1	3665	1404.379353436096	45
1	3666	1404.779733229845	45
1	3668	1405.977026042735	45
1	3670	1406.490368438304	46
1	3671	1406.897249091204	46
1	3672	1408.892719554508	45
1	3674	1410.158192056012	45
1	3675	1410.593581585318	45
1	3682	1415.103614706921	45
1	3684	1415.394341462439	46
1	3686	1415.739762508972	46
1	3687	1416.722026450596	45
1	3689	1417.395319172212	45
1	3693	1417.741614427354	45
1	3694	1418.224035714027	44
1	3698	1418.627844861155	44
1	3700	1418.956363647639	44
1	3704	1420.242219419183	43
1	3714	1422.827936859465	43
1	3720	1423.80481580921	44
1	3721	1423.894974890815	44
1	3722	1424.786790295582	43
1	3723	1424.823489224178	42
1	3725	1425.775063048871	42
1	3727	1426.400522028149	43
1	3729	1427.959261222197	44
1	3733	1428.237513554132	45
1	3736	1428.997291424554	46
1	3737	1430.266304356562	46
1	3739	1430.56154586651	46
1	3740	1430.943159480488	46
1	3741	1431.1106963561	45
1	3746	1431.791370692697	45
1	3747	1432.104649958017	45
1	3749	1432.364501245154	45
1	3751	1433.056673726956	46
1	3752	1433.333892288764	46
1	3753	1434.345709160392	45
1	3754	1435.820110657123	44
1	3755	1436.58565917554	43
1	3756	1438.103192760239	42
1	3765	1439.542781823638	42
1	3767	1440.526275851162	43
1	3779	1444.527426390223	43
1	3783	1446.481622993236	42
1	3785	1447.684034945384	42
1	3787	1448.165859224861	43
1	3788	1448.955922639989	43
1	3790	1451.26987451218	43
1	3795	1453.365383292978	44
1	3796	1453.957500335421	44
1	3798	1456.158585034071	44
1	3800	1456.45046382558	45
1	3801	1456.536236113369	45
1	3802	1456.85858511825	44
1	3803	1457.194617341558	43
1	3807	1459.285774878703	42
1	3808	1459.396649401948	41
1	3809	1460.907965055249	40
1	3811	1462.31827008628	40
1	3813	1462.419214992148	41
1	3817	1463.149954826817	41
1	3818	1463.184997777637	40
1	3820	1463.808413882489	40
1	3821	1463.907513255953	40
1	3825	1465.338576145092	39
1	3827	1466.756704257698	39
1	3828	1467.010534719466	39
1	3830	1468.706455363855	39
1	3831	1469.25985366707	39
1	3833	1469.697425097923	39
1	3834	1469.912057335795	39
1	3836	1470.671031782863	39
1	3838	1470.94118509425	40
1	3840	1472.612993541756	41
1	3841	1473.063519046996	41
1	3843	1473.450740866124	41
1	3850	1474.882357526786	42
1	3853	1475.046987140616	43
1	3855	1476.905700738086	44
1	3857	1477.103543674936	45
1	3858	1477.237834513602	45
1	3862	1477.892938308454	45
1	3864	1479.233127127187	45
1	3866	1479.646657805214	45
1	3873	1481.297399408068	45
1	3878	1482.344930090856	45
1	3880	1482.747930683245	46
1	3882	1482.782155225829	47
1	3884	1483.184417548009	48
1	3888	1484.594684583588	48
1	3889	1486.142519307381	47
1	3891	1486.142723628993	47
1	3893	1487.243609262194	48
1	3894	1488.00805740501	48
1	3896	1488.24134876254	48
1	3898	1488.74411275498	49
1	3899	1488.843684060636	49
1	3901	1489.25046001659	49
1	3906	1489.752839118277	50
1	3908	1489.864647995392	51
1	3910	1492.244365633252	52
1	3912	1492.486586168886	53
1	3914	1493.284194910397	54
1	3916	1493.881353441835	55
1	3920	1495.711969491147	55
1	3921	1496.020789427462	54
1	3922	1497.345203306897	53
1	3924	1497.896253454439	53
1	3926	1498.306185036506	54
1	3928	1498.801766946637	55
1	3929	1500.55519473372	55
1	3937	1501.6120119012	55
1	3938	1502.410160438822	55
1	3939	1502.671169244373	54
1	3941	1503.607050115098	54
1	3945	1505.44803423075	54
1	3946	1505.804240758787	53
1	3948	1505.836577177949	53
1	3952	1506.972414315697	53
1	3957	1508.2640641251	53
1	3958	1508.960976614604	53
1	3959	1509.530660208151	52
1	3960	1509.951592118246	51
1	3962	1509.975833956702	51
1	3963	1510.65513878347	51
1	3968	1512.085829940584	51
1	3969	1512.129251744574	51
1	3971	1512.44569567584	51
1	3975	1512.669501794383	52
1	3978	1513.363618735028	53
1	3980	1514.634588698105	54
1	3984	1515.291051435245	54
1	3985	1515.646870906635	53
1	3987	1519.194291564833	53
1	3989	1520.049873884956	54
1	3991	1520.679329981912	55
1	3993	1520.727000715399	56
1	3997	1521.876448759182	56
1	3999	1523.116264179861	56
1	4003	1524.70932966556	57
1	4006	1525.895438246071	58
1	4008	1526.042833864235	59
1	4015	1527.637214065235	59
1	4023	1529.585376424713	59
1	4025	1532.403945873472	60
1	4029	1533.636604377575	61
1	4035	1534.791388458157	62
1	4037	1535.060951269148	63
1	4038	1535.806381907532	63
1	4042	1537.535108107798	62
1	4044	1538.084997180854	62
1	4048	1541.170125964484	62
1	4049	1541.20887808621	61
1	4050	1541.213121973624	60
1	4052	1541.297562792853	60
1	4067	1543.118222827375	61
1	4071	1543.547308075887	62
1	4073	1543.830622909133	63
1	4074	1544.283240692389	63
1	4075	1545.050510732811	62
1	4077	1545.156509146558	62
1	4078	1545.32891760193	62
1	4079	1545.623672285576	61
1	4080	1546.150892235511	60
1	4081	1547.307099938779	59
1	4083	1550.183738721464	59
1	4087	1552.540577755732	59
1	4098	1556.216264465597	59
1	4100	1556.670333149843	60
1	4102	1557.032045700026	61
1	4103	1557.26938559509	61
1	4108	1558.588708311076	61
1	4113	1559.250600008565	62
1	4114	1560.944802949115	62
1	4115	1562.798787584067	61
1	4116	1562.965969132226	60
1	4118	1563.937956633301	60
1	4120	1564.024943000036	61
1	4121	1564.159102406054	61
1	4122	1564.814176938692	60
1	4124	1566.597673361496	60
1	4125	1566.805742979585	60
1	4129	1570.852739657121	59
1	4130	1571.073268383648	58
1	4140	1574.452353699369	58
1	4142	1574.510212128625	59
1	4148	1575.223391961702	60
1	4150	1575.30458860804	61
1	4151	1576.24673682807	61
1	4153	1576.419412575943	61
1	4165	1578.260526343212	62
1	4167	1578.998468266163	63
1	4171	1580.312420095478	64
1	4173	1581.99811461902	65
1	4174	1582.442366943695	65
1	4178	1583.764869286202	64
1	4186	1585.197260848078	64
1	4188	1585.666684709244	65
1	4192	1586.721572066828	65
1	4200	1589.110246940739	65
1	4202	1589.896679619321	66
1	4203	1590.429924960991	66
1	4205	1590.978037467298	66
1	4206	1590.996003949074	66
1	4210	1591.294257639751	66
1	4214	1591.560842900328	67
1	4226	1596.527272367928	67
1	4227	1596.631181541137	66
1	4232	1597.544036906989	66
1	4245	1601.98030188245	66
1	4246	1602.309855772468	65
1	4247	1603.486048300808	64
1	4254	1607.34675721174	63
1	4255	1607.919142241981	62
1	4256	1609.520530653508	61
1	4258	1609.607896978516	61
1	4259	1609.688466799201	61
1	4261	1609.713641164872	61
1	4262	1610.80674442863	61
1	4263	1611.235018057372	60
1	4267	1612.623569039441	59
1	4280	1615.882547268257	59
1	4283	1616.382188647343	60
1	4285	1618.059883883054	61
1	4287	1618.211737360709	62
1	4288	1620.087729434283	62
1	4289	1621.183234992	61
1	4294	1623.335221006784	61
1	4295	1624.243359323376	61
1	4303	1627.139313587098	61
1	4305	1627.194034199063	62
1	4309	1629.424031606262	62
1	4311	1629.949954566335	62
1	4316	1632.501976780952	63
1	4317	1632.540083851444	63
1	4322	1632.955952760892	63
1	4326	1634.970101561144	64
1	4332	1637.364510800185	65
1	4334	1638.509702846288	66
1	4336	1639.014950977312	67
1	4337	1639.397207081555	67
1	4341	1640.413984064595	67
1	4350	1643.217069216035	68
1	4351	1644.636247151006	68
1	4352	1644.644732955386	67
1	4362	1646.093149370081	66
1	4363	1648.247326705711	65
1	4365	1648.278416497043	65
1	4371	1648.491071862436	66
1	4375	1649.881786083118	67
1	4379	1653.027814843978	67
1	4381	1653.358453247724	67
1	4383	1653.937802512837	68
1	4385	1654.650013730847	69
1	4386	1655.004960428016	69
1	4388	1656.397912283482	69
1	4390	1656.939713279971	70
1	4392	1657.444686841537	71
1	4393	1657.504980059297	71
1	4394	1658.146767251187	70
1	4396	1659.608776113447	70
1	4398	1660.21629329052	71
1	4405	1662.1558068567	71
1	4411	1664.326924313352	71
1	4419	1666.871100331792	72
1	4421	1667.094451459834	73
1	4425	1667.188260374575	74
1	4427	1667.448779190795	75
1	4431	1668.083185355501	76
1	4434	1668.175665752626	77
1	4444	1671.120919416044	77
1	4445	1671.634779098687	76
1	4447	1672.178537195357	76
1	4449	1673.099392113966	77
1	4451	1674.85687199392	78
1	4467	1679.933543613541	79
1	4472	1681.727822027512	80
1	4480	1684.686780096423	80
1	4481	1685.510037105574	79
1	4483	1686.911010887301	79
1	4485	1687.239397786158	80
1	4492	1691.371662427716	80
1	4499	1693.831845140538	79
1	4504	1694.6865707735	79
1	4508	1697.534484648483	79
1	4510	1697.617145393358	79
1	4515	1698.900232486959	80
1	4516	1699.928385309662	80
1	4517	1700.366238611303	79
1	4518	1700.875168126586	78
1	4522	1702.146033626924	77
1	4524	1703.018271489841	77
1	4528	1704.153904748387	77
1	4529	1704.293972937846	76
1	4537	1707.789770581291	76
1	4538	1708.117342489538	76
1	4539	1708.151554990614	75
1	4540	1708.390827270851	74
1	4541	1708.822216770027	73
1	4542	1709.262164393179	72
1	4543	1711.619373330743	71
1	4545	1711.927112744821	71
1	4547	1712.69042950407	72
1	4548	1712.95487914157	72
1	4549	1713.8625801549	71
1	4556	1715.531384944005	70
1	4557	1715.586740365189	69
1	4567	1717.937471335721	69
1	4596	1726.122842590563	70
1	4601	1727.979566502913	70
1	4605	1728.60190520096	69
1	4607	1729.109933589582	69
1	4608	1730.625895279345	69
1	4610	1731.418547997972	69
1	4611	1731.450626875721	69
1	4612	1732.098516820883	68
1	4614	1732.997032932728	68
1	4619	1735.470156814804	69
1	4620	1737.008040959079	69
1	4622	1739.36501747703	69
1	4623	1739.440903763331	69
1	4624	1739.80442840771	68
1	4626	1741.385221542883	68
1	4627	1742.53552880411	68
1	4628	1742.572380967257	67
1	4630	1743.571859873223	67
1	4637	1745.51298446698	67
1	4642	1746.482703478967	67
1	4650	1748.729296264803	68
1	4651	1749.019015683145	68
1	4653	1749.156475051153	68
1	4655	1749.567269955612	69
1	4660	1750.344577085544	70
1	4661	1750.511905369655	70
1	4663	1750.582495766292	70
1	4664	1750.691750254583	70
1	4665	1751.87216366858	69
1	4666	1753.548624910406	68
1	4668	1754.60369889294	68
1	4669	1756.977102791631	68
1	4670	1758.030250408785	67
1	4672	1758.077172157404	67
1	4677	1759.031618463979	68
1	4681	1759.673085615707	68
1	4682	1760.769649269421	67
1	4684	1761.837893523546	67
1	4686	1762.085833791782	68
1	4688	1763.926623044167	69
1	4690	1764.747437299975	70
1	4691	1765.665767000874	70
1	4692	1766.062528678538	69
1	4694	1766.658127375794	69
1	4695	1768.450474008215	69
1	4697	1768.606623275514	69
1	4699	1772.395479352622	70
1	4700	1772.950516646258	70
1	4704	1774.332963244348	70
1	4706	1774.939726054393	70
1	4714	1777.231552371419	70
1	4719	1778.826190138181	71
1	4720	1779.814327819516	71
1	4722	1780.534744736915	71
1	4724	1781.168002845825	72
1	4728	1783.922008058386	72
1	4729	1784.136847895826	71
1	4730	1784.547077787814	70
1	4734	1785.721381312958	70
1	4737	1786.376975220256	71
1	4739	1787.184736675019	72
1	4740	1788.328443451832	72
1	4741	1788.861993929586	71
1	4743	1788.92159615462	71
1	4745	1789.14433901361	72
1	4749	1794.598358266198	72
1	4753	1797.50472809925	71
1	4757	1798.376667625629	70
1	4758	1799.989880496456	69
1	4759	1800.174127421473	68
1	4763	1800.857324766478	68
1	4765	1801.775689598277	69
1	4767	1802.171829592768	69
1	4769	1802.363097695196	69
1	4773	1803.589274261726	69
1	4774	1804.229623320075	68
1	4778	1804.641915450888	68
1	4780	1805.248583234308	68
1	4782	1805.298012484273	68
1	4783	1805.355467122488	68
1	4784	1805.363103745435	67
1	4791	1806.666678346741	67
1	4793	1807.183608088958	68
1	4796	1807.461690048178	69
1	4798	1808.329944721451	70
1	4814	1812.49252994124	70
1	4815	1813.819087156234	69
1	4820	1817.047046641728	69
1	4821	1817.119530322197	69
1	4826	1818.041818439602	69
1	4833	1821.070593468562	70
1	4835	1821.767263445641	71
1	4840	1823.259057640134	71
1	4845	1825.166922171412	71
1	4849	1826.637371301509	71
1	4851	1826.839361308503	71
1	4853	1827.038313847445	72
1	4857	1828.78737575648	72
1	4859	1830.647605972788	72
1	4860	1830.999397302524	72
1	4861	1832.673474166101	71
1	4862	1832.72563660699	70
1	4864	1832.980949433625	70
1	4866	1835.180096560522	71
1	4867	1835.667992428266	71
1	4868	1838.516608497272	70
1	4870	1839.019835507447	70
1	4871	1839.614617391106	70
1	4875	1841.997483216748	70
1	4877	1843.270583091483	70
1	4879	1843.303066691574	70
1	4886	1845.146152030972	70
1	4887	1845.600452105118	69
1	4892	1847.58094772392	69
1	4893	1849.827622240143	69
1	4895	1849.877312814886	69
1	4896	1851.235935198604	69
1	4900	1852.685816311952	69
1	4911	1855.011972939051	69
1	4912	1855.344243715883	68
1	4914	1855.361330481861	68
1	4915	1856.199339645968	68
1	4916	1857.152584765345	67
1	4920	1858.051101363179	66
1	4924	1862.383088972901	65
1	4925	1862.743250964769	64
1	4926	1863.337200420458	63
1	4928	1863.440672524591	63
1	4929	1863.647270657711	63
1	4936	1865.778167981322	62
1	4938	1865.949524461633	62
1	4942	1866.690147382722	63
1	4945	1866.95612910475	64
1	4950	1868.288357836215	65
1	4952	1871.308828676687	66
1	4953	1871.483182566712	66
1	4967	1876.048704212131	66
1	4969	1876.883602664767	67
1	4970	1877.468314997252	67
1	4972	1877.966402190146	67
1	4976	1879.465773087009	68
1	4979	1880.530335692416	69
1	4980	1881.534007497031	69
1	4984	1884.856547207739	68
1	4985	1885.023408005759	67
1	4986	1885.049165202152	66
1	4987	1885.058536934153	65
1	4989	1885.626816186748	65
1	4991	1886.365405998186	66
1	4992	1886.96552723646	66
1	4993	1887.714551169864	65
1	4994	1887.774142376297	64
1	4995	1888.092224588191	63
1	4996	1889.586186649235	62
1	5004	1891.761741635233	62
1	5006	1892.222080707508	63
1	5010	1895.425965924689	63
1	5012	1896.593066130908	63
1	5017	1897.189427953506	64
1	5019	1898.245129467002	65
1	5020	1898.491047513153	65
1	5021	1901.153431576788	64
1	5022	1901.760552883148	63
1	5026	1902.058753370833	63
1	5037	1905.467578770802	63
1	5039	1905.704466330056	63
1	5046	1908.108646527963	63
1	5054	1910.193313562957	63
1	5055	1911.036069669637	63
1	5057	1911.99144765468	63
1	5058	1912.859456663887	63
1	5062	1913.169745724595	63
1	5064	1913.938477903036	64
1	5073	1917.548001054411	65
1	5074	1917.955178114358	65
1	5076	1920.42805366936	65
1	5077	1920.494850295174	65
1	5082	1921.538264310811	65
1	5086	1923.653227499608	65
1	5090	1926.052711230434	64
1	5097	1928.356617105578	63
1	5098	1929.247404742823	62
1	5099	1930.616822058126	61
1	5100	1931.524540123796	60
1	5102	1931.883659257907	60
1	5108	1932.129816539447	61
1	5112	1933.240089453454	62
1	5116	1934.746883902249	62
1	5117	1934.860530005925	61
1	5122	1935.821087602153	61
1	5126	1936.801539209352	62
1	5129	1937.877395983014	63
1	5140	1940.844399031135	64
1	5141	1940.873639260342	64
1	5142	1941.251792943318	63
1	5144	1941.78034219676	63
1	5152	1944.056495785594	64
1	5154	1944.200492928881	65
1	5155	1945.180365296835	65
1	5159	1946.023563838666	65
1	5167	1947.53883171644	66
1	5169	1947.977383422925	66
1	5170	1948.209330806976	65
1	5172	1948.592269627586	65
1	5173	1948.680844356505	65
1	5183	1954.531431925227	64
1	5185	1957.222315854522	64
1	5202	1960.765416208088	65
1	5210	1962.377265210755	66
1	5215	1965.085721296682	67
1	5217	1966.230240031188	68
1	5219	1966.904006675467	69
1	5220	1968.346985289821	69
1	5221	1968.627168862426	68
1	5225	1969.569863779232	68
1	5228	1970.368450177818	69
1	5230	1970.776534547479	70
1	5234	1972.102955361397	70
1	5236	1972.412727005375	70
1	5238	1972.424163042593	71
1	5240	1972.509583965115	72
1	5241	1973.3699503353	72
1	5242	1974.091519710593	71
1	5246	1975.257510026063	70
1	5251	1976.077967167774	70
1	5253	1976.302999531291	71
1	5263	1979.280853350346	71
1	5268	1981.426385383304	71
1	5272	1983.509830774533	71
1	5276	1983.94576634012	71
1	5282	1984.991695885974	72
1	5289	1987.05155905922	72
1	5290	1987.062887334417	71
1	5295	1988.308128063356	71
1	5296	1988.914369446421	71
1	5297	1990.635017048374	70
[...]
10	2493	961.197864508265	55.827201881391
10	2496	962.861021880616	55.741387936407
10	2517	968.229401147311	54.485838733115
10	2520	969.322507307402	54.8596009948
10	2534	974.442374563054	54.697444017983
10	2537	975.444630270899	55.349320047076
10	2538	975.466417973392	50.054441950508
10	2541	977.406880450317	51.50541358127
10	2546	979.398285701499	49.918189412444
10	2551	981.974606637333	51.621073478814
10	2557	983.783228611779	51.566245121137
10	2561	984.337225807804	50.076353434221
10	2562	984.464884639625	49.895236515203
10	2569	986.205073816232	50.464730792262
10	2580	988.641899275964	47.746442633037
10	2581	992.02361153492	49.332799081825
10	2591	995.449744394409	51.993865453329
10	2592	995.583615794037	50.996820371602
10	2595	997.31494912731	51.772030369965
10	2598	999.056580611372	51.151677055313
10	2605	1002.003987096022	51.458333992201
10	2611	1005.739206908559	48.260601827616
10	2612	1006.570659263788	48.202832934979
10	2631	1010.308710452601	48.287908191645
10	2638	1012.754425358772	48.508184934561
10	2639	1012.818703623857	48.025480377861
10	2643	1013.968633122809	46.85759626042
10	2655	1018.855928589098	51.132083255231
10	2656	1019.943327379281	51.543012213642
10	2661	1025.060235864303	54.795917496419
10	2668	1028.434450707506	56.613025852117
10	2669	1028.523261838466	53.786886948168
10	2681	1034.20869187421	55.359116541662
10	2682	1035.536986860656	56.632757404811
10	2683	1037.011015671467	56.491486081745
10	2689	1038.538007495679	55.504040275474
10	2693	1044.419544349968	60.343239060556
10	2694	1045.882658445783	60.891019287104
10	2695	1046.165442366186	59.81599322946
10	2706	1048.633330264479	60.201031117866
10	2725	1051.405107980498	57.832764749754
10	2726	1052.36301208016	55.303219862726
10	2753	1064.709156882977	57.99225475381
10	2754	1065.608809728199	58.321898827157
10	2765	1070.71719364549	62.179056184713
10	2766	1071.605149923083	61.731029044107
10	2769	1072.753323606272	62.436479178371
10	2770	1073.865897387935	63.542501282785
10	2773	1076.481643233257	63.820389467921
10	2774	1077.254515405361	63.773761542972
10	2775	1078.009349202784	62.882790698073
10	2792	1082.708290267205	62.178652170538
10	2793	1083.404182238562	58.066055853539
10	2794	1083.545708560849	52.915336561327
10	2797	1084.212492891718	52.081053099969
10	2798	1084.671194978718	52.135286696371
10	2803	1086.459107474503	53.754018956303
10	2806	1087.385430394418	53.835091483399
10	2807	1087.531863467642	49.39855157704
10	2808	1087.991360128537	49.795241102356
10	2811	1090.202839383276	47.649320760574
10	2821	1093.989377812996	46.645839961986
10	2822	1094.646276403646	46.193315075144
10	2825	1096.845072424235	48.030247656201
10	2826	1097.110707775705	48.259519117167
10	2827	1097.533234513809	48.567251319027
10	2835	1100.340402006853	50.395567780094
10	2847	1110.462797537686	57.573061978805
10	2856	1112.811872116678	52.967158506604
10	2857	1113.879781376211	53.406002348314
10	2858	1115.402044943345	54.035723489546
10	2861	1116.200891717036	53.385513368395
10	2867	1118.128280710108	52.462034769675
10	2868	1118.397012290461	52.074906354582
10	2871	1119.968881252276	53.267480253101
10	2883	1128.60629692232	56.688737656577
10	2889	1130.455298304343	51.465531200529
10	2890	1130.715712692654	50.297621807883
10	2891	1130.937979167421	50.181603320709
10	2896	1132.792814994992	51.989520278268
10	2897	1133.685144034123	52.350021887469
10	2900	1134.631489089053	50.710563651667
10	2901	1135.323640889097	49.691574940309
10	2908	1138.631355454001	52.104425108752
10	2919	1143.325569913511	52.234964513666
10	2920	1143.374518725225	51.801605563672
10	2927	1146.410588436931	53.93997273635
10	2941	1148.964917685849	50.055758850644
10	2942	1149.006932523459	48.876473193801
10	2943	1151.316190300989	50.116365113373
10	2944	1152.770392016431	48.012241848688
10	2947	1153.48095102398	48.477938463937
10	2954	1156.553768151671	49.158880359693
10	2967	1160.981635114029	49.28910942377
10	2968	1161.155515401281	48.472683799786
10	2974	1162.189222538694	45.316933763996
10	2978	1162.738219997537	43.223324794344
10	2979	1165.358148385301	44.811635089188
10	2982	1165.89504700641	43.749530591984
10	3001	1171.882446082867	45.103071519058
10	3002	1172.527169837951	43.530146761259
10	3003	1173.146261184851	43.936550157479
10	3004	1173.349982441055	42.31102197537
10	3007	1176.389949460507	43.832574899815
10	3034	1185.636650104845	46.19788454831
10	3040	1186.953623721327	43.663601405694
10	3041	1187.337284348321	42.836168623077
10	3098	1200.728636078268	46.651291746429
10	3099	1200.968274174035	45.927474584107
10	3100	1201.639163816795	45.490848490272
10	3112	1205.16364154391	47.730166567108
10	3115	1205.905552138334	47.383331821522
10	3116	1206.236039868746	47.04354777304
10	3120	1207.583064758237	46.207391045423
10	3123	1208.142873085268	46.608881225807
10	3136	1210.52735659258	44.321822318131
10	3139	1211.831662128992	45.037657037019
10	3140	1212.019030161475	44.680967925277
10	3143	1213.121320167426	45.022176507292
10	3144	1213.438360929191	45.269567598944
10	3145	1213.934385668128	44.005390091639
10	3151	1216.344844846906	44.62405056739
10	3152	1216.513357068888	41.060670726279
10	3153	1217.32448851945	40.641177584967
10	3159	1220.07261647903	39.591746406459
10	3160	1220.858947437922	39.916679666097
10	3161	1221.726828443184	38.235077805409
10	3162	1222.439444948038	36.941760819494
10	3163	1224.536558729259	38.87405365394
10	3166	1226.968174826762	40.368061891987
10	3173	1229.430100836447	41.983801786334
10	3177	1229.88164402583	39.420785842912
10	3180	1230.851086563101	38.953949778765
10	3199	1234.654104192597	39.934744499582
10	3204	1237.681783899974	42.508228796499
10	3209	1239.670165032471	44.071751070515
10	3221	1244.098372165593	45.25669154725
10	3227	1245.450558392098	45.17427919617
10	3237	1247.747665409457	43.899883018994
10	3238	1247.902668946313	43.946489625868
10	3239	1248.020423807984	43.7228057873
10	3254	1251.665291535627	43.971275429835
10	3259	1253.584660104916	45.314006187988
10	3265	1254.37153299579	44.901028998329
10	3268	1255.217587390181	45.164156285366
10	3269	1255.50400429047	45.27105728958
10	3272	1257.485367630478	46.614798916113
10	3278	1258.532258358734	43.475905268846
10	3287	1262.799371593189	43.657101388369
10	3290	1263.800280698532	37.864388087001
10	3294	1264.587915634274	34.864746988889
10	3297	1265.366754765071	34.79564459146
10	3300	1265.777057300929	34.695710997141
10	3304	1268.939222110341	36.722495913049
10	3307	1269.127424608117	36.141051355985
10	3311	1271.13343318834	34.884683245378
10	3314	1272.192577156338	32.802788437163
10	3315	1272.916715477144	33.522947151913
10	3340	1281.886351189042	37.575607422137
10	3343	1283.368944173886	38.040049967151
10	3346	1285.167966718573	39.145128909991
10	3363	1291.480706541412	43.027607086511
10	3364	1291.843618833507	42.855255293281
10	3372	1295.344742476437	45.154881348863
10	3373	1295.520830378732	45.217583813937
10	3385	1301.623819148646	48.204399487531
10	3386	1302.328482502748	48.675546276909
10	3387	1302.887465786081	49.214154970971
10	3388	1303.269414320382	48.579623685734
10	3401	1306.86931071074	49.341090220047
10	3402	1307.093277923502	48.92867555033
10	3409	1312.416377434435	50.060646141321
10	3412	1313.568236813633	50.310024774827
10	3413	1315.083422484672	50.899455514838
10	3414	1315.19781840285	50.204000462367
10	3415	1315.939220094139	50.490098268468
10	3421	1319.232760473982	50.238371948975
10	3427	1320.813216259962	49.085402195449
10	3441	1326.745643847785	52.325450077154
10	3442	1327.207312034162	52.700157410173
10	3454	1330.739630547904	50.834088070437
10	3465	1331.670293110275	48.86138347159
10	3466	1331.671526745903	48.004195264855
10	3467	1332.205808074236	46.37380997037
10	3468	1332.270832708928	45.851411511856
10	3469	1332.335994549042	45.78408896369
10	3470	1333.26139014362	46.41606628903
10	3475	1335.745329254701	43.632912606474
10	3479	1339.363906637251	44.023160101188
10	3480	1339.811367322543	44.181807951661
10	3500	1344.22550924997	47.71617045344
10	3510	1346.107495578041	45.234030539224
10	3518	1349.022372241649	44.945317935653
10	3523	1350.298616363479	45.248742088864
10	3524	1351.834158060041	45.775250358799
10	3527	1353.390561039514	44.64937279687
10	3533	1355.276890163942	42.569760904051
10	3542	1358.175586403165	38.630974259636
10	3556	1363.266547332009	40.192175766829
10	3557	1363.953060595485	37.984040688792
10	3560	1364.606443418743	38.473358776421
10	3584	1373.660161989629	42.475140229634
10	3592	1376.083685691323	44.48472058192
10	3597	1379.979721934186	46.557221717235
10	3598	1380.540869166069	45.318950900729
10	3613	1384.903438655828	44.512658288763
10	3614	1387.899434371474	46.219733185685
10	3617	1389.507336115278	46.501882040176
10	3624	1390.799206595985	46.571918473014
10	3627	1391.068271983808	43.432642031328
10	3638	1393.50210666324	44.449918139053
10	3657	1400.751236122091	46.999573090328
10	3660	1401.845910435741	48.027968842841
10	3666	1404.779733229845	48.929013013813
10	3671	1406.897249091204	49.156544909499
10	3672	1408.892719554508	50.324796236674
10	3675	1410.593581585318	50.316105603949
10	3686	1415.739762508972	54.466513394851
10	3687	1416.722026450596	52.487522213897
10	3693	1417.741614427354	48.658500976066
10	3694	1418.224035714027	48.107592500832
10	3700	1418.956363647639	47.427364438999
10	3704	1420.242219419183	47.60765239623
10	3721	1423.894974890815	48.137458283755
10	3722	1424.786790295582	47.429913737345
10	3723	1424.823489224178	47.032044057093
10	3737	1430.266304356562	47.925319056641
10	3740	1430.943159480488	47.984490171643
10	3741	1431.1106963561	46.673322788733
10	3747	1432.104649958017	47.285948308144
10	3752	1433.333892288764	45.057471701665
10	3753	1434.345709160392	44.216960289952
10	3754	1435.820110657123	45.473631519731
10	3755	1436.58565917554	45.738092536977
10	3756	1438.103192760239	46.984832690219
10	3779	1444.527426390223	50.99261606102
10	3783	1446.481622993236	49.702853492728
10	3788	1448.955922639989	51.461274555663
10	3796	1453.957500335421	55.244643023331
10	3801	1456.536236113369	57.033059810499
10	3802	1456.85858511825	57.160285271699
10	3803	1457.194617341558	55.61380447457
10	3807	1459.285774878703	54.906421442607
10	3808	1459.396649401948	53.419623359213
10	3809	1460.907965055249	54.417596616945
10	3817	1463.149954826817	51.950257096963
10	3818	1463.184997777637	48.114892969297
10	3821	1463.907513255953	48.803898549032
10	3825	1465.338576145092	47.94325697288
10	3828	1467.010534719466	49.575545749285
10	3831	1469.25985366707	50.707174457507
10	3834	1469.912057335795	51.28421247464
10	3841	1473.063519046996	53.82087221495
10	3858	1477.237834513602	54.415028896022
10	3864	1479.233127127187	55.428311317977
10	3873	1481.297399408068	53.338138185871
10	3888	1484.594684583588	55.597393159034
10	3889	1486.142519307381	55.580973440871
10	3894	1488.00805740501	56.644197581236
10	3899	1488.843684060636	57.052313367939
10	3920	1495.711969491147	57.35603483223
10	3921	1496.020789427462	56.478007603824
10	3922	1497.345203306897	56.818927455735
10	3929	1500.55519473372	59.091419168273
10	3938	1502.410160438822	57.108619465133
10	3939	1502.671169244373	54.987134298989
10	3945	1505.44803423075	54.17815971857
10	3946	1505.804240758787	53.366421921709
10	3952	1506.972414315697	50.813829281626
10	3958	1508.960976614604	51.288754770091
10	3959	1509.530660208151	47.212390121871
10	3960	1509.951592118246	47.532377126098
10	3963	1510.65513878347	47.771894078685
10	3969	1512.129251744574	47.902130177363
10	3984	1515.291051435245	45.593626337322
10	3985	1515.646870906635	44.975839123772
10	3997	1521.876448759182	49.263455217426
10	4015	1527.637214065235	53.182174642767
10	4038	1535.806381907532	58.473149824268
10	4042	1537.535108107798	57.888450302584
10	4048	1541.170125964484	60.273209790439
10	4049	1541.20887808621	59.830889970459
10	4050	1541.213121973624	58.868191882768
10	4074	1544.283240692389	61.09882314438
10	4075	1545.050510732811	61.655328555071
10	4078	1545.32891760193	59.186193972937
10	4079	1545.623672285576	58.380063023382
10	4080	1546.150892235511	57.909543472971
10	4081	1547.307099938779	58.562987183799
10	4087	1552.540577755732	63.202846221031
10	4103	1557.26938559509	64.782799426204
10	4114	1560.944802949115	66.401591097861
10	4115	1562.798787584067	64.902534129628
10	4116	1562.965969132226	64.65978409572
10	4121	1564.159102406054	65.357335459417
10	4122	1564.814176938692	63.811519072933
10	4125	1566.805742979585	65.193731078385
10	4129	1570.852739657121	67.072126860331
10	4130	1571.073268383648	65.236691205699
10	4151	1576.24673682807	66.270902871368
10	4174	1582.442366943695	69.918540914187
10	4178	1583.764869286202	70.401250551174
10	4192	1586.721572066828	66.671698181872
10	4203	1590.429924960991	69.327772290958
10	4206	1590.996003949074	67.879739769213
10	4226	1596.527272367928	70.631834121857
10	4227	1596.631181541137	70.588347676902
10	4245	1601.98030188245	72.394925457737
10	4246	1602.309855772468	69.905909898996
10	4247	1603.486048300808	69.860014438754
10	4254	1607.34675721174	72.555368753583
10	4255	1607.919142241981	72.858190972833
10	4256	1609.520530653508	73.434496422091
10	4259	1609.688466799201	71.603469618347
10	4262	1610.80674442863	70.46948509259
10	4263	1611.235018057372	69.937455264519
10	4267	1612.623569039441	71.224387791567
10	4288	1620.087729434283	76.540421358396
10	4289	1621.183234992	77.352612082867
10	4295	1624.243359323376	74.059620601912
10	4309	1629.424031606262	74.186080634043
10	4317	1632.540083851444	75.869750701601
10	4337	1639.397207081555	80.808498770479
10	4351	1644.636247151006	85.385647142441
10	4352	1644.644732955386	80.706776322085
10	4362	1646.093149370081	79.495476008585
10	4363	1648.247326705711	80.139954946322
10	4379	1653.027814843978	78.575461144609
10	4386	1655.004960428016	80.494748299391
10	4393	1657.504980059297	82.652670573999
10	4394	1658.146767251187	82.923375289485
10	4405	1662.1558068567	85.602097139168
10	4444	1671.120919416044	93.820789737569
10	4445	1671.634779098687	93.374252755475
10	4480	1684.686780096423	99.020095387179
10	4481	1685.510037105574	98.879817913103
10	4492	1691.371662427716	102.26141548698
10	4499	1693.831845140538	102.85380767324
10	4508	1697.534484648483	105.97364174816
10	4516	1699.928385309662	102.73936603992
10	4517	1700.366238611303	102.82220170431
10	4518	1700.875168126586	103.23406871638
10	4522	1702.146033626924	97.243087421739
10	4528	1704.153904748387	94.546007769871
10	4529	1704.293972937846	94.580331772974
10	4538	1708.117342489538	95.044239670015
10	4539	1708.151554990614	92.269007722357
10	4540	1708.390827270851	92.008638623508
10	4541	1708.822216770027	90.762332886973
10	4542	1709.262164393179	91.05042703247
10	4543	1711.619373330743	90.102762996552
10	4548	1712.95487914157	89.619658134786
10	4549	1713.8625801549	89.174493893286
10	4556	1715.531384944005	88.337350744942
10	4557	1715.586740365189	87.858366739299
10	4601	1727.979566502913	89.469863656625
10	4605	1728.60190520096	89.174579904602
10	4608	1730.625895279345	90.21191121475
10	4611	1731.450626875721	88.233557659686
10	4612	1732.098516820883	86.715019247474
10	4620	1737.008040959079	88.536794278187
10	4623	1739.440903763331	90.949831900895
10	4624	1739.80442840771	89.922642324592
10	4627	1742.53552880411	91.057124288222
10	4628	1742.572380967257	89.213927719533
10	4637	1745.51298446698	89.115072183498
10	4651	1749.019015683145	88.802722392625
10	4661	1750.511905369655	89.425380961388
10	4664	1750.691750254583	87.695516469536
10	4665	1751.87216366858	87.545239355228
10	4666	1753.548624910406	86.677524578614
10	4669	1756.977102791631	89.882651331797
10	4670	1758.030250408785	90.84199003421
10	4681	1759.673085615707	91.497419863081
10	4682	1760.769649269421	88.591112074064
10	4691	1765.665767000874	92.566374886908
10	4692	1766.062528678538	91.205656684618
10	4695	1768.450474008215	93.444206987298
10	4700	1772.950516646258	95.704439588852
10	4706	1774.939726054393	95.414235429416
10	4720	1779.814327819516	98.086505792004
10	4728	1783.922008058386	100.4354984438
10	4729	1784.136847895826	97.225837008525
10	4730	1784.547077787814	97.307680001656
10	4740	1788.328443451832	98.287062175148
10	4741	1788.861993929586	97.231708260167
10	4749	1794.598358266198	99.911787492698
10	4753	1797.50472809925	99.887582705892
10	4757	1798.376667625629	99.47643513867
10	4758	1799.989880496456	98.714067907699
10	4759	1800.174127421473	97.155855931632
10	4767	1802.171829592768	94.935204277527
10	4773	1803.589274261726	91.662161516905
10	4774	1804.229623320075	91.539193816005
10	4780	1805.248583234308	90.267557184361
10	4783	1805.355467122488	89.504465090784
10	4784	1805.363103745435	87.425632409714
10	4814	1812.49252994124	90.123271750768
10	4815	1813.819087156234	90.274597812641
10	4821	1817.119530322197	91.094518260049
10	4840	1823.259057640134	91.840509642162
10	4849	1826.637371301509	91.167214486705
10	4857	1828.78737575648	87.402154213597
10	4860	1830.999397302524	87.427537429301
10	4861	1832.673474166101	89.100789504206
10	4862	1832.72563660699	87.762346673761
10	4867	1835.667992428266	89.498365751127
10	4868	1838.516608497272	92.033905018305
10	4871	1839.614617391106	91.755986633087
10	4877	1843.270583091483	94.54128682668
10	4886	1845.146152030972	95.157291288337
10	4887	1845.600452105118	95.255875019574
10	4893	1849.827622240143	95.223923347203
10	4896	1851.235935198604	93.1587630412
10	4911	1855.011972939051	93.174079415505
10	4912	1855.344243715883	93.258409924101
10	4915	1856.199339645968	92.272716601801
10	4916	1857.152584765345	92.40514746537
10	4920	1858.051101363179	89.444478087665
10	4924	1862.383088972901	88.89590226524
10	4925	1862.743250964769	88.410287720421
10	4926	1863.337200420458	88.22038603286
10	4929	1863.647270657711	86.415718286292
10	4936	1865.778167981322	85.243423244407
10	4953	1871.483182566712	86.544747500894
10	4970	1877.468314997252	88.323975983642
10	4980	1881.534007497031	86.680368787898
10	4984	1884.856547207739	84.176918034809
10	4985	1885.023408005759	84.166083239281
10	4986	1885.049165202152	83.273475603875
10	4987	1885.058536934153	82.695439238957
10	4992	1886.96552723646	84.51348566128
10	4993	1887.714551169864	83.293361479931
10	4994	1887.774142376297	83.132226925409
10	4995	1888.092224588191	82.794212103918
10	4996	1889.586186649235	83.786456090827
10	5010	1895.425965924689	87.964275876511
10	5020	1898.491047513153	89.686098000736
10	5021	1901.153431576788	86.063811422171
10	5022	1901.760552883148	84.71350624142
10	5037	1905.467578770802	84.580190145212
10	5046	1908.108646527963	85.203656998637
10	5055	1911.036069669637	85.471286522475
10	5058	1912.859456663887	86.020095355384
10	5074	1917.955178114358	84.974228680733
10	5077	1920.494850295174	85.314753734652
10	5086	1923.653227499608	81.65574428286
10	5090	1926.052711230434	82.651711331371
10	5097	1928.356617105578	80.775669381658
10	5098	1929.247404742823	79.370091927937
10	5099	1930.616822058126	78.004327036453
10	5100	1931.524540123796	78.838723811844
10	5116	1934.746883902249	79.385553420388
10	5117	1934.860530005925	77.230865851978
10	5141	1940.873639260342	74.268619658982
10	5142	1941.251792943318	74.561645560596
10	5155	1945.180365296835	76.89200746062
10	5169	1947.977383422925	75.860810627435
10	5170	1948.209330806976	74.819006308968
10	5173	1948.680844356505	74.248566908076
10	5183	1954.531431925227	76.565029735081
10	5220	1968.346985289821	85.755736560234
10	5221	1968.627168862426	83.000352675678
10	5234	1972.102955361397	80.341213726164
10	5241	1973.3699503353	81.147869627792
10	5242	1974.091519710593	80.012286943198
10	5246	1975.257510026063	78.579480331534
10	5263	1979.280853350346	77.222099979513
10	5272	1983.509830774533	77.805364444477
10	5289	1987.05155905922	76.858245496263
10	5290	1987.062887334417	75.071439679737
10	5296	1988.914369446421	75.744623721826
10	5297	1990.635017048374	76.696539145338
10	5298	1992.10573500429	76.097702914213
10	5299	1992.593252719815	75.80586627406
10	5300	1992.842601925122	75.294600870711
10	5301	1993.96813595832	73.54008228896
10	5317	1998.827611230983	76.021210692618
11	5320	2000	0.4585
12	5320	2000	0.405

