file 358641 1671470905                                          
version 2
run Monotonicity_test_recover_rate-355-20221219-18:28:25-16260
attr configname Monotonicity_test_recover_rate
attr datetime 20221219-18:28:25
attr experiment Monotonicity_test_recover_rate
attr inifile omnetpp.ini
attr iterationvars $0=75
attr iterationvarsf 75-
attr measurement $0=75
attr network Network
attr processid 16260
attr repetition 55
attr replication #55
attr resultdir results
attr runnumber 355
attr seedset 55
param *.minion.arrival_mean 2
param *.minion.service_mean 1.5
param *.boss.arrival_mean 2.5
param *.boss.service_mean 0.5
param *.player.recover_rate_x 75
param **.minion.arrival_distribution 0
param **.minion.service_distribution 0
param **.boss.arrival_distribution 0
param **.boss.service_distribution 0

vector 0 Network.player minion_jobs_number_stat:vector ETV
attr source signal_minion_jobs_number
vector 1 Network.player minion_jobs_queue_number_stat:vector ETV
attr source signal_minion_jobs_queue_number
vector 2 Network.player minion_recovered_stat:vector ETV
attr source signal_minion_recovered
vector 3 Network.player minion_defeated_stat:vector ETV
attr source signal_minion_defeated
vector 4 Network.player boss_jobs_number_stat:vector ETV
attr source signal_boss_jobs_number
vector 5 Network.player boss_jobs_queue_number_stat:vector ETV
attr source signal_boss_jobs_queue_number
vector 6 Network.player boss_defeated_stat:vector ETV
attr source signal_boss_defeated
vector 7 Network.player minion_waiting_time_stat:vector ETV
attr source signal_minion_waiting_time
vector 8 Network.player boss_waiting_time_stat:vector ETV
attr source signal_boss_waiting_time
vector 9 Network.player boss_response_time_stat:vector ETV
attr source signal_boss_response_time
vector 10 Network.player minion_response_time_stat:vector ETV
attr source signal_minion_response_time
vector 11 Network.player minion_throughput:vector ETV
attr source signal_minion_throughput
vector 12 Network.player boss_throughput:vector ETV
attr source signal_boss_throughput
0	1990 26510 0 5276 0 1997.487165292425 981 0 110 48186 3454338
1	28500 50101 0 5276 0 1997.487165292425 1856 0 109 88952 6337512
2	78601 17817 0 5279 0 1999.325200065339 637 0 636 202566 85955506
3	96418 24502 0 5256 0 1993.468027122187 876 0 875 383250 223690250
4	120920 21338 0 5281 0 1999.762278159152 817 0 5 1025 1553
5	142258 42627 0 5281 0 1999.762278159152 1631 0 4 417 637
6	184885 22817 0 5277 0 1997.775876391284 815 0 814 331705 180115815
7	207702 59952 2 5277 0.893049923513 1997.775876391284 1511 0 143.23641284487 86554.933642824 7449011.5317444
8	267654 23428 4 5279 1.866519823338 1999.325200065339 815 0 4.184190601415 113.52881392387 165.50436977687
9	291082 31798 9 5277 2.711262401769 1997.775876391284 814 0.000558819209 4.738156405363 540.38224861944 755.12084287085
10	322880 35721 13 5256 3.687761505639 1993.468027122187 875 0.004661608027 144.77633010706 51170.692217765 4485876.9611476
11	358601 20 5282 5282 2000 2000 1 0.4375 0.4375 0.4375 0.19140625
12	358621 19 5282 5282 2000 2000 1 0.407 0.407 0.407 0.165649

