version 2
run Monotonicity_test_recover_rate-201-20221219-18:27:53-15483
attr configname Monotonicity_test_recover_rate
attr datetime 20221219-18:27:53
attr experiment Monotonicity_test_recover_rate
attr inifile omnetpp.ini
attr iterationvars $0=50
attr iterationvarsf 50-
attr measurement $0=50
attr network Network
attr processid 15483
attr repetition 1
attr replication #1
attr resultdir results
attr runnumber 201
attr seedset 1
param *.minion.arrival_mean 2
param *.minion.service_mean 1.5
param *.boss.arrival_mean 2.5
param *.boss.service_mean 0.5
param *.player.recover_rate_x 50
param **.minion.arrival_distribution 0
param **.minion.service_distribution 0
param **.boss.arrival_distribution 0
param **.boss.service_distribution 0

scalar Network.player boss_throughput:mean 0.4035
attr source signal_boss_throughput
scalar Network.player boss_throughput:last 0.4035
attr source signal_boss_throughput
scalar Network.player boss_defeated_stat:count 808
attr source signal_boss_defeated
scalar Network.player boss_defeated_stat:mean 403.5
attr source signal_boss_defeated
scalar Network.player boss_waiting_time_stat:mean 0.14429212192572
attr source signal_boss_waiting_time
scalar Network.player boss_response_time_stat:mean 0.64501973939384
attr source signal_boss_response_time
scalar Network.player minion_throughput:mean 0.4665
attr source signal_minion_throughput
scalar Network.player minion_throughput:last 0.4665
attr source signal_minion_throughput
scalar Network.player minion_recovered_stat:count 648
attr source signal_minion_recovered
scalar Network.player minion_recovered_stat:mean 323.5
attr source signal_minion_recovered
scalar Network.player minion_defeated_stat:count 934
attr source signal_minion_defeated
scalar Network.player minion_defeated_stat:mean 466.5
attr source signal_minion_defeated
scalar Network.player minion_waiting_time_stat:mean 46.49610557659
attr source signal_minion_waiting_time
scalar Network.player minion_response_time_stat:mean 47.834136923975
attr source signal_minion_response_time

