version 2
run Monotonicity_test_recover_rate-247-20221219-18:28:03-15714
attr configname Monotonicity_test_recover_rate
attr datetime 20221219-18:28:03
attr experiment Monotonicity_test_recover_rate
attr inifile omnetpp.ini
attr iterationvars $0=50
attr iterationvarsf 50-
attr measurement $0=50
attr network Network
attr processid 15714
attr repetition 47
attr replication #47
attr resultdir results
attr runnumber 247
attr seedset 47
param *.minion.arrival_mean 2
param *.minion.service_mean 1.5
param *.boss.arrival_mean 2.5
param *.boss.service_mean 0.5
param *.player.recover_rate_x 50
param **.minion.arrival_distribution 0
param **.minion.service_distribution 0
param **.boss.arrival_distribution 0
param **.boss.service_distribution 0

scalar Network.player boss_throughput:mean 0.418
attr source signal_boss_throughput
scalar Network.player boss_throughput:last 0.418
attr source signal_boss_throughput
scalar Network.player boss_defeated_stat:count 837
attr source signal_boss_defeated
scalar Network.player boss_defeated_stat:mean 418
attr source signal_boss_defeated
scalar Network.player boss_waiting_time_stat:mean 0.1237602730406
attr source signal_boss_waiting_time
scalar Network.player boss_response_time_stat:mean 0.59988759098914
attr source signal_boss_response_time
scalar Network.player minion_throughput:mean 0.476
attr source signal_minion_throughput
scalar Network.player minion_throughput:last 0.476
attr source signal_minion_throughput
scalar Network.player minion_recovered_stat:count 640
attr source signal_minion_recovered
scalar Network.player minion_recovered_stat:mean 319.5
attr source signal_minion_recovered
scalar Network.player minion_defeated_stat:count 953
attr source signal_minion_defeated
scalar Network.player minion_defeated_stat:mean 476
attr source signal_minion_defeated
scalar Network.player minion_waiting_time_stat:mean 32.034792569615
attr source signal_minion_waiting_time
scalar Network.player minion_response_time_stat:mean 32.532015444417
attr source signal_minion_response_time

