version 2
run Monotonicity_test_recover_rate-277-20221219-18:28:09-15866
attr configname Monotonicity_test_recover_rate
attr datetime 20221219-18:28:09
attr experiment Monotonicity_test_recover_rate
attr inifile omnetpp.ini
attr iterationvars $0=50
attr iterationvarsf 50-
attr measurement $0=50
attr network Network
attr processid 15866
attr repetition 77
attr replication #77
attr resultdir results
attr runnumber 277
attr seedset 77
param *.minion.arrival_mean 2
param *.minion.service_mean 1.5
param *.boss.arrival_mean 2.5
param *.boss.service_mean 0.5
param *.player.recover_rate_x 50
param **.minion.arrival_distribution 0
param **.minion.service_distribution 0
param **.boss.arrival_distribution 0
param **.boss.service_distribution 0

scalar Network.player boss_throughput:mean 0.3845
attr source signal_boss_throughput
scalar Network.player boss_throughput:last 0.3845
attr source signal_boss_throughput
scalar Network.player boss_defeated_stat:count 770
attr source signal_boss_defeated
scalar Network.player boss_defeated_stat:mean 384.5
attr source signal_boss_defeated
scalar Network.player boss_waiting_time_stat:mean 0.10269492760329
attr source signal_boss_waiting_time
scalar Network.player boss_response_time_stat:mean 0.61763144027052
attr source signal_boss_response_time
scalar Network.player minion_throughput:mean 0.4745
attr source signal_minion_throughput
scalar Network.player minion_throughput:last 0.4745
attr source signal_minion_throughput
scalar Network.player minion_recovered_stat:count 626
attr source signal_minion_recovered
scalar Network.player minion_recovered_stat:mean 312.5
attr source signal_minion_recovered
scalar Network.player minion_defeated_stat:count 950
attr source signal_minion_defeated
scalar Network.player minion_defeated_stat:mean 474.5
attr source signal_minion_defeated
scalar Network.player minion_waiting_time_stat:mean 56.198407694849
attr source signal_minion_waiting_time
scalar Network.player minion_response_time_stat:mean 56.904035045211
attr source signal_minion_response_time

