version 2
run Monotonicity_test_recover_rate-445-20221219-18:28:43-16714
attr configname Monotonicity_test_recover_rate
attr datetime 20221219-18:28:43
attr experiment Monotonicity_test_recover_rate
attr inifile omnetpp.ini
attr iterationvars $0=100
attr iterationvarsf 100-
attr measurement $0=100
attr network Network
attr processid 16714
attr repetition 45
attr replication #45
attr resultdir results
attr runnumber 445
attr seedset 45
param *.minion.arrival_mean 2
param *.minion.service_mean 1.5
param *.boss.arrival_mean 2.5
param *.boss.service_mean 0.5
param *.player.recover_rate_x 100
param **.minion.arrival_distribution 0
param **.minion.service_distribution 0
param **.boss.arrival_distribution 0
param **.boss.service_distribution 0

vector 0 Network.player minion_jobs_number_stat:vector ETV
attr source signal_minion_jobs_number
vector 1 Network.player minion_jobs_queue_number_stat:vector ETV
attr source signal_minion_jobs_queue_number
vector 2 Network.player minion_recovered_stat:vector ETV
attr source signal_minion_recovered
vector 3 Network.player minion_defeated_stat:vector ETV
attr source signal_minion_defeated
vector 4 Network.player boss_jobs_number_stat:vector ETV
attr source signal_boss_jobs_number
vector 5 Network.player boss_jobs_queue_number_stat:vector ETV
attr source signal_boss_jobs_queue_number
vector 6 Network.player boss_defeated_stat:vector ETV
attr source signal_boss_defeated
vector 7 Network.player minion_waiting_time_stat:vector ETV
attr source signal_minion_waiting_time
vector 8 Network.player minion_response_time_stat:vector ETV
attr source signal_minion_response_time
vector 9 Network.player boss_waiting_time_stat:vector ETV
attr source signal_boss_waiting_time
vector 10 Network.player boss_response_time_stat:vector ETV
attr source signal_boss_response_time
vector 11 Network.player minion_throughput:vector ETV
attr source signal_minion_throughput
vector 12 Network.player boss_throughput:vector ETV
attr source signal_boss_throughput
0	0	0	0
0	2	1.654377277088	1
0	13	8.168713485758	1
0	15	8.36893494439	2
0	18	8.443339095804	3
0	27	10.806601048357	2
0	33	12.696884297663	3
0	36	13.247822482702	3
0	41	16.316375777468	4
0	50	21.64257284823	1
0	55	26.373364270897	1
0	64	27.727768498092	1
0	71	29.789976959421	1
0	73	30.777258779045	2
0	75	30.851974523179	3
0	77	30.968780794737	4
0	86	36.126322777871	1
0	94	39.169036999902	2
0	101	47.343313370694	1
0	106	49.299974917887	2
0	111	50.691408955856	3
0	114	51.575031548635	3
0	116	52.599033257622	4
0	126	56.372625398339	3
0	128	56.892324950903	4
0	137	57.504633361864	4
0	146	60.311395366549	4
0	148	62.741253671853	5
0	150	63.370513302994	6
0	152	63.403883454433	7
0	154	63.646994168726	8
0	156	64.057632598088	9
0	159	65.835229608097	9
0	162	66.291335046543	9
0	164	66.710016716698	10
0	167	69.028367306823	10
0	169	69.19685511136	11
0	171	70.244289384855	12
0	175	73.3098122054	11
0	178	73.870377750918	11
0	183	76.627882569138	12
0	185	77.73905348674	13
0	187	78.086715462901	14
0	194	81.16693862477	13
0	196	81.421799511474	14
0	201	82.944991914885	15
0	208	84.919075961992	16
0	212	85.383666553153	17
0	215	86.122284581827	18
0	217	86.376000796456	19
0	227	89.55151880011	19
0	233	90.328901587709	19
0	235	91.741285468265	20
0	240	92.291923647664	20
0	243	92.786218446834	21
0	252	96.421459535403	19
0	259	98.514313477422	20
0	261	99.10281606838	21
0	271	103.935152644873	20
0	276	107.772906037906	18
0	282	113.494638304958	18
0	287	114.913348993049	19
0	292	115.721418916419	19
0	295	116.40698259257	20
0	298	118.614635974205	20
0	307	120.494270210371	20
0	309	120.616373134666	21
0	314	121.664709196682	22
0	320	123.873102083527	23
0	329	125.700701219065	24
0	332	126.01842445374	25
0	338	127.372727780633	25
0	344	130.172234805431	25
0	354	133.795986826643	23
0	359	135.148131603606	22
0	361	135.636606118867	23
0	363	136.495592590929	24
0	367	137.400868791555	23
0	369	139.045793986031	24
0	373	140.2689146146	23
0	378	141.649211720735	24
0	381	142.72394765309	24
0	383	142.725413949705	25
0	392	145.701781323251	22
0	403	151.78971295924	20
0	413	157.176722884736	21
0	418	158.525572865984	20
0	424	160.940543105762	20
0	427	162.119505979154	20
0	429	162.424568567677	21
0	433	164.956469443418	20
0	441	168.923980772334	18
0	444	171.064883783497	18
0	446	171.229722887169	19
0	449	173.103280915369	19
0	454	175.946893696664	20
0	457	177.906886239112	20
0	460	178.603836327625	20
0	463	179.006625748507	20
0	468	180.496110194909	20
0	474	181.274720408847	21
0	476	181.967773845802	22
0	478	182.390430349045	23
0	481	183.340604445337	23
0	489	187.772180276971	21
0	499	192.989945992832	20
0	507	195.394080131365	18
0	509	195.473975386551	19
0	515	196.363832858779	19
0	517	196.792032378849	20
0	522	198.694730309445	20
0	525	199.277073042964	21
0	528	200.489085888002	21
0	541	208.107390163109	14
0	545	210.115789121256	13
0	553	214.123081242267	11
0	556	215.007423894772	11
0	558	216.242603061603	12
0	571	219.0892505692	13
0	577	219.992768079785	14
0	584	221.780608201245	13
0	586	222.931251254087	14
0	599	230.277460982311	13
0	602	230.440801642553	13
0	604	230.454148600753	14
0	610	232.643489028506	15
0	612	233.066194553124	16
0	614	233.330590472506	17
0	619	234.034383222569	17
0	621	234.543384172435	18
0	629	236.206387337046	19
0	639	239.897592733298	18
0	641	240.919748791566	19
0	646	242.112089458777	20
0	649	243.660458506022	20
0	651	245.373997428661	21
0	654	245.739551434115	21
0	660	247.281253618501	21
0	662	247.629067976688	22
0	665	251.59151913185	22
0	669	252.207655532166	23
0	671	252.241885290176	24
0	673	252.679873455463	25
0	675	253.527526765178	26
0	679	255.50991284525	26
0	684	257.955930183188	24
0	686	258.866637840079	25
0	689	260.890130349869	25
0	699	264.738956499787	24
0	701	264.873528941274	25
0	707	267.637286772232	25
0	709	269.288620275126	26
0	714	271.829886633302	27
0	720	273.263884804585	27
0	722	273.391521779284	28
0	727	275.495348027996	29
0	735	279.304734140368	29
0	743	282.149680667864	30
0	746	282.716263529577	31
0	753	286.271315423348	32
0	756	289.763306771619	33
0	758	289.896220203286	34
0	760	290.035299883643	35
0	764	294.442734270398	34
0	775	298.828680426385	35
0	782	301.914880231925	34
0	784	302.407745246362	35
0	790	305.645566798122	35
0	792	307.456217862676	36
0	794	307.586490106153	37
0	800	311.499638278002	37
0	805	312.292502408614	38
0	813	316.18248687759	36
0	815	316.333744497875	37
0	820	318.003512960569	38
0	823	319.088659501585	38
0	830	320.352218510535	39
0	839	326.21668326018	40
0	841	326.847696116896	41
0	848	329.054599905467	42
0	850	329.428903218682	43
0	856	330.729838293579	44
0	858	331.94377992915	45
0	860	332.292215890754	46
0	863	334.516042309829	46
0	865	334.627846000623	47
0	868	337.498341853008	47
0	876	340.336141025618	48
0	883	343.373098540931	47
0	894	346.665775072044	48
0	903	350.798930088743	45
0	905	350.906939183255	46
0	909	353.83083201107	47
0	911	354.234940347313	48
0	914	354.795233703179	49
0	918	357.79782452805	48
0	924	360.549270454045	48
0	928	364.245344781684	47
0	932	365.561607954941	46
0	939	367.408677721996	46
0	942	367.943059741497	47
0	945	368.081152898917	48
0	951	370.438092923586	48
0	956	372.997881433181	46
0	966	378.187880151347	45
0	975	381.658305640634	45
0	977	381.903757927242	46
0	979	382.080082414299	47
0	981	382.373228252974	48
0	983	383.022705101217	49
0	986	387.144850102164	49
0	988	387.280468218389	50
0	1004	392.029184702839	49
0	1008	393.031764317865	50
0	1010	393.584741126441	51
0	1012	394.1150282776	52
0	1017	394.4669845411	53
0	1026	398.585369063047	51
0	1033	401.789037609723	47
0	1036	403.624803332511	47
0	1040	404.046426693209	48
0	1043	404.153017688763	49
0	1048	405.738670518169	50
0	1053	410.189169176859	51
0	1055	416.0725349314	52
0	1057	416.923130890643	53
0	1060	418.378747347989	53
0	1062	419.165061817794	54
0	1072	424.97932734003	53
0	1083	427.077112941822	54
0	1093	429.275762225455	55
0	1097	430.458779795385	55
0	1112	438.407311705052	52
0	1117	439.496036630748	53
0	1123	442.888999492037	53
0	1128	444.973880120409	54
0	1142	450.059437621966	55
0	1161	456.766104961166	48
0	1163	457.427000352339	49
0	1172	460.953182263655	49
0	1175	461.330532918125	49
0	1177	461.44500264337	50
0	1180	462.027844365417	50
0	1184	463.926077932166	49
0	1190	465.580781326709	49
0	1194	467.186182522107	50
0	1201	470.11492628174	50
0	1203	470.314459482563	51
0	1207	471.595675112611	52
0	1218	474.641158949458	51
0	1220	475.135628008006	52
0	1231	480.601221900671	50
0	1233	480.674483400434	51
0	1245	482.924254528898	51
0	1248	483.8022947866	51
0	1258	485.654352761953	50
0	1260	485.877614759515	51
0	1262	486.877711463633	52
0	1268	490.557587661961	52
0	1270	493.009242447348	53
0	1274	494.078528175863	52
0	1276	494.991061642421	53
0	1278	495.186953840526	54
0	1287	500.203045293466	54
0	1291	501.448362013707	55
0	1295	502.826448592321	55
0	1297	505.86123864665	56
0	1300	506.950071732217	56
0	1308	511.17059858253	54
0	1311	512.758994958366	54
0	1313	514.305608816049	55
0	1326	521.036981370433	53
0	1328	521.225672747309	54
0	1333	522.16738687816	53
0	1342	526.743971986991	50
0	1346	528.680105123099	49
0	1348	529.620387620506	50
0	1351	531.448711250168	50
0	1357	537.386871011564	47
0	1362	540.119810629884	48
0	1365	541.281300551238	48
0	1375	544.091468752132	47
0	1403	554.867846477881	45
0	1406	555.928642282926	46
0	1414	558.652806251578	46
0	1417	559.033276220774	47
0	1429	564.192643991171	47
0	1446	572.634005053262	42
0	1456	575.232131051358	40
0	1459	575.565690207644	41
0	1461	576.597373872972	42
0	1472	578.827332089011	42
0	1478	581.091159125532	43
0	1480	581.302075955996	44
0	1484	583.553473160239	43
0	1489	585.329346561962	44
0	1493	586.571170439156	43
0	1529	608.983132706176	36
0	1532	611.221767631474	37
0	1535	611.74832181317	37
0	1540	612.224791856138	38
0	1542	612.637884879736	39
0	1544	612.787555994191	40
0	1553	614.774646184048	38
0	1560	616.793340587735	36
0	1562	617.296810769227	37
0	1564	617.302956485298	38
0	1566	617.431209813014	39
0	1569	618.328168309694	39
0	1578	620.649000350353	40
0	1581	621.229475904586	41
0	1593	624.21538133511	42
0	1595	624.26721139915	43
0	1603	626.978491925688	41
0	1605	627.39105365579	42
0	1616	632.202362966803	40
0	1618	632.597980433514	41
0	1626	637.344179327803	42
0	1628	637.991323703177	43
0	1630	639.444649758138	44
0	1633	642.200822563007	44
0	1637	643.585565021895	45
0	1639	643.753334869257	46
0	1643	646.985688672451	46
0	1653	650.151739186614	47
0	1656	650.80189456254	48
0	1664	655.032937567831	48
0	1667	657.372755383991	49
0	1677	659.448702587129	50
0	1686	663.4360086668	47
0	1699	668.763881019601	44
0	1701	668.885232600566	45
0	1704	669.622397873235	45
0	1709	672.240175423556	46
0	1711	672.681297674164	47
0	1733	680.384944997307	43
0	1735	681.465228953635	44
0	1738	683.802405698807	44
0	1743	685.371546247443	45
0	1749	686.664063485594	45
0	1755	687.414059686194	45
0	1766	690.538744504085	46
0	1769	690.679546641198	46
0	1771	691.247461858038	47
0	1773	693.385470633872	48
0	1776	694.541397516057	48
0	1778	694.822566519293	49
0	1805	700.981923169549	46
0	1808	701.504907465191	46
0	1810	701.795475735063	47
0	1813	702.942781039713	47
0	1830	709.231227176511	45
0	1832	709.709639498978	46
0	1835	711.409057527975	46
0	1837	713.366023278452	47
0	1839	713.81181560953	48
0	1850	720.399501775107	46
0	1860	724.585618241628	45
0	1879	730.223014623351	41
0	1884	731.488920195362	42
0	1886	735.174322291515	43
0	1892	738.069550290602	40
0	1898	741.176041921078	40
0	1900	742.11610359041	41
0	1902	743.521304507333	42
0	1904	747.120619923089	43
0	1921	752.150162274346	44
0	1925	753.656491302226	45
0	1940	757.323264999184	46
0	1944	757.837692943432	47
0	1948	758.52764381595	48
0	1950	759.453684934706	49
0	1952	760.075807100671	50
0	1958	762.065989634737	51
0	1960	762.171269044651	52
0	1963	763.385251787911	53
0	1965	763.716509658634	54
0	1971	769.531083016469	54
0	1973	769.722718944753	55
0	1983	774.399684624175	51
0	1986	775.129688070379	51
0	1988	775.3965357833	52
0	1996	780.525268350686	50
0	2009	783.563414796391	49
0	2015	785.460034242043	49
0	2017	786.266142205012	50
0	2020	787.397756216595	50
0	2023	789.044057324611	50
0	2026	789.810002888422	50
0	2028	789.933306057333	51
0	2030	790.424574768708	52
0	2033	793.535527181091	52
0	2035	794.217415417917	53
0	2041	795.878597832621	53
0	2043	797.6514324383	54
0	2049	802.101261938021	54
0	2053	802.76535045545	53
0	2059	805.606856231799	53
0	2064	807.524827171718	54
0	2071	809.431105205385	53
0	2076	810.752378376214	53
0	2079	812.070233465398	54
0	2092	815.708727485133	52
0	2095	819.891680397267	53
0	2097	821.561591656859	54
0	2102	822.973621879522	55
0	2113	824.663473674108	55
0	2119	826.15095067225	56
0	2121	826.548409089933	57
0	2130	831.764158910813	56
0	2134	834.34390931004	56
0	2138	835.112808328842	57
0	2145	836.71736543497	56
0	2148	837.023161927787	57
0	2150	837.657411501781	58
0	2154	838.528092166202	57
0	2162	843.52414179016	55
0	2169	849.216769662543	51
0	2174	850.287746344154	51
0	2176	850.662401124361	52
0	2179	851.81970699297	53
0	2181	851.842186564839	54
0	2186	858.195922209279	52
0	2192	861.614058039879	52
0	2194	861.619809892159	53
0	2196	862.268171751701	54
0	2201	862.852664442475	55
0	2203	863.10635029251	56
0	2207	864.348148937962	55
0	2209	864.839010174809	56
0	2211	865.111702357911	57
0	2215	866.225226837608	56
0	2217	868.48655839993	57
0	2221	868.660917927338	58
0	2224	868.825564585991	59
0	2232	872.460012215001	59
0	2239	875.080059033598	59
0	2243	875.665516333559	60
0	2247	876.395294434263	60
0	2249	876.553954250137	61
0	2258	878.435556677353	61
0	2264	881.177682077972	61
0	2273	884.692930792665	62
0	2281	886.526852738324	62
0	2302	895.305802463257	58
0	2306	896.830976772499	58
0	2309	897.526412199612	58
0	2311	898.397166727737	59
0	2315	898.893818862823	60
0	2320	900.227337030376	59
0	2325	902.171782245282	59
0	2335	904.679551491209	60
0	2344	908.456549494778	61
0	2354	913.113112091064	60
0	2359	915.997768379932	61
0	2362	916.960043721166	62
0	2377	923.722040667972	53
0	2383	925.940664325033	53
0	2388	927.682183401708	54
0	2399	931.896869107621	52
0	2401	932.192388781921	53
0	2403	932.219859662402	54
0	2415	936.356967589366	54
0	2417	936.599998511364	55
0	2427	944.617469409222	54
0	2440	949.12759046458	55
0	2445	950.494234537135	54
0	2448	951.191050439794	54
0	2450	951.537662510566	55
0	2454	953.537237173669	54
0	2463	957.593679714279	54
0	2467	958.234646362388	55
0	2469	959.565478776356	56
0	2481	962.384250932762	57
0	2489	964.248996663536	55
0	2491	964.932471851775	56
0	2497	965.357915085471	57
0	2504	967.30444625453	58
0	2510	971.522847152649	58
0	2523	974.556773557373	56
0	2536	978.983725750168	55
0	2545	981.803721435191	56
0	2550	983.659618475477	57
0	2552	985.954740032796	58
0	2556	990.121810067132	59
0	2559	990.453099519804	60
0	2563	990.764794483601	61
0	2567	991.217970072661	61
0	2577	993.766114172938	59
0	2581	995.067176377514	59
0	2593	1003.188230486112	59
0	2596	1003.730783745678	59
0	2602	1005.143282186046	59
0	2604	1006.295645710489	60
0	2606	1006.345569273529	61
0	2610	1007.208299182409	62
0	2616	1010.253462325755	63
0	2618	1011.115863011678	64
0	2622	1012.53497557597	65
0	2631	1015.683421489869	65
0	2634	1016.206099651471	66
0	2643	1019.785142571722	66
0	2649	1023.683744095924	66
0	2654	1026.370651246957	67
0	2658	1026.484851161243	68
0	2660	1026.72864532293	69
0	2663	1028.315325480906	70
0	2666	1030.901997009998	70
0	2668	1031.91617211628	71
0	2670	1034.355911453837	72
0	2675	1036.658559609982	72
0	2679	1039.881405508053	72
0	2685	1041.480197519919	72
0	2687	1041.579858197879	73
0	2693	1046.240194880012	73
0	2698	1047.100982108599	74
0	2710	1054.528565330567	71
0	2712	1056.072095767658	72
0	2714	1056.169675689591	73
0	2719	1058.247249117797	74
0	2721	1058.846635094926	75
0	2724	1060.620073669567	75
0	2728	1061.732559297361	76
0	2731	1062.647802168453	77
0	2733	1063.965259591534	78
0	2735	1064.617403882382	79
0	2746	1068.146335067708	74
0	2748	1068.339585053347	75
0	2750	1068.380323393181	76
0	2752	1068.394821621544	77
0	2757	1068.990728077606	78
0	2761	1070.275650479828	79
0	2764	1071.016676823875	80
0	2768	1073.255183344461	79
0	2772	1073.45955756332	80
0	2778	1078.733645020296	78
0	2781	1080.058380930882	78
0	2783	1080.145370101978	79
0	2786	1081.096019505179	79
0	2792	1082.529367510448	79
0	2798	1084.791997292771	78
0	2801	1084.950693805447	79
0	2805	1086.604005637898	80
0	2810	1088.053999184854	79
0	2812	1089.050759221796	80
0	2814	1089.596737404022	81
0	2816	1089.713952156325	82
0	2819	1090.284771725447	82
0	2829	1097.8104391322	81
0	2833	1100.140690381255	80
0	2837	1101.177623628505	79
0	2841	1101.828838451697	80
0	2850	1106.267116632845	78
0	2854	1106.626251495537	77
0	2858	1109.416857445134	78
0	2872	1114.230092859493	78
0	2874	1114.483326308998	79
0	2880	1116.389244840186	80
0	2887	1120.615392210294	80
0	2889	1121.085780355153	81
0	2902	1127.361630502426	79
0	2909	1129.237308003701	79
0	2919	1135.223386240121	80
0	2938	1144.123707691493	79
0	2950	1147.137762581998	80
0	2955	1148.847554170522	81
0	2961	1150.951359256736	81
0	2972	1154.87950318076	79
0	2974	1155.112615280987	80
0	2982	1155.971307964753	81
0	2987	1157.190131520969	82
0	2990	1157.761471910019	82
0	2992	1158.410828738404	83
0	2999	1166.414146378706	82
0	3001	1166.428263057884	83
0	3009	1169.713242107004	84
0	3011	1169.744254096186	85
0	3018	1173.147708740665	84
0	3020	1173.651868891905	85
0	3024	1173.742524739208	86
0	3028	1174.16492728681	86
0	3038	1177.954456471466	86
0	3043	1179.535368777863	86
0	3046	1180.386332200646	86
0	3053	1183.064611474156	85
0	3058	1183.636978333765	83
0	3060	1184.149167011835	84
0	3065	1184.815377975157	85
0	3068	1186.102050570524	85
0	3074	1189.631821095765	86
0	3084	1192.039439822627	87
0	3089	1192.657831719114	88
0	3094	1194.585322262205	89
0	3100	1195.951565146972	89
0	3109	1199.855479106393	89
0	3115	1201.367274455777	88
0	3117	1201.399633585065	89
0	3121	1203.152253476123	89
0	3125	1203.82306102044	90
0	3128	1205.016656175618	91
0	3137	1207.472385289477	88
0	3140	1208.853981461447	88
0	3144	1209.254246358872	89
0	3146	1209.258474854205	90
0	3150	1211.196958925534	90
0	3152	1213.695819721448	91
0	3154	1214.129519889662	92
0	3164	1215.828646916857	93
0	3168	1216.565766526278	94
0	3182	1227.020556570108	91
0	3184	1227.489799435994	92
0	3186	1227.90009096323	93
0	3194	1232.744750048903	91
0	3216	1244.632637552448	90
0	3218	1244.64482391562	91
0	3223	1246.519577824109	92
0	3230	1249.230905146342	91
0	3234	1250.261223317535	92
0	3237	1251.455828353998	93
0	3246	1254.106766291881	93
0	3256	1258.923484542694	92
0	3261	1262.830129747795	90
0	3270	1266.475617863513	90
0	3279	1269.476458933881	90
0	3282	1270.354719445702	90
0	3286	1270.874505560519	91
0	3290	1271.620010917273	91
0	3292	1273.198632831383	92
0	3294	1275.154799378967	93
0	3301	1277.767285050986	94
0	3303	1277.861531305277	95
0	3310	1281.503098368387	95
0	3321	1288.112607134424	93
0	3323	1288.287757634587	94
0	3326	1288.403885226409	94
0	3330	1291.430192877871	93
0	3333	1293.324853213694	93
0	3335	1294.102396914716	94
0	3341	1295.506659518364	95
0	3354	1301.314469672336	90
0	3356	1302.081538526127	91
0	3362	1303.766442078671	91
0	3374	1307.771047463292	91
0	3383	1316.354641447787	85
0	3385	1317.499254961712	86
0	3387	1317.757970994081	87
0	3392	1320.44692185655	88
0	3399	1324.66121148107	87
0	3406	1327.835149411564	86
0	3408	1327.983830524277	87
0	3418	1331.504217700271	86
0	3420	1331.506922407561	87
0	3433	1336.996218522683	83
0	3438	1338.59594884059	84
0	3440	1338.925014577249	85
0	3444	1340.433744287201	86
0	3446	1340.469460975783	87
0	3458	1345.622593556399	87
0	3488	1354.627842212592	85
0	3490	1355.289908868433	86
0	3495	1357.855763211662	86
0	3499	1359.811325073646	86
0	3504	1363.549226338137	87
0	3506	1364.640494923281	88
0	3508	1365.279059748626	89
0	3510	1365.33568007985	90
0	3518	1372.330137993422	88
0	3522	1373.36959920316	89
0	3524	1374.41635328543	90
0	3527	1377.135914306264	91
0	3531	1378.283803152427	90
0	3533	1381.076539477605	91
0	3536	1381.741213078919	91
0	3538	1382.285287875242	92
0	3541	1383.271126881925	92
0	3546	1384.230386572138	92
0	3548	1384.352538025988	93
0	3551	1386.260027103014	94
0	3564	1390.642783178015	93
0	3566	1390.787611367042	94
0	3568	1391.840104079006	95
0	3573	1393.950857473149	96
0	3577	1395.094649301316	97
0	3581	1397.608012806525	97
0	3583	1397.858721733608	98
0	3590	1400.564120630042	97
0	3596	1401.446849377689	97
0	3601	1403.006679530313	98
0	3604	1405.574290692149	98
0	3610	1408.108829794231	98
0	3612	1408.267469520536	99
0	3614	1408.51788788495	100
0	3616	1408.708197254822	101
0	3618	1410.016230792807	102
0	3620	1410.223761795967	103
0	3622	1410.52185268941	104
0	3628	1411.784544519204	104
0	3631	1412.016888599684	104
0	3633	1412.787108638878	105
0	3639	1415.154468323345	105
0	3661	1422.297269339307	103
0	3667	1424.027678120212	104
0	3672	1427.29002440423	102
0	3678	1427.980455296927	103
0	3683	1428.665334409899	104
0	3687	1430.894763669936	105
0	3689	1431.197187752544	106
0	3692	1431.477006800017	106
0	3695	1434.069105606148	106
0	3698	1436.356550629615	106
0	3700	1436.844227997484	107
0	3704	1438.370275123028	108
0	3710	1441.397506567357	106
0	3712	1441.400460014638	107
0	3734	1451.674992921208	103
0	3745	1456.266603918508	101
0	3752	1456.842882238756	102
0	3763	1459.927520855738	103
0	3767	1463.552454773066	103
0	3769	1464.299105450741	104
0	3793	1475.219763707202	104
0	3796	1478.28999917219	104
0	3800	1479.475303733081	103
0	3802	1480.004004269641	104
0	3807	1481.225310262016	105
0	3817	1489.936226969406	106
0	3820	1493.401008073622	107
0	3822	1493.729787218718	108
0	3826	1495.747555908027	107
0	3828	1495.955804237512	108
0	3830	1496.656668445814	109
0	3838	1498.729311665973	109
0	3840	1499.608562586605	110
0	3848	1501.967815208698	110
0	3855	1505.060974222698	111
0	3859	1505.887701712473	110
0	3865	1511.367606709358	107
0	3875	1516.14267573769	106
0	3882	1519.31913025401	105
0	3884	1520.485738894515	106
0	3889	1522.366960008896	104
0	3895	1528.749812322657	101
0	3907	1530.57272493734	100
0	3914	1532.937292906815	100
0	3916	1533.011426663935	101
0	3918	1533.026027711929	102
0	3930	1535.26942241135	102
0	3933	1537.180672024433	102
0	3951	1545.991428423466	99
0	3962	1550.049310572731	94
0	3967	1552.465016762698	95
0	3971	1553.053039072049	96
0	3973	1553.124071822305	97
0	3986	1559.929365338796	91
0	3995	1563.642063743791	90
0	4001	1564.557902634349	91
0	4005	1565.368111615645	92
0	4019	1570.147941795891	90
0	4026	1572.39268213367	90
0	4029	1574.988442061267	90
0	4031	1575.663152785235	91
0	4039	1581.63411207962	89
0	4042	1582.397265177886	89
0	4044	1582.430187994708	90
0	4051	1586.362372042644	89
0	4059	1589.267691487878	90
0	4061	1589.379607896535	91
0	4063	1591.179066397347	92
0	4069	1593.661612164338	92
0	4075	1594.479032742027	93
0	4079	1594.901309649575	94
0	4089	1597.440396669726	95
0	4093	1597.99842768539	96
0	4103	1603.247719445253	97
0	4111	1606.790497638769	98
0	4118	1611.377142198106	96
0	4120	1611.543861326607	97
0	4123	1612.551898198155	98
0	4131	1620.992097207721	96
0	4136	1623.351643146795	96
0	4140	1623.74604652033	97
0	4144	1625.225739188769	98
0	4146	1625.518989528923	99
0	4148	1626.913331413292	100
0	4153	1627.551951010493	101
0	4162	1632.33798900736	100
0	4164	1632.638196153557	101
0	4169	1634.607273605608	102
0	4176	1636.022925896822	102
0	4178	1637.153249308799	103
0	4192	1645.429497425946	98
0	4196	1646.466235445809	99
0	4199	1647.757190900537	100
0	4206	1648.969782779763	100
0	4210	1650.40454247532	101
0	4212	1650.474715710968	102
0	4219	1652.273746597245	103
0	4223	1653.312777325443	103
0	4228	1654.791617442294	101
0	4235	1656.40679577298	100
0	4238	1657.159410111386	100
0	4240	1658.0715518697	101
0	4244	1659.61708896445	100
0	4249	1663.029217631307	98
0	4251	1663.035567060889	99
0	4253	1663.081965170384	100
0	4265	1667.518124413547	100
0	4267	1668.041667573971	101
0	4270	1668.139908473901	101
0	4276	1672.03614646986	101
0	4286	1674.646642427725	97
0	4288	1674.78673936482	98
0	4290	1674.861373546409	99
0	4295	1676.319150645144	100
0	4300	1679.233636915413	100
0	4303	1679.576430642305	101
0	4306	1681.051936991531	101
0	4308	1681.642028230585	102
0	4310	1682.105849390236	103
0	4312	1683.124416843617	104
0	4317	1684.551859459539	105
0	4320	1685.530669921168	105
0	4324	1686.106458811028	104
0	4354	1701.667090118742	95
0	4359	1704.667680406713	93
0	4364	1706.978312356116	91
0	4367	1708.107768519101	91
0	4370	1710.215038263114	91
0	4376	1711.309042761979	90
0	4378	1711.420944752886	91
0	4381	1712.09535520959	92
0	4383	1712.123763221412	93
0	4388	1714.149764190081	94
0	4390	1715.113889383638	95
0	4398	1717.386118997036	96
0	4400	1717.621146100551	97
0	4405	1721.337522813757	98
0	4407	1721.590238345474	99
0	4409	1722.343251594243	100
0	4415	1723.747768571018	100
0	4420	1725.057709564793	101
0	4422	1725.489368993279	102
0	4429	1726.463219687456	101
0	4443	1728.038257636268	99
0	4445	1728.303843359952	100
0	4447	1728.881194443147	101
0	4449	1729.737252038882	102
0	4459	1731.779101497038	100
0	4463	1732.434732018554	100
0	4465	1734.59047755416	101
0	4467	1734.670653761745	102
0	4472	1739.247368805198	103
0	4474	1739.514333634741	104
0	4479	1741.308332426699	105
0	4481	1742.702613196269	106
0	4483	1742.863374250271	107
0	4485	1743.287322332722	108
0	4487	1744.680979499417	109
0	4498	1747.632985468495	110
0	4513	1754.367380538263	110
0	4517	1755.430432335717	109
0	4519	1757.294672617168	110
0	4526	1762.913109473735	109
0	4528	1763.579359264275	110
0	4535	1766.332073271513	111
0	4539	1768.427869318256	112
0	4557	1771.954617847433	111
0	4559	1772.974484429358	112
0	4568	1774.758749322752	112
0	4570	1774.911245438312	113
0	4576	1777.031763711955	113
0	4578	1777.332513449362	114
0	4586	1779.387371670325	114
0	4589	1779.851557316645	115
0	4596	1782.817878095502	116
0	4605	1785.468129445528	114
0	4612	1788.540876140385	115
0	4615	1789.52697088663	116
0	4618	1790.854899036602	116
0	4620	1791.72345101983	117
0	4636	1794.986262803115	115
0	4639	1795.696104857997	116
0	4643	1796.637190634399	117
0	4646	1796.764768366391	118
0	4650	1798.950449133835	117
0	4652	1799.876802805451	118
0	4654	1800.978530115942	119
0	4656	1802.650250717777	120
0	4658	1803.060442520015	121
0	4660	1803.240333013311	122
0	4662	1803.698103223025	123
0	4665	1804.710076292573	123
0	4669	1806.192100712364	122
0	4671	1806.456276439355	123
0	4673	1807.312429459714	124
0	4675	1807.43345252137	125
0	4677	1807.558042662824	126
0	4685	1809.894175811012	127
0	4689	1812.855468752636	126
0	4695	1814.594458062334	126
0	4697	1815.213733237951	127
0	4700	1815.84562016897	127
0	4703	1816.737668074834	127
0	4707	1817.04054331561	128
0	4712	1817.945547157139	129
0	4716	1820.090915036803	129
0	4718	1820.590426169671	130
0	4720	1821.668253776949	131
0	4730	1822.39645667962	131
0	4740	1827.282920067053	132
0	4743	1827.610523745819	132
0	4749	1830.466028902988	132
0	4752	1830.77051566374	132
0	4754	1830.804962046368	133
0	4759	1831.932718122298	131
0	4763	1835.316645361281	130
0	4770	1839.326390879516	129
0	4775	1840.735603966489	130
0	4787	1845.669219104962	127
0	4789	1845.671306616415	128
0	4792	1849.58331835087	128
0	4800	1851.462118166317	129
0	4806	1853.029446823917	129
0	4813	1854.330817155958	127
0	4819	1858.890112460277	128
0	4824	1860.579714456842	128
0	4830	1861.842949671898	129
0	4839	1863.090863968694	130
0	4843	1866.171642313317	131
0	4845	1867.686375537235	132
0	4884	1881.261164749318	125
0	4900	1886.384578405808	125
0	4907	1888.947263076871	125
0	4911	1891.220946727804	126
0	4913	1891.554252156296	127
0	4923	1893.623100618572	128
0	4930	1895.487206507641	128
0	4933	1897.00154300312	128
0	4937	1897.627624170056	129
0	4951	1902.930165505911	128
0	4961	1906.9871031227	127
0	4966	1908.722534644539	128
0	4968	1909.402994758023	129
0	4970	1909.790666955435	130
0	4977	1912.007540629883	131
0	4979	1912.08662980253	132
0	4995	1923.481056847656	126
0	4998	1924.978481554828	126
0	5000	1925.238441894827	127
0	5002	1926.237922714701	128
0	5014	1933.254541841264	124
0	5024	1935.488812091007	124
0	5028	1938.033809321218	123
0	5030	1938.113667072412	124
0	5038	1941.194088263524	122
0	5041	1941.639273299869	122
0	5047	1943.73428886571	122
0	5057	1946.62102205256	123
0	5060	1947.407772603031	124
0	5067	1951.694604778552	123
0	5071	1952.796010595901	122
0	5073	1952.805346091141	123
0	5078	1955.272943944363	123
0	5086	1957.163246833942	122
0	5088	1958.38216791604	123
0	5091	1959.222937882889	123
0	5099	1960.686039910332	124
0	5101	1962.13986189963	125
0	5111	1963.92113180583	126
0	5113	1964.55657873995	127
0	5127	1968.053430649776	127
0	5129	1968.070465254286	128
0	5134	1968.368381085267	128
0	5141	1969.915170744493	127
0	5143	1970.231634535208	128
0	5145	1970.318424212526	129
0	5154	1975.607778317257	128
0	5159	1976.631946395913	129
0	5162	1979.277293627945	130
0	5164	1979.395005409681	131
0	5168	1980.295457907387	132
0	5180	1982.201236332658	133
0	5184	1983.381025695283	132
0	5188	1984.493140159131	131
0	5194	1986.451488540005	131
0	5205	1995.236782492169	132
0	5212	1999.530144225275	131
1	0	0	0
1	2	1.654377277088	0
1	3	2.767956257169	0
1	13	8.168713485758	0
1	15	8.36893494439	1
1	18	8.443339095804	2
1	19	8.693468361639	2
1	20	8.875177490299	1
1	27	10.806601048357	1
1	33	12.696884297663	2
1	34	12.879570534456	2
1	36	13.247822482702	2
1	41	16.316375777468	3
1	42	16.773489676859	3
1	46	18.613702104348	2
1	47	18.843638664586	1
1	48	19.619982330556	0
1	50	21.64257284823	0
1	51	21.944158222052	0
1	55	26.373364270897	0
1	57	26.403953536941	0
1	64	27.727768498092	0
1	66	28.06355559515	0
1	71	29.789976959421	0
1	73	30.777258779045	1
1	75	30.851974523179	2
1	77	30.968780794737	3
1	78	31.400558236707	3
1	79	31.977111321655	2
1	80	32.048345056944	1
1	81	32.653966985668	0
1	86	36.126322777871	0
1	94	39.169036999902	1
1	95	40.357825158699	1
1	96	42.232196189868	0
1	101	47.343313370694	0
1	106	49.299974917887	1
1	111	50.691408955856	2
1	112	51.19615637106	2
1	114	51.575031548635	2
1	116	52.599033257622	3
1	120	53.929712586765	3
1	124	55.138833182951	2
1	126	56.372625398339	2
1	128	56.892324950903	3
1	132	57.223341954912	3
1	137	57.504633361864	3
1	141	59.427725883454	3
1	146	60.311395366549	3
1	148	62.741253671853	4
1	150	63.370513302994	5
1	152	63.403883454433	6
1	154	63.646994168726	7
1	156	64.057632598088	8
1	157	64.615026384638	8
1	159	65.835229608097	8
1	160	65.89845828767	8
1	162	66.291335046543	8
1	164	66.710016716698	9
1	165	68.476703833487	9
1	167	69.028367306823	9
1	169	69.19685511136	10
1	171	70.244289384855	11
1	172	71.385512957324	11
1	173	71.798417059106	10
1	175	73.3098122054	10
1	176	73.640814055929	10
1	178	73.870377750918	10
1	183	76.627882569138	11
1	185	77.73905348674	12
1	187	78.086715462901	13
1	191	80.560541423827	13
1	192	80.64834474482	12
1	194	81.16693862477	12
1	196	81.421799511474	13
1	201	82.944991914885	14
1	208	84.919075961992	15
1	212	85.383666553153	16
1	215	86.122284581827	17
1	217	86.376000796456	18
1	219	87.359219092162	18
1	227	89.55151880011	18
1	228	89.788901144895	18
1	233	90.328901587709	18
1	235	91.741285468265	19
1	236	91.804627914862	19
1	240	92.291923647664	19
1	243	92.786218446834	20
1	244	93.095932198118	20
1	245	94.225174307737	19
1	246	94.324257118958	18
1	252	96.421459535403	18
1	259	98.514313477422	19
1	261	99.10281606838	20
1	265	100.326420162911	20
1	266	101.625986844125	19
1	271	103.935152644873	19
1	272	104.003448044102	19
1	273	104.811607428643	18
1	274	105.239225291534	17
1	276	107.772906037906	17
1	277	111.909852856682	17
1	282	113.494638304958	17
1	287	114.913348993049	18
1	288	115.027353137017	18
1	292	115.721418916419	18
1	295	116.40698259257	19
1	296	117.676215831178	19
1	298	118.614635974205	19
1	299	119.886877411397	19
1	307	120.494270210371	19
1	309	120.616373134666	20
1	314	121.664709196682	21
1	320	123.873102083527	22
1	329	125.700701219065	23
1	332	126.01842445374	24
1	336	126.672308987804	24
1	338	127.372727780633	24
1	342	129.616843179674	24
1	344	130.172234805431	24
1	345	130.301424251174	24
1	346	131.161767846631	23
1	347	131.265734427061	22
1	354	133.795986826643	22
1	356	134.653622043873	22
1	357	134.684439032469	21
1	359	135.148131603606	21
1	361	135.636606118867	22
1	363	136.495592590929	23
1	364	137.015916287671	23
1	365	137.152592881503	22
1	367	137.400868791555	22
1	369	139.045793986031	23
1	370	139.201851689685	23
1	371	139.864125870594	22
1	373	140.2689146146	22
1	378	141.649211720735	23
1	379	142.096657967878	23
1	381	142.72394765309	23
1	383	142.725413949705	24
1	387	143.184905781322	24
1	388	144.491289687615	23
1	389	144.894164944833	22
1	390	145.181517617375	21
1	392	145.701781323251	21
1	393	146.188891032828	21
1	400	149.97637402904	20
1	401	151.553910682754	19
1	403	151.78971295924	19
1	413	157.176722884736	20
1	415	158.042457238911	20
1	416	158.128796757099	19
1	418	158.525572865984	19
1	422	160.898767910741	19
1	424	160.940543105762	19
1	425	161.668075506112	19
1	427	162.119505979154	19
1	429	162.424568567677	20
1	430	163.316300677234	20
1	431	164.200729256921	19
1	433	164.956469443418	19
1	434	165.683277510045	19
1	438	167.14059237893	18
1	439	167.656359331622	17
1	441	168.923980772334	17
1	442	169.913549852149	17
1	444	171.064883783497	17
1	446	171.229722887169	18
1	447	172.289760365571	18
1	449	173.103280915369	18
1	454	175.946893696664	19
1	455	176.537860394989	19
1	457	177.906886239112	19
1	458	178.574042523285	19
1	460	178.603836327625	19
1	461	178.695092694074	19
1	463	179.006625748507	19
1	464	179.827917676385	19
1	468	180.496110194909	19
1	474	181.274720408847	20
1	476	181.967773845802	21
1	478	182.390430349045	22
1	479	183.339062585269	22
1	481	183.340604445337	22
1	482	183.709697318437	22
1	483	186.426122920442	21
1	484	186.443517337512	20
1	489	187.772180276971	20
1	496	191.818768061282	20
1	497	191.936348172519	19
1	499	192.989945992832	19
1	500	193.501937902517	19
1	501	193.842957294112	18
1	505	195.18156592925	17
1	507	195.394080131365	17
1	509	195.473975386551	18
1	513	196.226195004425	18
1	515	196.363832858779	18
1	517	196.792032378849	19
1	518	197.315271333728	19
1	522	198.694730309445	19
1	525	199.277073042964	20
1	526	200.31289780384	20
1	528	200.489085888002	20
1	529	201.649102700694	20
1	530	202.073277629023	19
1	531	202.105160239509	18
1	532	202.56721777265	17
1	533	203.262474720869	16
1	534	204.190694635541	15
1	535	205.076424584209	14
1	539	205.994045408447	13
1	541	208.107390163109	13
1	542	208.571808232974	13
1	543	209.216772511801	12
1	545	210.115789121256	12
1	549	212.538015667615	12
1	550	212.704877099937	11
1	551	212.780113723231	10
1	553	214.123081242267	10
1	554	214.164136418461	10
1	556	215.007423894772	10
1	558	216.242603061603	11
1	571	219.0892505692	12
1	577	219.992768079785	13
1	578	220.429186441318	13
1	579	220.509558012957	12
1	584	221.780608201245	12
1	586	222.931251254087	13
1	590	224.410308942546	13
1	597	226.930964705381	12
1	599	230.277460982311	12
1	600	230.302783926045	12
1	602	230.440801642553	12
1	604	230.454148600753	13
1	610	232.643489028506	14
1	612	233.066194553124	15
1	614	233.330590472506	16
1	617	234.002829369325	16
1	619	234.034383222569	16
1	621	234.543384172435	17
1	629	236.206387337046	18
1	630	236.494113439517	18
1	634	237.568937239663	17
1	639	239.897592733298	17
1	641	240.919748791566	18
1	646	242.112089458777	19
1	647	243.302780752339	19
1	649	243.660458506022	19
1	651	245.373997428661	20
1	652	245.694092609944	20
1	654	245.739551434115	20
1	655	245.967443689576	20
1	660	247.281253618501	20
1	662	247.629067976688	21
1	663	248.283046923064	21
1	665	251.59151913185	21
1	669	252.207655532166	22
1	671	252.241885290176	23
1	673	252.679873455463	24
1	675	253.527526765178	25
1	677	254.305680843286	25
1	679	255.50991284525	25
1	680	256.367278699838	25
1	681	256.528489073356	24
1	682	257.664443536666	23
1	684	257.955930183188	23
1	686	258.866637840079	24
1	687	260.28537064536	24
1	689	260.890130349869	24
1	690	261.741293789914	24
1	694	263.829236510376	23
1	699	264.738956499787	23
1	701	264.873528941274	24
1	705	267.52095162879	24
1	707	267.637286772232	24
1	709	269.288620275126	25
1	714	271.829886633302	26
1	718	272.763525820878	26
1	720	273.263884804585	26
1	722	273.391521779284	27
1	727	275.495348027996	28
1	728	276.024943399729	28
1	735	279.304734140368	28
1	743	282.149680667864	29
1	746	282.716263529577	30
1	753	286.271315423348	31
1	756	289.763306771619	32
1	758	289.896220203286	33
1	760	290.035299883643	34
1	761	293.413067413839	34
1	762	293.70445745071	33
1	764	294.442734270398	33
1	775	298.828680426385	34
1	776	299.374661175977	34
1	777	300.0000046599	33
1	782	301.914880231925	33
1	784	302.407745246362	34
1	785	303.508146988049	34
1	790	305.645566798122	34
1	792	307.456217862676	35
1	794	307.586490106153	36
1	795	307.790914659891	36
1	800	311.499638278002	36
1	805	312.292502408614	37
1	806	312.415410427453	37
1	807	313.448856577339	36
1	811	316.043858917466	35
1	813	316.18248687759	35
1	815	316.333744497875	36
1	820	318.003512960569	37
1	821	319.050266406099	37
1	823	319.088659501585	37
1	830	320.352218510535	38
1	839	326.21668326018	39
1	841	326.847696116896	40
1	848	329.054599905467	41
1	850	329.428903218682	42
1	856	330.729838293579	43
1	858	331.94377992915	44
1	860	332.292215890754	45
1	861	333.339776831012	45
1	863	334.516042309829	45
1	865	334.627846000623	46
1	866	335.007886801153	46
1	868	337.498341853008	46
1	876	340.336141025618	47
1	880	342.221248817585	47
1	881	343.051175601217	46
1	883	343.373098540931	46
1	894	346.665775072044	47
1	895	346.971657221472	47
1	899	347.857412750209	46
1	900	348.010029438188	45
1	901	349.529636381216	44
1	903	350.798930088743	44
1	905	350.906939183255	45
1	909	353.83083201107	46
1	911	354.234940347313	47
1	914	354.795233703179	48
1	915	356.588090504463	48
1	916	357.314227878551	47
1	918	357.79782452805	47
1	922	359.850557295928	47
1	924	360.549270454045	47
1	925	362.151561877253	47
1	926	363.427581255271	46
1	928	364.245344781684	46
1	929	364.608701215467	46
1	930	364.871383563746	45
1	932	365.561607954941	45
1	933	366.011832772992	45
1	939	367.408677721996	45
1	942	367.943059741497	46
1	945	368.081152898917	47
1	949	369.223490450223	47
1	951	370.438092923586	47
1	952	371.302344874563	47
1	953	371.591788895516	46
1	954	372.279229632785	45
1	956	372.997881433181	45
1	957	374.10849911423	45
1	958	375.533952543672	44
1	966	378.187880151347	44
1	970	379.705195169573	44
1	975	381.658305640634	44
1	977	381.903757927242	45
1	979	382.080082414299	46
1	981	382.373228252974	47
1	983	383.022705101217	48
1	984	385.343295977979	48
1	986	387.144850102164	48
1	988	387.280468218389	49
1	1001	391.14621501315	49
1	1002	391.192764325215	48
1	1004	392.029184702839	48
1	1008	393.031764317865	49
1	1010	393.584741126441	50
1	1012	394.1150282776	51
1	1017	394.4669845411	52
1	1022	396.357249016243	52
1	1023	396.553033212495	51
1	1024	398.298651881415	50
1	1026	398.585369063047	50
1	1027	399.183329635278	50
1	1028	399.329241861242	49
1	1029	399.542976437986	48
1	1030	400.392607910389	47
1	1031	400.842445887286	46
1	1033	401.789037609723	46
1	1034	402.233792446294	46
1	1036	403.624803332511	46
1	1040	404.046426693209	47
1	1043	404.153017688763	48
1	1048	405.738670518169	49
1	1053	410.189169176859	50
1	1055	416.0725349314	51
1	1057	416.923130890643	52
1	1058	417.730727537639	52
1	1060	418.378747347989	52
1	1062	419.165061817794	53
1	1069	421.941868428751	53
1	1070	423.728818026767	52
1	1072	424.97932734003	52
1	1083	427.077112941822	53
1	1093	429.275762225455	54
1	1095	429.735884898792	54
1	1097	430.458779795385	54
1	1098	430.533946165714	54
1	1099	430.806338733267	53
1	1100	430.81540771715	52
1	1104	433.774312757923	51
1	1112	438.407311705052	51
1	1117	439.496036630748	52
1	1118	439.499510070939	52
1	1123	442.888999492037	52
1	1128	444.973880120409	53
1	1142	450.059437621966	54
1	1143	450.437819777916	54
1	1144	450.6433930535	53
1	1145	451.22530262588	52
1	1146	451.251182101612	51
1	1147	451.307896879316	50
1	1154	453.580807121054	49
1	1155	454.634972752537	48
1	1156	454.976959433633	47
1	1161	456.766104961166	47
1	1163	457.427000352339	48
1	1167	458.848467877611	48
1	1172	460.953182263655	48
1	1173	461.284770216124	48
1	1175	461.330532918125	48
1	1177	461.44500264337	49
1	1178	461.841597014858	49
1	1180	462.027844365417	49
1	1181	462.573867299346	49
1	1182	462.727562508989	48
1	1184	463.926077932166	48
1	1188	465.323282729183	48
1	1190	465.580781326709	48
1	1194	467.186182522107	49
1	1196	468.689674108146	49
1	1201	470.11492628174	49
1	1203	470.314459482563	50
1	1207	471.595675112611	51
1	1212	473.008488403202	51
1	1213	473.619154450676	50
1	1218	474.641158949458	50
1	1220	475.135628008006	51
1	1227	478.55163671425	51
1	1228	478.985424424674	50
1	1229	480.520415427628	49
1	1231	480.601221900671	49
1	1233	480.674483400434	50
1	1237	481.200402751654	50
1	1245	482.924254528898	50
1	1246	483.227695644599	50
1	1248	483.8022947866	50
1	1249	483.963706622359	50
1	1256	485.517240528648	49
1	1258	485.654352761953	49
1	1260	485.877614759515	50
1	1262	486.877711463633	51
1	1266	489.045320062072	51
1	1268	490.557587661961	51
1	1270	493.009242447348	52
1	1271	493.169820170204	52
1	1272	493.388775646727	51
1	1274	494.078528175863	51
1	1276	494.991061642421	52
1	1278	495.186953840526	53
1	1282	499.727555840234	53
1	1287	500.203045293466	53
1	1291	501.448362013707	54
1	1293	502.645454994332	54
1	1295	502.826448592321	54
1	1297	505.86123864665	55
1	1298	506.249763984294	55
1	1300	506.950071732217	55
1	1301	507.868159457942	55
1	1302	508.459909642396	54
1	1303	510.312827600833	53
1	1308	511.17059858253	53
1	1309	512.455991432818	53
1	1311	512.758994958366	53
1	1313	514.305608816049	54
1	1314	514.552479909593	54
1	1315	516.039388398655	53
1	1316	517.084761607983	52
1	1326	521.036981370433	52
1	1328	521.225672747309	53
1	1330	521.737599032803	53
1	1331	522.053830358005	52
1	1333	522.16738687816	52
1	1334	522.185999917572	52
1	1335	522.757584090459	51
1	1339	524.2184560638	50
1	1340	524.746697161481	49
1	1342	526.743971986991	49
1	1343	528.034851870343	49
1	1344	528.205519009309	48
1	1346	528.680105123099	48
1	1348	529.620387620506	49
1	1349	531.093458444999	49
1	1351	531.448711250168	49
1	1352	531.852696420737	49
1	1353	533.246724669694	48
1	1354	536.551066803115	47
1	1355	536.70753216922	46
1	1357	537.386871011564	46
1	1362	540.119810629884	47
1	1363	540.149236928652	47
1	1365	541.281300551238	47
1	1366	541.405092472375	47
1	1367	542.06902814714	46
1	1375	544.091468752132	46
1	1379	547.208567648267	46
1	1395	553.315673430783	45
1	1396	553.703039195372	44
1	1403	554.867846477881	44
1	1406	555.928642282926	45
1	1410	557.239069594678	45
1	1414	558.652806251578	45
1	1417	559.033276220774	46
1	1421	560.723408350017	46
1	1429	564.192643991171	46
1	1430	564.309587394939	46
1	1431	564.49253485387	45
1	1432	566.970598162171	44
1	1439	569.937795627998	43
1	1443	572.234908567717	42
1	1444	572.367514124596	41
1	1446	572.634005053262	41
1	1450	574.306040894213	41
1	1451	574.449249866036	40
1	1452	574.958212453253	39
1	1456	575.232131051358	39
1	1459	575.565690207644	40
1	1461	576.597373872972	41
1	1468	578.421762056849	41
1	1472	578.827332089011	41
1	1478	581.091159125532	42
1	1480	581.302075955996	43
1	1481	581.910379655201	43
1	1482	583.37409657507	42
1	1484	583.553473160239	42
1	1489	585.329346561962	43
1	1490	585.754540089738	43
1	1491	586.336555627234	42
1	1493	586.571170439156	42
1	1494	587.362792369671	42
1	1504	593.848042235615	41
1	1505	594.418112062574	40
1	1506	596.362286909311	39
1	1510	599.892413945362	38
1	1517	603.890925092292	37
1	1518	604.410768570646	36
1	1519	605.099210376714	35
1	1529	608.983132706176	35
1	1532	611.221767631474	36
1	1533	611.370727721631	36
1	1535	611.74832181317	36
1	1540	612.224791856138	37
1	1542	612.637884879736	38
1	1544	612.787555994191	39
1	1545	612.877900213997	39
1	1546	612.999630365312	38
1	1547	613.121786176931	37
1	1553	614.774646184048	37
1	1556	616.478214148902	37
1	1557	616.693210023114	36
1	1558	616.708976673841	35
1	1560	616.793340587735	35
1	1562	617.296810769227	36
1	1564	617.302956485298	37
1	1566	617.431209813014	38
1	1567	618.028700901498	38
1	1569	618.328168309694	38
1	1578	620.649000350353	39
1	1581	621.229475904586	40
1	1593	624.21538133511	41
1	1595	624.26721139915	42
1	1596	624.28457997142	42
1	1597	624.379700589259	41
1	1601	626.166714285077	40
1	1603	626.978491925688	40
1	1605	627.39105365579	41
1	1606	628.259806580404	41
1	1607	628.745345043301	40
1	1608	629.028796708006	39
1	1616	632.202362966803	39
1	1618	632.597980433514	40
1	1626	637.344179327803	41
1	1628	637.991323703177	42
1	1630	639.444649758138	43
1	1631	642.166144703858	43
1	1633	642.200822563007	43
1	1637	643.585565021895	44
1	1639	643.753334869257	45
1	1641	644.028542725513	45
1	1643	646.985688672451	45
1	1653	650.151739186614	46
1	1656	650.80189456254	47
1	1660	652.243349435747	47
1	1664	655.032937567831	47
1	1667	657.372755383991	48
1	1677	659.448702587129	49
1	1679	659.746350335609	49
1	1680	660.138131042462	48
1	1681	661.093167615504	47
1	1682	662.221579254738	46
1	1686	663.4360086668	46
1	1691	665.289193943674	46
1	1692	665.59293031742	45
1	1696	667.973011481666	44
1	1697	668.685310175162	43
1	1699	668.763881019601	43
1	1701	668.885232600566	44
1	1702	669.389599978035	44
1	1704	669.622397873235	44
1	1709	672.240175423556	45
1	1711	672.681297674164	46
1	1712	673.172571856052	46
1	1725	676.799826987331	45
1	1729	678.834379563748	44
1	1730	679.501432020232	43
1	1731	679.619378655915	42
1	1733	680.384944997307	42
1	1735	681.465228953635	43
1	1736	682.733572911069	43
1	1738	683.802405698807	43
1	1743	685.371546247443	44
1	1744	685.54205631918	44
1	1749	686.664063485594	44
1	1750	686.800805410647	44
1	1755	687.414059686194	44
1	1766	690.538744504085	45
1	1767	690.642551224206	45
1	1769	690.679546641198	45
1	1771	691.247461858038	46
1	1773	693.385470633872	47
1	1774	694.451604099123	47
1	1776	694.541397516057	47
1	1778	694.822566519293	48
1	1785	696.671110842734	48
1	1801	699.3567513958	47
1	1802	699.439129811609	46
1	1803	700.220271414419	45
1	1805	700.981923169549	45
1	1806	701.409157804458	45
1	1808	701.504907465191	45
1	1810	701.795475735063	46
1	1811	702.545474039425	46
1	1813	702.942781039713	46
1	1817	703.301327955522	46
1	1824	707.758777905724	45
1	1828	708.752053091877	44
1	1830	709.231227176511	44
1	1832	709.709639498978	45
1	1833	710.661561221153	45
1	1835	711.409057527975	45
1	1837	713.366023278452	46
1	1839	713.81181560953	47
1	1846	718.777835081693	47
1	1847	719.443605458332	46
1	1848	720.273349122162	45
1	1850	720.399501775107	45
1	1857	724.038309363106	45
1	1858	724.557905583147	44
1	1860	724.585618241628	44
1	1861	724.661542828982	44
1	1862	725.990239189716	43
1	1866	726.761416667147	42
1	1867	727.466082622349	41
1	1868	727.72252865875	40
1	1879	730.223014623351	40
1	1884	731.488920195362	41
1	1886	735.174322291515	42
1	1887	735.591208069215	42
1	1888	735.804223624739	41
1	1889	737.065892212854	40
1	1890	737.794038278056	39
1	1892	738.069550290602	39
1	1893	738.42566439238	39
1	1898	741.176041921078	39
1	1900	742.11610359041	40
1	1902	743.521304507333	41
1	1904	747.120619923089	42
1	1921	752.150162274346	43
1	1925	753.656491302226	44
1	1940	757.323264999184	45
1	1944	757.837692943432	46
1	1948	758.52764381595	47
1	1950	759.453684934706	48
1	1952	760.075807100671	49
1	1958	762.065989634737	50
1	1960	762.171269044651	51
1	1963	763.385251787911	52
1	1965	763.716509658634	53
1	1969	767.346325222893	53
1	1971	769.531083016469	53
1	1973	769.722718944753	54
1	1974	769.999482085203	54
1	1978	771.797811357732	53
1	1979	772.276010688236	52
1	1980	773.825052695216	51
1	1981	774.089045561069	50
1	1983	774.399684624175	50
1	1984	774.575527710741	50
1	1986	775.129688070379	50
1	1988	775.3965357833	51
1	1989	776.059241500944	51
1	1990	776.390327644759	50
1	1994	779.71966938278	49
1	1996	780.525268350686	49
1	1997	781.559916103029	49
1	2007	783.2201366244	48
1	2009	783.563414796391	48
1	2010	783.634701501928	48
1	2015	785.460034242043	48
1	2017	786.266142205012	49
1	2018	786.810643676907	49
1	2020	787.397756216595	49
1	2021	788.825511996692	49
1	2023	789.044057324611	49
1	2024	789.692636995615	49
1	2026	789.810002888422	49
1	2028	789.933306057333	50
1	2030	790.424574768708	51
1	2031	792.847136109214	51
1	2033	793.535527181091	51
1	2035	794.217415417917	52
1	2039	794.988176354508	52
1	2041	795.878597832621	52
1	2043	797.6514324383	53
1	2044	797.788236948714	53
1	2049	802.101261938021	53
1	2050	802.280247762892	53
1	2051	802.652591898369	52
1	2053	802.76535045545	52
1	2057	804.758714336329	52
1	2059	805.606856231799	52
1	2064	807.524827171718	53
1	2065	807.750507884326	53
1	2066	808.136303308387	52
1	2071	809.431105205385	52
1	2072	809.802608720951	52
1	2076	810.752378376214	52
1	2079	812.070233465398	53
1	2080	812.477335660528	53
1	2084	813.691775468689	52
1	2085	814.097162747466	51
1	2092	815.708727485133	51
1	2095	819.891680397267	52
1	2097	821.561591656859	53
1	2102	822.973621879522	54
1	2103	823.403619643719	54
1	2113	824.663473674108	54
1	2119	826.15095067225	55
1	2121	826.548409089933	56
1	2122	829.536103380345	56
1	2126	830.613652813756	55
1	2130	831.764158910813	55
1	2132	832.328132647038	55
1	2134	834.34390931004	55
1	2138	835.112808328842	56
1	2140	836.51089075775	56
1	2141	836.519147260179	55
1	2145	836.71736543497	55
1	2148	837.023161927787	56
1	2150	837.657411501781	57
1	2151	837.972338789251	57
1	2152	838.407093057993	56
1	2154	838.528092166202	56
1	2155	838.728761135055	56
1	2156	838.875114114141	55
1	2157	840.720944373143	54
1	2162	843.52414179016	54
1	2163	843.624968136219	54
1	2164	844.819081095973	53
1	2165	846.788619721793	52
1	2166	847.099317219643	51
1	2167	848.799585771546	50
1	2169	849.216769662543	50
1	2170	849.690181394567	50
1	2174	850.287746344154	50
1	2176	850.662401124361	51
1	2179	851.81970699297	52
1	2181	851.842186564839	53
1	2182	854.072095855705	53
1	2183	855.359667869257	52
1	2184	858.107107030241	51
1	2186	858.195922209279	51
1	2190	861.593072678256	51
1	2192	861.614058039879	51
1	2194	861.619809892159	52
1	2196	862.268171751701	53
1	2201	862.852664442475	54
1	2203	863.10635029251	55
1	2204	864.039162035891	55
1	2205	864.134183914547	54
1	2207	864.348148937962	54
1	2209	864.839010174809	55
1	2211	865.111702357911	56
1	2212	865.32960389531	56
1	2213	865.755119499572	55
1	2215	866.225226837608	55
1	2217	868.48655839993	56
1	2221	868.660917927338	57
1	2224	868.825564585991	58
1	2225	870.300419950784	58
1	2232	872.460012215001	58
1	2237	874.982566061881	58
1	2239	875.080059033598	58
1	2243	875.665516333559	59
1	2245	875.783549856775	59
1	2247	876.395294434263	59
1	2249	876.553954250137	60
1	2250	876.85981997114	60
1	2258	878.435556677353	60
1	2259	879.073051117217	60
1	2264	881.177682077972	60
1	2273	884.692930792665	61
1	2279	886.497844510404	61
1	2281	886.526852738324	61
1	2285	887.208925575576	61
1	2286	887.736089888767	60
1	2287	888.997818273484	59
1	2294	893.752016019274	58
1	2295	893.793521086418	57
1	2302	895.305802463257	57
1	2304	896.543896095702	57
1	2306	896.830976772499	57
1	2307	897.309188673764	57
1	2309	897.526412199612	57
1	2311	898.397166727737	58
1	2315	898.893818862823	59
1	2317	899.630356721877	59
1	2318	899.79191173889	58
1	2320	900.227337030376	58
1	2321	900.490819062681	58
1	2325	902.171782245282	58
1	2335	904.679551491209	59
1	2344	908.456549494778	60
1	2346	909.886790183713	60
1	2350	912.771343069733	59
1	2354	913.113112091064	59
1	2359	915.997768379932	60
1	2362	916.960043721166	61
1	2366	917.109862850512	61
1	2367	917.420613498292	60
1	2368	918.518197159746	59
1	2369	919.279378165385	58
1	2370	920.841311335824	57
1	2371	921.18314092803	56
1	2372	921.344040522421	55
1	2373	921.915822652843	54
1	2374	922.081785956427	53
1	2375	922.388138930121	52
1	2377	923.722040667972	52
1	2378	923.921638501146	52
1	2383	925.940664325033	52
1	2388	927.682183401708	53
1	2392	929.748217814507	53
1	2396	931.006314933225	52
1	2397	931.0695400818	51
1	2399	931.896869107621	51
1	2401	932.192388781921	52
1	2403	932.219859662402	53
1	2404	933.844533918218	53
1	2415	936.356967589366	53
1	2417	936.599998511364	54
1	2421	940.483827371115	54
1	2422	941.031616726961	53
1	2427	944.617469409222	53
1	2440	949.12759046458	54
1	2442	949.395377672976	54
1	2443	950.281536752726	53
1	2445	950.494234537135	53
1	2446	950.510549424871	53
1	2448	951.191050439794	53
1	2450	951.537662510566	54
1	2451	951.796459177368	54
1	2452	951.907924106769	53
1	2454	953.537237173669	53
1	2455	954.434301012869	53
1	2463	957.593679714279	53
1	2467	958.234646362388	54
1	2469	959.565478776356	55
1	2481	962.384250932762	56
1	2482	962.658150586749	56
1	2486	964.042050180759	55
1	2487	964.082395198523	54
1	2489	964.248996663536	54
1	2491	964.932471851775	55
1	2497	965.357915085471	56
1	2504	967.30444625453	57
1	2505	967.907921281171	57
1	2510	971.522847152649	57
1	2514	972.159569493829	57
1	2518	973.693181043844	56
1	2519	973.848545369846	55
1	2523	974.556773557373	55
1	2525	974.79729589229	55
1	2529	976.887837949654	54
1	2536	978.983725750168	54
1	2545	981.803721435191	55
1	2550	983.659618475477	56
1	2552	985.954740032796	57
1	2556	990.121810067132	58
1	2559	990.453099519804	59
1	2563	990.764794483601	60
1	2565	991.15169402505	60
1	2567	991.217970072661	60
1	2568	991.307210596015	60
1	2569	992.039087968802	59
1	2570	992.305754957004	58
1	2577	993.766114172938	58
1	2579	994.817505986892	58
1	2581	995.067176377514	58
1	2588	1001.225434670494	58
1	2593	1003.188230486112	58
1	2594	1003.534916117553	58
1	2596	1003.730783745678	58
1	2600	1004.449059053829	58
1	2602	1005.143282186046	58
1	2604	1006.295645710489	59
1	2606	1006.345569273529	60
1	2610	1007.208299182409	61
1	2616	1010.253462325755	62
1	2618	1011.115863011678	63
1	2622	1012.53497557597	64
1	2624	1013.926099813324	64
1	2631	1015.683421489869	64
1	2634	1016.206099651471	65
1	2635	1016.27245426624	65
1	2643	1019.785142571722	65
1	2644	1021.28983518515	65
1	2649	1023.683744095924	65
1	2654	1026.370651246957	66
1	2658	1026.484851161243	67
1	2660	1026.72864532293	68
1	2663	1028.315325480906	69
1	2664	1030.500240249008	69
1	2666	1030.901997009998	69
1	2668	1031.91617211628	70
1	2670	1034.355911453837	71
1	2671	1034.900976029736	71
1	2675	1036.658559609982	71
1	2677	1039.081036744055	71
1	2679	1039.881405508053	71
1	2680	1039.895893130886	71
1	2685	1041.480197519919	71
1	2687	1041.579858197879	72
1	2691	1045.292623244667	72
1	2693	1046.240194880012	72
1	2698	1047.100982108599	73
1	2699	1047.155772097225	73
1	2706	1050.43186188953	72
1	2707	1050.862161362271	71
1	2708	1051.274816083801	70
1	2710	1054.528565330567	70
1	2712	1056.072095767658	71
1	2714	1056.169675689591	72
1	2719	1058.247249117797	73
1	2721	1058.846635094926	74
1	2722	1059.302575311908	74
1	2724	1060.620073669567	74
1	2728	1061.732559297361	75
1	2731	1062.647802168453	76
1	2733	1063.965259591534	77
1	2735	1064.617403882382	78
1	2739	1066.061812272538	78
1	2740	1066.413525278631	77
1	2741	1066.999898810984	76
1	2742	1067.140575759302	75
1	2743	1067.298096705604	74
1	2744	1067.411454389175	73
1	2746	1068.146335067708	73
1	2748	1068.339585053347	74
1	2750	1068.380323393181	75
1	2752	1068.394821621544	76
1	2757	1068.990728077606	77
1	2761	1070.275650479828	78
1	2764	1071.016676823875	79
1	2765	1071.478298364552	79
1	2766	1072.60590520356	78
1	2768	1073.255183344461	78
1	2772	1073.45955756332	79
1	2774	1076.912764967964	79
1	2775	1077.307381658464	78
1	2776	1078.301317316062	77
1	2778	1078.733645020296	77
1	2779	1079.450986147531	77
1	2781	1080.058380930882	77
1	2783	1080.145370101978	78
1	2784	1081.066168115197	78
1	2786	1081.096019505179	78
1	2790	1082.124100734858	78
1	2792	1082.529367510448	78
1	2793	1083.359318215137	78
1	2794	1084.491547944106	77
1	2798	1084.791997292771	77
1	2801	1084.950693805447	78
1	2805	1086.604005637898	79
1	2807	1087.730893848497	79
1	2808	1087.872245774653	78
1	2810	1088.053999184854	78
1	2812	1089.050759221796	79
1	2814	1089.596737404022	80
1	2816	1089.713952156325	81
1	2817	1090.151334747314	81
1	2819	1090.284771725447	81
1	2823	1096.429364841241	81
1	2824	1096.661631531448	80
1	2829	1097.8104391322	80
1	2830	1099.452607970914	80
1	2831	1100.103270966411	79
1	2833	1100.140690381255	79
1	2834	1100.21915569217	79
1	2835	1100.726129317196	78
1	2837	1101.177623628505	78
1	2841	1101.828838451697	79
1	2846	1104.864019361926	79
1	2847	1105.681970928433	78
1	2848	1105.802682958565	77
1	2850	1106.267116632845	77
1	2851	1106.275937383149	77
1	2852	1106.508881209277	76
1	2854	1106.626251495537	76
1	2858	1109.416857445134	77
1	2860	1111.972802220692	77
1	2872	1114.230092859493	77
1	2874	1114.483326308998	78
1	2880	1116.389244840186	79
1	2885	1118.662237099955	79
1	2887	1120.615392210294	79
1	2889	1121.085780355153	80
1	2890	1121.590657729498	80
1	2897	1125.970702271966	79
1	2898	1126.537320436994	78
1	2902	1127.361630502426	78
1	2904	1127.458972975154	78
1	2909	1129.237308003701	78
1	2919	1135.223386240121	79
1	2921	1137.966646502526	79
1	2934	1141.743757190125	78
1	2938	1144.123707691493	78
1	2950	1147.137762581998	79
1	2955	1148.847554170522	80
1	2959	1150.628329540916	80
1	2961	1150.951359256736	80
1	2965	1151.783583525148	80
1	2966	1151.862811349656	79
1	2970	1154.198606670706	78
1	2972	1154.87950318076	78
1	2974	1155.112615280987	79
1	2982	1155.971307964753	80
1	2987	1157.190131520969	81
1	2988	1157.526672923444	81
1	2990	1157.761471910019	81
1	2992	1158.410828738404	82
1	2996	1164.27355066787	82
1	2997	1166.319604445454	81
1	2999	1166.414146378706	81
1	3001	1166.428263057884	82
1	3009	1169.713242107004	83
1	3011	1169.744254096186	84
1	3015	1172.571424013813	84
1	3016	1172.968613176479	83
1	3018	1173.147708740665	83
1	3020	1173.651868891905	84
1	3024	1173.742524739208	85
1	3026	1174.068813574283	85
1	3028	1174.16492728681	85
1	3029	1175.194080663525	85
1	3038	1177.954456471466	85
1	3041	1179.408733641815	85
1	3043	1179.535368777863	85
1	3044	1180.238949299127	85
1	3046	1180.386332200646	85
1	3047	1180.388277200524	85
1	3048	1181.07162885889	84
1	3053	1183.064611474156	84
1	3054	1183.070129177049	84
1	3055	1183.097057581342	83
1	3056	1183.148484013773	82
1	3058	1183.636978333765	82
1	3060	1184.149167011835	83
1	3065	1184.815377975157	84
1	3066	1185.950820159302	84
1	3068	1186.102050570524	84
1	3074	1189.631821095765	85
1	3084	1192.039439822627	86
1	3089	1192.657831719114	87
1	3094	1194.585322262205	88
1	3095	1194.907132903852	88
1	3100	1195.951565146972	88
1	3101	1196.587124909731	88
1	3109	1199.855479106393	88
1	3110	1200.1573893191	88
1	3111	1200.994483730525	87
1	3115	1201.367274455777	87
1	3117	1201.399633585065	88
1	3119	1201.538425143261	88
1	3121	1203.152253476123	88
1	3125	1203.82306102044	89
1	3128	1205.016656175618	90
1	3129	1205.140300798265	90
1	3130	1205.330348240649	89
1	3131	1205.96018798812	88
1	3132	1206.047017598442	87
1	3137	1207.472385289477	87
1	3138	1208.356606971391	87
1	3140	1208.853981461447	87
1	3144	1209.254246358872	88
1	3146	1209.258474854205	89
1	3148	1211.005117321677	89
1	3150	1211.196958925534	89
1	3152	1213.695819721448	90
1	3154	1214.129519889662	91
1	3164	1215.828646916857	92
1	3168	1216.565766526278	93
1	3171	1217.156289711787	93
1	3178	1223.343224181226	92
1	3179	1224.519018423347	91
1	3180	1226.401269241884	90
1	3182	1227.020556570108	90
1	3184	1227.489799435994	91
1	3186	1227.90009096323	92
1	3187	1228.002226198889	92
1	3191	1231.306347274099	91
1	3192	1232.325055341105	90
1	3194	1232.744750048903	90
1	3207	1236.24650269463	90
1	3208	1241.455050080638	89
1	3216	1244.632637552448	89
1	3218	1244.64482391562	90
1	3223	1246.519577824109	91
1	3224	1247.018967855273	91
1	3228	1248.024876627806	90
1	3230	1249.230905146342	90
1	3234	1250.261223317535	91
1	3237	1251.455828353998	92
1	3241	1251.744079604547	92
1	3246	1254.106766291881	92
1	3250	1255.03348535261	92
1	3254	1258.26402144072	91
1	3256	1258.923484542694	91
1	3257	1259.256823348296	91
1	3258	1260.20265700827	90
1	3259	1262.158608921396	89
1	3261	1262.830129747795	89
1	3268	1265.9543139307	89
1	3270	1266.475617863513	89
1	3277	1269.255787917977	89
1	3279	1269.476458933881	89
1	3280	1269.804331247073	89
1	3282	1270.354719445702	89
1	3286	1270.874505560519	90
1	3288	1271.467583737856	90
1	3290	1271.620010917273	90
1	3292	1273.198632831383	91
1	3294	1275.154799378967	92
1	3301	1277.767285050986	93
1	3303	1277.861531305277	94
1	3308	1281.469515716834	94
1	3310	1281.503098368387	94
1	3314	1284.562050761882	94
1	3315	1284.999906472757	93
1	3319	1285.803286520103	92
1	3321	1288.112607134424	92
1	3323	1288.287757634587	93
1	3324	1288.387139467384	93
1	3326	1288.403885226409	93
1	3327	1289.40025865854	93
1	3328	1291.259219761915	92
1	3330	1291.430192877871	92
1	3331	1292.325639135208	92
1	3333	1293.324853213694	92
1	3335	1294.102396914716	93
1	3341	1295.506659518364	94
1	3344	1297.032383526107	94
1	3345	1298.04684251794	93
1	3346	1298.352633379815	92
1	3347	1298.454657195362	91
1	3348	1298.599014466137	90
1	3349	1299.046092526356	89
1	3354	1301.314469672336	89
1	3356	1302.081538526127	90
1	3360	1303.642459291023	90
1	3362	1303.766442078671	90
1	3372	1306.477697305661	90
1	3374	1307.771047463292	90
1	3375	1308.024014696682	90
1	3376	1308.05603891812	89
1	3377	1309.661735247673	88
1	3378	1311.940475578952	87
1	3379	1312.333364336435	86
1	3380	1312.419841229023	85
1	3381	1313.751147849612	84
1	3383	1316.354641447787	84
1	3385	1317.499254961712	85
1	3387	1317.757970994081	86
1	3392	1320.44692185655	87
1	3393	1320.721109162878	87
1	3394	1322.987814425258	86
1	3399	1324.66121148107	86
1	3403	1326.913006707908	86
1	3404	1327.270190400933	85
1	3406	1327.835149411564	85
1	3408	1327.983830524277	86
1	3415	1330.850507610823	86
1	3416	1331.499855862477	85
1	3418	1331.504217700271	85
1	3420	1331.506922407561	86
1	3421	1331.784540840879	86
1	3428	1334.844138069497	85
1	3429	1334.995759644213	84
1	3430	1335.226769948021	83
1	3431	1335.939865491495	82
1	3433	1336.996218522683	82
1	3438	1338.59594884059	83
1	3440	1338.925014577249	84
1	3444	1340.433744287201	85
1	3446	1340.469460975783	86
1	3448	1341.550351890892	86
1	3458	1345.622593556399	86
1	3460	1346.82980443783	86
1	3461	1346.894408311536	85
1	3480	1349.478744207877	84
1	3488	1354.627842212592	84
1	3490	1355.289908868433	85
1	3491	1356.528344353025	85
1	3495	1357.855763211662	85
1	3497	1359.748021829561	85
1	3499	1359.811325073646	85
1	3504	1363.549226338137	86
1	3506	1364.640494923281	87
1	3508	1365.279059748626	88
1	3510	1365.33568007985	89
1	3511	1370.482010933377	89
1	3512	1370.521530999603	88
1	3516	1371.548390686552	87
1	3518	1372.330137993422	87
1	3522	1373.36959920316	88
1	3524	1374.41635328543	89
1	3527	1377.135914306264	90
1	3528	1377.410742800269	90
1	3529	1377.420978319549	89
1	3531	1378.283803152427	89
1	3533	1381.076539477605	90
1	3534	1381.123404972814	90
1	3536	1381.741213078919	90
1	3538	1382.285287875242	91
1	3539	1383.045974063354	91
1	3541	1383.271126881925	91
1	3542	1383.508249977396	91
1	3546	1384.230386572138	91
1	3548	1384.352538025988	92
1	3551	1386.260027103014	93
1	3561	1389.871985732392	93
1	3562	1390.165565174124	92
1	3564	1390.642783178015	92
1	3566	1390.787611367042	93
1	3568	1391.840104079006	94
1	3573	1393.950857473149	95
1	3577	1395.094649301316	96
1	3579	1396.155108114575	96
1	3581	1397.608012806525	96
1	3583	1397.858721733608	97
1	3587	1399.701218458204	97
1	3588	1400.156015048952	96
1	3590	1400.564120630042	96
1	3591	1400.829679810956	96
1	3596	1401.446849377689	96
1	3601	1403.006679530313	97
1	3602	1404.649909319597	97
1	3604	1405.574290692149	97
1	3605	1405.582449461861	97
1	3610	1408.108829794231	97
1	3612	1408.267469520536	98
1	3614	1408.51788788495	99
1	3616	1408.708197254822	100
1	3618	1410.016230792807	101
1	3620	1410.223761795967	102
1	3622	1410.52185268941	103
1	3623	1410.852871878973	103
1	3628	1411.784544519204	103
1	3629	1411.87879011768	103
1	3631	1412.016888599684	103
1	3633	1412.787108638878	104
1	3637	1414.824974540734	104
1	3639	1415.154468323345	104
1	3640	1415.677069400595	104
1	3644	1415.902059588801	103
1	3651	1418.691917282171	102
1	3661	1422.297269339307	102
1	3667	1424.027678120212	103
1	3668	1424.197949633795	103
1	3669	1426.629256330327	102
1	3670	1427.03748523462	101
1	3672	1427.29002440423	101
1	3678	1427.980455296927	102
1	3683	1428.665334409899	103
1	3687	1430.894763669936	104
1	3689	1431.197187752544	105
1	3690	1431.246766375863	105
1	3692	1431.477006800017	105
1	3693	1433.229189652553	105
1	3695	1434.069105606148	105
1	3696	1436.314940715308	105
1	3698	1436.356550629615	105
1	3700	1436.844227997484	106
1	3704	1438.370275123028	107
1	3706	1439.969142606181	107
1	3707	1440.178266952939	106
1	3708	1440.995648939442	105
1	3710	1441.397506567357	105
1	3712	1441.400460014638	106
1	3722	1443.905464973508	106
1	3726	1445.682341927299	105
1	3730	1449.751820928123	104
1	3731	1449.976866624616	103
1	3732	1450.886217691067	102
1	3734	1451.674992921208	102
1	3738	1452.416507806361	102
1	3739	1452.497831298105	101
1	3740	1454.874840444969	100
1	3745	1456.266603918508	100
1	3752	1456.842882238756	101
1	3763	1459.927520855738	102
1	3765	1461.367180727529	102
1	3767	1463.552454773066	102
1	3769	1464.299105450741	103
1	3776	1468.913705568938	103
1	3793	1475.219763707202	103
1	3794	1476.531331877379	103
1	3796	1478.28999917219	103
1	3797	1478.641130802317	103
1	3798	1479.445340672085	102
1	3800	1479.475303733081	102
1	3802	1480.004004269641	103
1	3807	1481.225310262016	104
1	3817	1489.936226969406	105
1	3820	1493.401008073622	106
1	3822	1493.729787218718	107
1	3823	1494.87392078042	107
1	3824	1495.197793229649	106
1	3826	1495.747555908027	106
1	3828	1495.955804237512	107
1	3830	1496.656668445814	108
1	3831	1497.516971275168	108
1	3838	1498.729311665973	108
1	3840	1499.608562586605	109
1	3842	1500.569140944484	109
1	3848	1501.967815208698	109
1	3855	1505.060974222698	110
1	3856	1505.259497333451	110
1	3857	1505.843511010516	109
1	3859	1505.887701712473	109
1	3860	1505.966566362367	109
1	3861	1506.678807695939	108
1	3862	1507.362346949027	107
1	3863	1510.435494771905	106
1	3865	1511.367606709358	106
1	3866	1512.528172045563	106
1	3873	1516.112416191173	105
1	3875	1516.14267573769	105
1	3879	1517.757646242253	105
1	3880	1517.942223930698	104
1	3882	1519.31913025401	104
1	3884	1520.485738894515	105
1	3885	1520.728657962759	105
1	3886	1521.540039034549	104
1	3887	1521.968234571921	103
1	3889	1522.366960008896	103
1	3890	1525.377195529274	103
1	3891	1526.672869256199	102
1	3892	1528.061660404949	101
1	3893	1528.379692461196	100
1	3895	1528.749812322657	100
1	3896	1528.942433438263	100
1	3897	1529.518727937009	99
1	3907	1530.57272493734	99
1	3912	1532.398276302132	99
1	3914	1532.937292906815	99
1	3916	1533.011426663935	100
1	3918	1533.026027711929	101
1	3928	1534.515265438987	101
1	3930	1535.26942241135	101
1	3931	1536.720171683633	101
1	3933	1537.180672024433	101
1	3937	1539.20622539804	101
1	3941	1540.232204195365	100
1	3945	1542.347411966291	99
1	3946	1543.618413675059	98
1	3951	1545.991428423466	98
1	3952	1546.707786294781	98
1	3953	1547.055399504063	97
1	3954	1547.679577179287	96
1	3958	1548.860694157234	95
1	3959	1549.094470904343	94
1	3960	1549.410179047689	93
1	3962	1550.049310572731	93
1	3967	1552.465016762698	94
1	3971	1553.053039072049	95
1	3973	1553.124071822305	96
1	3975	1553.936275696834	96
1	3979	1555.885703018941	95
1	3980	1557.085289813243	94
1	3981	1557.297049325889	93
1	3982	1557.603166187099	92
1	3983	1557.713169387002	91
1	3984	1557.911489944847	90
1	3986	1559.929365338796	90
1	3987	1560.671779851844	90
1	3988	1562.047369174251	89
1	3995	1563.642063743791	89
1	4001	1564.557902634349	90
1	4005	1565.368111615645	91
1	4013	1567.463697107556	91
1	4014	1568.682553145372	90
1	4015	1569.091603533368	89
1	4019	1570.147941795891	89
1	4024	1571.288353489024	89
1	4026	1572.39268213367	89
1	4027	1572.846351240523	89
1	4029	1574.988442061267	89
1	4031	1575.663152785235	90
1	4032	1576.531162457818	90
1	4033	1577.106789474318	89
1	4037	1581.444804056784	88
1	4039	1581.63411207962	88
1	4040	1582.323695336143	88
1	4042	1582.397265177886	88
1	4044	1582.430187994708	89
1	4048	1584.754033925312	89
1	4049	1586.130780326552	88
1	4051	1586.362372042644	88
1	4059	1589.267691487878	89
1	4061	1589.379607896535	90
1	4063	1591.179066397347	91
1	4064	1591.278681703213	91
1	4069	1593.661612164338	91
1	4075	1594.479032742027	92
1	4079	1594.901309649575	93
1	4089	1597.440396669726	94
1	4093	1597.99842768539	95
1	4103	1603.247719445253	96
1	4111	1606.790497638769	97
1	4112	1607.122672859082	97
1	4113	1608.224346424481	96
1	4114	1609.602498961821	95
1	4118	1611.377142198106	95
1	4120	1611.543861326607	96
1	4123	1612.551898198155	97
1	4124	1613.972447957325	97
1	4125	1617.808959757406	96
1	4126	1618.049646648343	95
1	4131	1620.992097207721	95
1	4132	1621.408674841172	95
1	4136	1623.351643146795	95
1	4140	1623.74604652033	96
1	4144	1625.225739188769	97
1	4146	1625.518989528923	98
1	4148	1626.913331413292	99
1	4153	1627.551951010493	100
1	4157	1630.646898489191	100
1	4158	1631.594383004292	99
1	4162	1632.33798900736	99
1	4164	1632.638196153557	100
1	4169	1634.607273605608	101
1	4174	1635.993397746969	101
1	4176	1636.022925896822	101
1	4178	1637.153249308799	102
1	4179	1637.976382067679	102
1	4183	1639.246790609287	101
1	4184	1639.294008023891	100
1	4185	1641.643945885366	99
1	4186	1643.223996908975	98
1	4187	1643.480902861372	97
1	4192	1645.429497425946	97
1	4196	1646.466235445809	98
1	4199	1647.757190900537	99
1	4200	1648.384767808275	99
1	4206	1648.969782779763	99
1	4210	1650.40454247532	100
1	4212	1650.474715710968	101
1	4219	1652.273746597245	102
1	4221	1652.857795844858	102
1	4223	1653.312777325443	102
1	4224	1653.775706538861	102
1	4225	1653.987642226253	101
1	4226	1654.636548491979	100
1	4228	1654.791617442294	100
1	4232	1655.934270381782	100
1	4233	1656.195848380092	99
1	4235	1656.40679577298	99
1	4236	1656.428363772205	99
1	4238	1657.159410111386	99
1	4240	1658.0715518697	100
1	4241	1659.296708871208	100
1	4242	1659.49237615509	99
1	4244	1659.61708896445	99
1	4245	1660.006869208775	99
1	4246	1660.597001393749	98
1	4247	1661.927243286976	97
1	4249	1663.029217631307	97
1	4251	1663.035567060889	98
1	4253	1663.081965170384	99
1	4254	1663.960984687723	99
1	4265	1667.518124413547	99
1	4267	1668.041667573971	100
1	4268	1668.088715696916	100
1	4270	1668.139908473901	100
1	4271	1671.033236054467	100
1	4276	1672.03614646986	100
1	4277	1672.748670140646	100
1	4278	1672.830680874435	99
1	4279	1673.190338175422	98
1	4283	1674.187404835736	97
1	4284	1674.362939878176	96
1	4286	1674.646642427725	96
1	4288	1674.78673936482	97
1	4290	1674.861373546409	98
1	4295	1676.319150645144	99
1	4296	1677.581965971474	99
1	4300	1679.233636915413	99
1	4303	1679.576430642305	100
1	4304	1680.024989717514	100
1	4306	1681.051936991531	100
1	4308	1681.642028230585	101
1	4310	1682.105849390236	102
1	4312	1683.124416843617	103
1	4317	1684.551859459539	104
1	4318	1684.978211975844	104
1	4320	1685.530669921168	104
1	4321	1685.986116540633	104
1	4322	1686.062747619291	103
1	4324	1686.106458811028	103
1	4325	1686.727047008435	103
1	4326	1688.343287451116	102
1	4327	1689.640512961911	101
1	4331	1690.750644134252	100
1	4332	1691.431628144555	99
1	4333	1693.680466233428	98
1	4334	1693.881116071131	97
1	4338	1695.615955525589	96
1	4342	1698.1361455938	95
1	4343	1698.689956608855	94
1	4354	1701.667090118742	94
1	4355	1702.400371506237	94
1	4356	1702.506332822506	93
1	4357	1703.120651942923	92
1	4359	1704.667680406713	92
1	4360	1704.890715222493	92
1	4361	1706.174286321483	91
1	4362	1706.75105678676	90
1	4364	1706.978312356116	90
1	4365	1707.601919888004	90
1	4367	1708.107768519101	90
1	4368	1708.978787865786	90
1	4370	1710.215038263114	90
1	4371	1710.633544981113	90
1	4372	1710.698913088583	89
1	4376	1711.309042761979	89
1	4378	1711.420944752886	90
1	4381	1712.09535520959	91
1	4383	1712.123763221412	92
1	4388	1714.149764190081	93
1	4390	1715.113889383638	94
1	4398	1717.386118997036	95
1	4400	1717.621146100551	96
1	4405	1721.337522813757	97
1	4407	1721.590238345474	98
1	4409	1722.343251594243	99
1	4413	1723.008366567287	99
1	4415	1723.747768571018	99
1	4420	1725.057709564793	100
1	4422	1725.489368993279	101
1	4423	1725.597132464822	101
1	4424	1725.815589252926	100
1	4429	1726.463219687456	100
1	4439	1727.911865444756	100
1	4440	1727.920282982635	99
1	4441	1727.996856751506	98
1	4443	1728.038257636268	98
1	4445	1728.303843359952	99
1	4447	1728.881194443147	100
1	4449	1729.737252038882	101
1	4453	1730.605445676294	101
1	4454	1730.652660829659	100
1	4455	1731.054912305745	99
1	4459	1731.779101497038	99
1	4461	1732.396144159138	99
1	4463	1732.434732018554	99
1	4465	1734.59047755416	100
1	4467	1734.670653761745	101
1	4472	1739.247368805198	102
1	4474	1739.514333634741	103
1	4479	1741.308332426699	104
1	4481	1742.702613196269	105
1	4483	1742.863374250271	106
1	4485	1743.287322332722	107
1	4487	1744.680979499417	108
1	4498	1747.632985468495	109
1	4511	1753.667660922444	109
1	4513	1754.367380538263	109
1	4514	1754.760725018851	109
1	4515	1755.085004042228	108
1	4517	1755.430432335717	108
1	4519	1757.294672617168	109
1	4520	1757.323537705583	109
1	4521	1760.150816186538	108
1	4526	1762.913109473735	108
1	4528	1763.579359264275	109
1	4535	1766.332073271513	110
1	4539	1768.427869318256	111
1	4554	1771.344861105579	111
1	4555	1771.838711649783	110
1	4557	1771.954617847433	110
1	4559	1772.974484429358	111
1	4563	1773.685923774712	111
1	4568	1774.758749322752	111
1	4570	1774.911245438312	112
1	4574	1774.999412468246	112
1	4576	1777.031763711955	112
1	4578	1777.332513449362	113
1	4582	1778.069391651357	113
1	4586	1779.387371670325	113
1	4589	1779.851557316645	114
1	4596	1782.817878095502	115
1	4598	1783.52193044262	115
1	4599	1783.994036768236	114
1	4600	1784.073685784176	113
1	4605	1785.468129445528	113
1	4612	1788.540876140385	114
1	4615	1789.52697088663	115
1	4616	1790.406297937317	115
1	4618	1790.854899036602	115
1	4620	1791.72345101983	116
1	4621	1792.240439607612	116
1	4622	1792.478535730643	115
1	4623	1792.796697319784	114
1	4636	1794.986262803115	114
1	4639	1795.696104857997	115
1	4643	1796.637190634399	116
1	4646	1796.764768366391	117
1	4647	1797.605308644643	117
1	4648	1798.538823309573	116
1	4650	1798.950449133835	116
1	4652	1799.876802805451	117
1	4654	1800.978530115942	118
1	4656	1802.650250717777	119
1	4658	1803.060442520015	120
1	4660	1803.240333013311	121
1	4662	1803.698103223025	122
1	4663	1804.525060700685	122
1	4665	1804.710076292573	122
1	4666	1805.010968592351	122
1	4667	1805.762570997747	121
1	4669	1806.192100712364	121
1	4671	1806.456276439355	122
1	4673	1807.312429459714	123
1	4675	1807.43345252137	124
1	4677	1807.558042662824	125
1	4685	1809.894175811012	126
1	4686	1810.501020273025	126
1	4687	1811.684962695322	125
1	4689	1812.855468752636	125
1	4690	1813.411078738073	125
1	4695	1814.594458062334	125
1	4697	1815.213733237951	126
1	4698	1815.633967231224	126
1	4700	1815.84562016897	126
1	4701	1815.990703885087	126
1	4703	1816.737668074834	126
1	4707	1817.04054331561	127
1	4712	1817.945547157139	128
1	4714	1819.900823604791	128
1	4716	1820.090915036803	128
1	4718	1820.590426169671	129
1	4720	1821.668253776949	130
1	4721	1821.848589543661	130
1	4730	1822.39645667962	130
1	4740	1827.282920067053	131
1	4741	1827.525695967992	131
1	4743	1827.610523745819	131
1	4744	1829.46111017156	131
1	4749	1830.466028902988	131
1	4750	1830.73884481769	131
1	4752	1830.77051566374	131
1	4754	1830.804962046368	132
1	4755	1830.965865595221	132
1	4756	1831.249252831168	131
1	4757	1831.398559588529	130
1	4759	1831.932718122298	130
1	4760	1832.921619491919	130
1	4761	1833.822241728676	129
1	4763	1835.316645361281	129
1	4764	1835.42894600269	129
1	4765	1835.895779961294	128
1	4770	1839.326390879516	128
1	4775	1840.735603966489	129
1	4776	1840.971489110627	129
1	4777	1841.412080152493	128
1	4781	1844.285341028038	127
1	4782	1844.471183499204	126
1	4787	1845.669219104962	126
1	4789	1845.671306616415	127
1	4790	1848.555780245438	127
1	4792	1849.58331835087	127
1	4800	1851.462118166317	128
1	4804	1852.998565029472	128
1	4806	1853.029446823917	128
1	4807	1853.43618634547	128
1	4808	1854.048112764891	127
1	4809	1854.181259004397	126
1	4813	1854.330817155958	126
1	4819	1858.890112460277	127
1	4820	1859.26159659099	127
1	4824	1860.579714456842	127
1	4830	1861.842949671898	128
1	4839	1863.090863968694	129
1	4843	1866.171642313317	130
1	4845	1867.686375537235	131
1	4846	1868.260492542297	131
1	4847	1869.810562233217	130
1	4854	1871.363705713915	129
1	4855	1872.708230764912	128
1	4859	1873.475301738572	127
1	4860	1875.298780928183	126
1	4861	1875.392862877883	125
1	4865	1877.07241628583	124
1	4884	1881.261164749318	124
1	4895	1884.843455639905	124
1	4900	1886.384578405808	124
1	4901	1888.274191782963	124
1	4907	1888.947263076871	124
1	4911	1891.220946727804	125
1	4913	1891.554252156296	126
1	4923	1893.623100618572	127
1	4928	1894.854772057589	127
1	4930	1895.487206507641	127
1	4931	1896.0567588259	127
1	4933	1897.00154300312	127
1	4937	1897.627624170056	128
1	4939	1897.916760823299	128
1	4949	1902.290382236304	127
1	4951	1902.930165505911	127
1	4958	1904.422601396849	127
1	4959	1904.837478735703	126
1	4961	1906.9871031227	126
1	4966	1908.722534644539	127
1	4968	1909.402994758023	128
1	4970	1909.790666955435	129
1	4977	1912.007540629883	130
1	4979	1912.08662980253	131
1	4987	1915.875888322146	131
1	4988	1917.910279372961	130
1	4989	1918.074513250026	129
1	4990	1919.196515389015	128
1	4991	1921.623324938741	127
1	4992	1921.996882442281	126
1	4993	1923.328379270492	125
1	4995	1923.481056847656	125
1	4996	1924.463909696931	125
1	4998	1924.978481554828	125
1	5000	1925.238441894827	126
1	5002	1926.237922714701	127
1	5003	1926.343979210088	127
1	5007	1927.034908098583	126
1	5008	1930.47846287802	125
1	5009	1932.738508022879	124
1	5010	1932.893155433351	123
1	5014	1933.254541841264	123
1	5019	1934.492723029969	123
1	5024	1935.488812091007	123
1	5025	1936.945298838823	123
1	5026	1937.686823106652	122
1	5028	1938.033809321218	122
1	5030	1938.113667072412	123
1	5034	1940.059851417154	123
1	5035	1940.572265792382	122
1	5036	1940.898249960478	121
1	5038	1941.194088263524	121
1	5039	1941.328728787774	121
1	5041	1941.639273299869	121
1	5042	1942.033524715634	121
1	5047	1943.73428886571	121
1	5057	1946.62102205256	122
1	5060	1947.407772603031	123
1	5061	1948.287276814841	123
1	5062	1949.168186752944	122
1	5067	1951.694604778552	122
1	5068	1952.364815772645	122
1	5069	1952.512896855831	121
1	5071	1952.796010595901	121
1	5073	1952.805346091141	122
1	5074	1954.35466508937	122
1	5078	1955.272943944363	122
1	5083	1956.63060969325	122
1	5084	1956.965956398925	121
1	5086	1957.163246833942	121
1	5088	1958.38216791604	122
1	5089	1958.774703753879	122
1	5091	1959.222937882889	122
1	5099	1960.686039910332	123
1	5101	1962.13986189963	124
1	5111	1963.92113180583	125
1	5113	1964.55657873995	126
1	5115	1966.784976272179	126
1	5127	1968.053430649776	126
1	5129	1968.070465254286	127
1	5132	1968.331858232611	127
1	5134	1968.368381085267	127
1	5135	1968.406454830745	127
1	5139	1969.556253525577	126
1	5141	1969.915170744493	126
1	5143	1970.231634535208	127
1	5145	1970.318424212526	128
1	5149	1974.221806724179	128
1	5150	1975.051268906528	127
1	5154	1975.607778317257	127
1	5159	1976.631946395913	128
1	5162	1979.277293627945	129
1	5164	1979.395005409681	130
1	5168	1980.295457907387	131
1	5180	1982.201236332658	132
1	5181	1982.518558655466	132
1	5182	1983.328518267861	131
1	5184	1983.381025695283	131
1	5185	1983.610268344344	131
1	5186	1984.206818673358	130
1	5188	1984.493140159131	130
1	5192	1986.410045472041	130
1	5194	1986.451488540005	130
1	5205	1995.236782492169	131
1	5206	1995.655572272818	131
1	5210	1998.758909995318	130
1	5212	1999.530144225275	130
1	5213	1999.648891744786	130
2	0	0	0
2	22	9.805096620824	1
2	25	10.124484963969	2
2	30	11.537124295745	3
2	38	15.410083560993	4
2	44	16.833130283983	5
2	88	36.404832326959	6
2	91	37.939818407674	7
2	103	49.143445629596	8
2	108	49.337903926531	9
2	118	53.143001317794	10
2	122	54.567547701613	11
2	130	57.069497151655	12
2	134	57.353285711877	13
2	139	57.692798572141	14
2	143	60.078585596555	15
2	180	75.091356446874	16
2	189	79.009601900969	17
2	198	81.474046650778	18
2	203	83.889290248857	19
2	206	84.007041305175	20
2	221	87.771657094562	21
2	224	89.037571327206	22
2	230	90.061506911706	23
2	238	91.954436244981	24
2	248	95.551685139666	25
2	263	100.165585560404	26
2	268	101.985414326058	27
2	279	112.031617843228	28
2	284	114.501526453631	29
2	290	115.346149252154	30
2	301	119.980716867415	31
[...]
10	2047	800.921012363041	2.15513343261
10	2056	803.104305400253	0.125827866644
10	2062	806.473403895615	0.385678578981
10	2069	808.745415725124	0.447212355375
10	2077	811.127776604492	0.398734136126
10	2083	813.206171980573	0.2226661426
10	2088	815.279917638214	0.845369837117
10	2093	816.833419721341	1.495470705804
10	2100	822.367623788629	0.345989133603
10	2106	823.620182403807	0.145352434281
10	2111	824.419941409349	0.506954382712
10	2114	824.756382328445	0.376724156905
10	2117	826.118023659469	1.063008165258
10	2125	830.507824766627	0.482460290653
10	2131	831.874119681205	0.265288403273
10	2139	835.564414170562	0.723029207875
10	2146	836.854906893081	0.26822713541
10	2160	843.452702419836	0.243937305565
10	2177	851.552769781444	1.473639734662
10	2189	859.024750738691	0.752518516884
10	2199	862.550501147877	0.265075368049
10	2222	868.796079252049	0.263972345063
10	2228	872.408031007937	1.248631582285
10	2233	872.864591871162	0.432124936508
10	2236	874.919018051689	1.373887529608
10	2244	875.722804598573	0.060414147871
10	2253	877.866854812693	0.131072779751
10	2256	878.315007852591	0.069107597836
10	2262	879.835074739955	0.590301615774
10	2271	884.4778302565	2.245074199957
10	2276	885.53297948364	1.673398925057
10	2277	885.76821461845	1.400332876072
10	2278	886.443322615625	1.696956356174
10	2284	887.10633504236	0.082569834892
10	2292	891.036844223979	1.4955119556
10	2293	892.6514525592	2.964134850189
10	2300	895.145843014421	0.943256685268
10	2303	895.859619614248	1.323637523743
10	2316	899.514129074819	0.72569033888
10	2326	902.255767515374	1.269822910001
10	2329	903.259984357528	0.3161794272
10	2336	905.544272563078	1.290701145166
10	2341	907.819582714826	3.291307447653
10	2342	907.906407150352	1.964377851567
10	2345	909.247553923908	1.477073811112
10	2349	911.195432755093	0.0633440116
10	2355	913.212493264442	0.181112045729
10	2360	916.357325630767	0.476103658002
10	2365	917.035653583983	0.058027770744
10	2381	925.037653563403	0.685264037063
10	2386	927.312425626397	0.208916118656
10	2391	928.289747208407	0.393506855242
10	2395	929.897794222016	0.145804437878
10	2407	934.935364896653	0.094883449119
10	2410	936.06916135693	0.878170212939
10	2413	936.286067589978	0.07872867408
10	2420	937.049433585783	0.222018088227
10	2425	943.539787087525	1.358079993713
10	2430	945.742544614547	0.368149001767
10	2433	947.706394543205	0.392359999594
10	2436	948.373097918606	0.037012257385
10	2441	949.166202365949	0.060874211398
10	2458	956.870143184958	0.802024540477
10	2461	957.48210152542	0.411941017113
10	2470	960.002340452122	2.310665024573
10	2473	960.460469823624	0.097958425912
10	2476	961.026987196203	0.036236340382
10	2479	961.062234747417	0.017513527079
10	2485	963.440342255928	0.033394605546
10	2498	966.387606116829	1.427363484475
10	2499	966.467023501093	1.336583383291
10	2502	967.293542493133	0.124279686316
10	2508	970.199740277922	0.002287070017
10	2513	971.964390075184	0.2466499645
10	2517	973.384981332348	0.336895842874
10	2524	974.63655074334	0.286511731593
10	2528	976.184597677007	0.729870665476
10	2534	978.241989784346	1.10579262174
10	2537	979.068808993787	1.02224852147
10	2540	979.79466879552	0.099778260041
10	2543	981.658149931475	0.924235782465
10	2548	982.222997292276	0.089928756349
10	2557	990.241567389573	0.399863355437
10	2564	990.909987030846	0.173397609833
10	2573	993.706819430647	0.033972282452
10	2578	994.189184187194	0.433365267689
10	2584	996.025180953001	0.135211818104
10	2587	997.701732081401	0.061214912425
10	2591	1002.257933125125	0.970135991092
10	2599	1004.417758693777	0.661432091912
10	2613	1007.284243808846	0.794282511793
10	2614	1007.421174822538	0.150214403108
10	2623	1012.880924903919	0.623707364359
10	2627	1014.5544239037	0.254357506496
10	2632	1015.85318243343	1.208694323799
10	2638	1016.989351419399	0.354093668507
10	2641	1019.506247555241	0.806028028289
10	2647	1021.932604743538	0.448925944088
10	2652	1023.989495433114	0.086535454814
10	2661	1027.494287364726	1.076761664126
10	2676	1036.693369269347	0.150844962089
10	2683	1041.067340654013	0.423368295884
10	2690	1045.275960070849	0.75042966386
10	2696	1046.491058309543	0.23731264394
10	2702	1047.773687820677	0.248738119335
10	2705	1050.395006754824	2.223586862781
10	2717	1058.045906468404	0.069648815757
10	2729	1061.985309566143	0.47753270311
10	2738	1065.398624818652	0.006988176922
10	2755	1068.847375723193	0.246031119373
10	2762	1070.833652109195	0.809311247528
10	2773	1073.76852557401	0.385058934619
10	2789	1081.995588575689	0.34860158718
10	2799	1084.875254542447	0.132031967075
10	2806	1086.755551910043	0.227548309636
10	2822	1093.607985016844	0.267404324029
10	2827	1097.484451028853	0.745675317882
10	2842	1103.033581691178	1.40849657772
10	2845	1104.23133146358	0.412336899471
10	2859	1110.777192877038	1.482649220766
10	2865	1113.265246819408	0.838570843574
10	2870	1113.6301879334	0.547187926481
10	2877	1116.146514317524	2.665293540674
10	2878	1116.253739836062	2.696959523222
10	2881	1117.644801465514	2.136510241366
10	2884	1118.253567272587	0.010849659059
10	2893	1122.244483597289	0.149155486729
10	2896	1125.22733270468	0.167696394616
10	2903	1127.452415359937	0.383686331076
10	2907	1128.154093228302	0.53268794501
10	2912	1133.213615311507	0.179526408213
10	2915	1134.666785998191	0.457517108003
10	2920	1135.622360525486	0.785078406765
10	2924	1139.007558355193	0.23269059191
10	2929	1140.690545960598	0.732560094057
10	2932	1141.017749991307	0.583518874009
10	2933	1141.354482518315	0.513169205518
10	2939	1144.527665841835	0.560195208451
10	2942	1145.486066920008	0.688810557658
10	2945	1146.27490165791	0.13941638418
10	2948	1146.893368208296	0.085899239923
10	2953	1148.293485556695	1.104328919289
10	2958	1150.301402256178	0.210470253159
10	2964	1151.282685829461	0.033581390852
10	2969	1152.791305147166	0.675450562953
10	2983	1156.011917687167	0.55273880579
10	2984	1156.341149686457	0.844215869433
10	2985	1156.344085178869	0.755778219411
10	2995	1163.634200555654	0.077638135458
10	3012	1169.851397175317	0.851830091345
10	3013	1170.088440242167	0.832374266063
10	3014	1170.155948409904	0.451360416591
10	3025	1173.811789218354	0.153854298103
10	3036	1177.909560893179	0.440980273714
10	3039	1178.607371618916	0.778096117892
10	3040	1178.847218646716	0.985971918604
10	3051	1182.091879594846	0.368388050625
10	3063	1184.414940653736	0.13902995645
10	3077	1190.316484160955	3.90954309263
10	3078	1191.133469850425	4.267469943139
10	3079	1191.198843894046	1.152009675661
10	3082	1191.37609435827	0.071227607975
10	3087	1192.646886385638	0.113192477124
10	3092	1193.574246555363	0.057494182291
10	3098	1195.831980124025	0.028432663767
10	3104	1198.472497996356	0.006161883343
10	3107	1199.286469155372	0.142653621016
10	3118	1201.439409729296	0.429012846324
10	3126	1204.252791717424	0.768756736753
10	3135	1206.617657132136	0.141772776921
10	3147	1210.072508599935	0.867341663615
10	3161	1215.208564030278	1.000996318757
10	3162	1215.445772101545	0.832284483244
10	3169	1216.738103891897	2.087277948811
10	3170	1216.844228186436	0.520267718484
10	3174	1218.654986451069	0.308837452524
10	3177	1221.652674255738	0.128756213485
10	3190	1229.099691561189	0.188234366116
10	3197	1233.220586339603	0.00580072262
10	3200	1233.468399042389	0.237560904367
10	3203	1235.184731297822	1.099055298135
10	3206	1235.876414884457	0.131202142332
10	3213	1243.758125838	0.693563457549
10	3214	1244.034855889198	0.638689909799
10	3221	1246.433931178567	0.420581769325
10	3227	1247.150086168588	0.069201185177
10	3235	1251.365070737057	1.26165372012
10	3240	1251.729369226656	0.218464913626
10	3244	1253.596626902545	0.073687103154
10	3249	1254.604517694707	0.176634053449
10	3253	1258.015309053226	1.003393209762
10	3266	1265.741974151396	0.630860986873
10	3267	1265.94519263309	0.664819900362
10	3273	1266.747796866182	0.023660237916
10	3276	1268.45872549286	0.312044300977
10	3287	1271.070952227417	0.532817761531
10	3297	1275.949523544399	0.003205520961
10	3306	1278.568825526489	0.972859112575
10	3307	1278.861163269122	0.359126884271
10	3313	1282.836072486694	0.389269712165
10	3318	1285.624538285578	0.617320107696
10	3342	1295.987686347344	1.305961793508
10	3343	1296.400346750557	1.195056366238
10	3352	1301.251769772816	0.498990266037
10	3359	1302.271811556633	0.049745243965
10	3367	1304.906385616412	0.976387602356
10	3368	1305.236911852304	1.183448586878
10	3371	1305.876613320035	0.150235411781
10	3390	1319.102701533245	0.048405780195
10	3397	1324.480526603624	0.336639850757
10	3402	1326.489317378754	0.662092405891
10	3411	1328.615757900921	0.167330964296
10	3414	1330.665113109495	0.276641292936
10	3424	1332.334325158302	0.31533398939
10	3427	1333.169676596444	0.057332764359
10	3436	1337.067532900031	0.060212215019
10	3447	1340.902415848108	1.321194871125
10	3451	1342.490722716553	0.042023599732
10	3454	1343.220134657905	0.350953598863
10	3459	1345.836779320892	1.170597913741
10	3470	1348.022400104182	0.947180986151
10	3473	1348.433086621995	1.011734463633
10	3474	1348.484326238661	0.720122530504
10	3477	1348.848022713119	0.906514774786
10	3478	1349.208760962278	1.014743926364
10	3479	1349.352260528053	0.766402519361
10	3485	1353.160220016021	0.403612161866
10	3486	1354.619603892436	1.806045285413
10	3496	1358.292370070766	1.134972360439
10	3502	1363.403455309172	0.997860803778
10	3515	1371.060625239727	0.067174855716
10	3525	1374.625159910216	1.476507152192
10	3549	1385.667781542628	1.682897711827
10	3554	1386.496292528686	0.107022829008
10	3557	1389.334051061954	0.267613721789
10	3560	1389.705513224857	0.117931606947
10	3571	1392.881815205728	0.67705581236
10	3578	1395.240151704263	0.749220615011
10	3586	1398.821116612222	0.241255847653
10	3594	1401.061967381548	0.221736889819
10	3599	1402.976526300234	0.404588926907
10	3608	1406.694751875772	0.532887575959
10	3626	1411.722325563301	0.090502150782
10	3636	1413.49385535783	0.506988315191
10	3643	1415.83839756683	0.160103922895
10	3649	1417.184039796535	0.89144718613
10	3650	1417.260138406967	0.869907491504
10	3654	1419.747032600055	0.913683034193
10	3657	1421.220470029379	0.25284278226
10	3662	1422.895350124483	1.097854365547
10	3665	1423.796179605561	0.442634977453
10	3679	1428.06579632503	0.565838891648
10	3684	1429.293818943027	1.341019243145
10	3685	1430.532606205954	2.08742733727
10	3705	1438.600625140753	1.289967043579
10	3717	1442.924244965071	1.453277704324
10	3720	1443.458530393923	0.612668112609
10	3721	1443.766337781618	0.432168068087
10	3725	1445.571665219201	0.122307338262
10	3729	1449.613903556939	0.243517434167
10	3737	1452.071208599019	0.261900061701
10	3743	1455.123095730446	0.115956740598
10	3748	1456.420736184689	0.024148333993
10	3753	1457.394734726908	0.554221321293
10	3758	1459.197446764532	0.393230953936
10	3761	1459.722934492406	0.710609495621
10	3764	1460.038709373547	0.564987964405
10	3772	1465.040845175898	0.341627638456
10	3775	1468.887012690783	1.483213951388
10	3779	1469.188991894138	0.225246614183
10	3786	1470.880305682684	0.792716215665
10	3787	1471.022266631468	0.759149758846
10	3788	1471.845572432946	1.178554177782
10	3791	1473.792535965319	0.043661552516
10	3805	1480.514763481511	0.509918756588
10	3810	1485.367444776495	0.218437889943
10	3813	1487.249766890739	0.022671951766
10	3818	1490.010471105671	0.910994189154
10	3836	1498.32613426021	0.516743717394
10	3841	1499.813478940389	1.619459916425
10	3849	1502.000938456855	0.875981494181
10	3852	1504.28865706125	2.37107483882
10	3853	1504.405985174447	0.257962959072
10	3869	1514.690144871159	1.085993166739
10	3872	1516.040957317229	0.314837207016
10	3878	1517.183561920134	0.689530489881
10	3908	1530.894250513415	1.132815435097
10	3909	1531.60829589869	1.789395816696
10	3910	1531.685243682018	1.671423920234
10	3911	1532.227174094629	1.819535428467
10	3925	1533.935025656599	0.84957940901
10	3926	1533.963388940525	0.271546227927
10	3927	1534.17370060504	0.424403048681
10	3936	1537.919601418102	0.134703090377
10	3940	1539.938656933946	0.241288972066
10	3944	1541.597416837661	0.000266328126
10	3949	1544.736141408954	0.929431580617
10	3957	1548.11943298048	0.337339667725
10	3965	1550.344842675789	0.01954629839
10	3974	1553.674306335235	0.924880303721
10	3978	1555.104621149717	0.101136789858
10	3991	1563.17459907601	0.123647111956
10	3996	1563.802072793848	0.371158829374
10	3999	1564.183187585886	0.057154960118
10	4008	1566.970534959538	1.852881786173
10	4011	1567.214001150677	0.290901215158
10	4012	1567.463274947045	0.350379239181
10	4020	1570.155228742791	0.810198888985
10	4023	1570.644266584887	0.000457254407
10	4036	1580.947978336173	0.800639609237
10	4047	1584.619960203249	0.081093026843
10	4054	1587.429475236142	0.027963164264
10	4057	1588.978757178412	0.761272104597
10	4067	1593.3307924077	0.474878311169
10	4082	1595.49424387008	1.586677746956
10	4085	1596.991848187045	2.702929941189
10	4090	1597.753445549079	3.08680800121
10	4091	1597.9688108293	2.857485695449
10	4098	1598.872899866135	1.986837365395
10	4099	1600.624383687823	3.501058078355
10	4100	1601.88369744937	3.784421431109
10	4101	1602.199891218987	3.331172234184
10	4108	1604.11889598647	0.098961633785
10	4109	1604.299214688483	0.236680950759
10	4121	1611.986539490405	2.32626474353
10	4129	1618.989938233877	0.934926870615
10	4141	1623.964056898778	1.254182882102
10	4142	1624.577055797063	0.84908076259
10	4151	1627.168362299313	0.226469624367
10	4156	1630.555322193238	0.385773798403
10	4165	1632.656370223866	0.612250772961
10	4170	1634.639677179186	0.23039055058
10	4173	1635.587267320548	0.317544614986
10	4182	1638.971775246243	0.386053295703
10	4190	1644.684988333018	0.203490891069
10	4197	1646.542198480779	0.866141419269
10	4207	1649.032997742498	0.492664911126
10	4208	1649.582605428465	1.018030286482
10	4215	1651.636279037695	0.496347577758
10	4220	1652.381546886645	0.465055171839
10	4231	1655.86712266968	0.065617857128
10	4257	1665.838737040351	0.223151321814
10	4260	1666.436454387589	0.099756235397
10	4263	1667.430306990595	0.510538582839
10	4274	1671.735447559004	0.506846011164
10	4282	1673.605381174685	0.046620494644
10	4293	1675.376691990562	0.165966544461
10	4301	1679.289720591345	1.147607409756
10	4315	1683.456310927841	0.143059532838
10	4330	1689.792085037964	0.063108103737
10	4337	1695.263211494001	0.061230209697
10	4341	1696.405819819857	0.509266675742
10	4346	1698.801555345298	0.053471167078
10	4349	1700.098385688732	0.696175506461
10	4352	1700.368942928536	0.010790495676
10	4379	1711.543442765799	0.289694891226
10	4386	1712.442641880391	0.266013520768
10	4393	1716.559642649914	0.678037092858
10	4396	1717.244300402419	0.148088472214
10	4403	1718.197431121607	0.348258993922
10	4412	1722.79739073807	0.171499708591
10	4418	1724.553987019651	0.124302332724
10	4427	1726.203997002154	0.094190394193
10	4434	1727.114839820116	0.649064502592
10	4435	1727.752222008834	1.214435702574
10	4438	1727.902632155703	0.089284181144
10	4452	1730.604148687813	0.804398533303
10	4460	1732.024635595717	0.279048497664
10	4470	1735.268735499521	0.388180577216
10	4477	1740.88725434443	0.668356618093
10	4490	1746.893433821394	0.232545151879
10	4499	1747.925704055755	0.689777609114
10	4500	1748.388713515345	1.077257309246
10	4501	1748.76471081868	1.191039791671
10	4504	1749.656243729482	0.12762017474
10	4507	1750.539589281972	0.334958211388
10	4510	1752.753397111939	0.295608370188
10	4524	1760.795437624338	0.119659914006
10	4531	1764.552910832722	0.076724026791
10	4540	1768.516545145222	2.256083158324
10	4545	1769.116185950592	2.574066176209
10	4546	1769.183416792732	0.523254267828
10	4547	1769.524318862155	0.607715429703
10	4552	1770.822253463633	0.26478034873
10	4553	1771.020033656809	0.369853062417
10	4562	1773.436943954935	0.178237221021
10	4566	1774.317569554489	0.364703710913
10	4573	1774.983256221268	0.036782975338
10	4581	1777.494531717774	0.110185041872
10	4587	1779.731787826289	0.465608154517
10	4592	1781.885577280513	0.25778723335
10	4597	1783.271993854796	0.628481251663
10	4603	1784.693237697544	0.589014565679
10	4610	1787.822569458654	1.462253817347
10	4613	1788.657747456413	1.303609267639
10	4628	1793.713028135694	0.045467594226
10	4637	1795.329753389331	1.652860699183
10	4640	1795.70382053269	1.467635943182
10	4641	1795.896515649606	1.631737374468
10	4644	1796.75110430539	2.009290008684
10	4680	1808.88389019399	1.133844612529
10	4683	1809.439701026675	0.03681536869
10	4693	1814.021557097574	0.5630694557
10	4710	1817.611132626833	0.642177060416
10	4713	1818.215913573844	0.642003266272
10	4726	1822.322746104181	0.045358721914
10	4731	1822.450550940173	0.156763766054
10	4736	1825.774551776199	3.395310874241
10	4737	1826.456932823213	3.276564007657
10	4738	1826.576479381784	1.602149118748
10	4747	1830.044685278686	0.229217847663
10	4768	1837.474481897723	0.060612294641
10	4773	1839.76869428087	0.210869694524
10	4780	1843.847670849178	0.106549614388
10	4785	1844.550569056372	0.017698023917
10	4795	1850.766720709235	1.106908706942
10	4798	1851.34556855996	0.225993956695
10	4803	1852.865830039505	0.50211859259
10	4814	1854.408903744849	0.084245443299
10	4817	1858.05112781665	1.421271154788
10	4827	1860.830972789849	0.307644517466
10	4828	1861.664489021449	1.06691966709
10	4837	1862.437739913613	0.465144187825
10	4840	1863.262631059189	1.20062301289
10	4841	1863.595230484387	1.183918850195
10	4852	1870.839306396033	0.084792180546
10	4853	1870.849450848867	0.041603354397
10	4858	1872.834059015975	0.093016590187
10	4864	1876.727907607866	0.301204115837
10	4868	1878.620253840779	1.10842367374
10	4871	1879.33304203016	0.539024815983
10	4874	1879.797174397921	0.254871606706
10	4881	1880.82622266207	0.240357234796
10	4882	1881.016899047867	0.367957531844
10	4889	1883.386383444465	2.573041465282
10	4890	1883.550817244701	2.2271566941
10	4891	1883.627691770196	1.073563284799
10	4894	1884.333602887585	0.133729091198
10	4898	1885.638546371456	0.439332283709
10	4908	1889.504190350776	0.654360553355
10	4909	1889.573535504997	0.627740684102
10	4916	1891.88098648696	0.300361172468
10	4919	1892.827279854456	0.845744477699
10	4926	1894.072139033569	1.049903123584
10	4927	1894.690006828301	0.936720788067
10	4938	1897.724327193699	0.148259323364
10	4942	1898.540305916724	0.530011863208
10	4945	1898.901363421642	0.245344513725
10	4948	1901.098676658852	2.12032977656
10	4954	1903.734537220567	0.732175759727
10	4957	1904.34658844683	0.415839335543
10	4964	1907.947773656246	0.956781407163
10	4975	1911.565538878654	0.376233128798
10	4980	1912.409733642612	0.920626757737
10	4983	1914.736870301223	0.409693505482
10	4986	1915.843019912219	0.742049744743
10	5006	1926.968863434208	0.32950302767
10	5015	1933.834755612216	0.597177409638
10	5018	1933.887284962816	0.017407863755
10	5022	1934.928370556285	0.071914579092
10	5033	1939.135961621795	0.071081841997
10	5045	1942.800194306304	0.109582220106
10	5052	1945.721495101431	1.966477499943
10	5053	1945.985596731637	0.334909915492
10	5058	1947.043666956452	0.543127670862
10	5065	1951.055373820947	0.549494087719
10	5079	1955.348871277576	0.571822404492
10	5082	1956.319861122628	0.075383359859
10	5094	1960.046013862574	0.348232061435
10	5097	1960.67881522559	0.196629922005
10	5106	1963.160610516459	0.478621304022
10	5109	1963.662703959198	0.594695253713
10	5114	1965.103217345133	1.599232931287
10	5120	1967.538505556889	0.427485107406
10	5123	1967.802719033739	0.68490808246
10	5130	1968.287546320847	0.725913064975
10	5131	1968.321633321487	0.387831799484
10	5138	1969.267582854241	0.373780034984
10	5148	1973.221978751024	1.16689472649
10	5155	1976.250880065127	0.817456199959
10	5160	1976.96557438231	0.645928765678
10	5171	1980.953821752913	1.309768693392
10	5176	1981.697337239019	1.063917796116
10	5177	1981.881808419531	0.893704026587
10	5178	1982.18262469214	0.681451514689
10	5191	1985.930553714307	1.379100820314
10	5197	1991.139988295863	0.079477995353
10	5200	1993.986596961652	0.092448467775
10	5203	1994.038252126489	0.041888700998
10	5209	1996.212735380736	0.350853083486
10	5216	1999.778063723541	0.005030458977
11	5217	2000	0.428
12	5217	2000	0.398

