file 370433 1671470871                                          
version 2
run Monotonicity_test_recover_rate-191-20221219-18:27:51-15432
attr configname Monotonicity_test_recover_rate
attr datetime 20221219-18:27:51
attr experiment Monotonicity_test_recover_rate
attr inifile omnetpp.ini
attr iterationvars $0=25
attr iterationvarsf 25-
attr measurement $0=25
attr network Network
attr processid 15432
attr repetition 91
attr replication #91
attr resultdir results
attr runnumber 191
attr seedset 91
param *.minion.arrival_mean 2
param *.minion.service_mean 1.5
param *.boss.arrival_mean 2.5
param *.boss.service_mean 0.5
param *.player.recover_rate_x 25
param **.minion.arrival_distribution 0
param **.minion.service_distribution 0
param **.boss.arrival_distribution 0
param **.boss.service_distribution 0

vector 0 Network.player minion_jobs_number_stat:vector ETV
attr source signal_minion_jobs_number
vector 1 Network.player minion_jobs_queue_number_stat:vector ETV
attr source signal_minion_jobs_queue_number
vector 2 Network.player minion_recovered_stat:vector ETV
attr source signal_minion_recovered
vector 3 Network.player minion_defeated_stat:vector ETV
attr source signal_minion_defeated
vector 4 Network.player boss_jobs_number_stat:vector ETV
attr source signal_boss_jobs_number
vector 5 Network.player boss_jobs_queue_number_stat:vector ETV
attr source signal_boss_jobs_queue_number
vector 6 Network.player boss_defeated_stat:vector ETV
attr source signal_boss_defeated
vector 7 Network.player boss_waiting_time_stat:vector ETV
attr source signal_boss_waiting_time
vector 8 Network.player boss_response_time_stat:vector ETV
attr source signal_boss_response_time
vector 9 Network.player minion_waiting_time_stat:vector ETV
attr source signal_minion_waiting_time
vector 10 Network.player minion_response_time_stat:vector ETV
attr source signal_minion_response_time
vector 11 Network.player minion_throughput:vector ETV
attr source signal_minion_throughput
vector 12 Network.player boss_throughput:vector ETV
attr source signal_boss_throughput
0	1990 25527 0 5392 0 1999.36285875613 961 0 28 9331 125825
1	27517 50597 0 5392 0 1999.36285875613 1907 0 27 16651 215427
2	78114 18200 0 5394 0 1999.993755684193 652 0 651 212226 92176826
3	96314 26519 0 5385 0 1996.761013083151 947 0 946 447931 282644461
4	122833 22012 0 5394 0 1999.993755684193 844 0 5 1059 1603
5	144845 43988 0 5394 0 1999.993755684193 1686 0 4 432 656
6	188833 23560 0 5390 0 1999.278780877524 843 0 842 354903 199337185
7	212393 24208 2 5394 0.276889070643 1999.993755684193 843 0 3.331742017317 108.19859195774 146.91007539596
8	236601 32826 3 5390 0.324436128298 1999.278780877524 842 0.001320055593 4.505867777161 522.44977867739 694.99305046269
9	269427 62599 5 5390 1.107592023973 1999.278780877524 1597 0 35.65560095635 16989.367599988 267995.7996031
10	332026 38368 22 5385 6.287097901155 1996.761013083151 946 0.128586333886 36.053193754248 11028.040939644 182426.84354051
11	370394 19 5395 5395 2000 2000 1 0.473 0.473 0.473 0.223729
12	370413 19 5395 5395 2000 2000 1 0.421 0.421 0.421 0.177241

