version 2
run Monotonicity_test_recover_rate-210-20221219-18:27:55-15528
attr configname Monotonicity_test_recover_rate
attr datetime 20221219-18:27:55
attr experiment Monotonicity_test_recover_rate
attr inifile omnetpp.ini
attr iterationvars $0=50
attr iterationvarsf 50-
attr measurement $0=50
attr network Network
attr processid 15528
attr repetition 10
attr replication #10
attr resultdir results
attr runnumber 210
attr seedset 10
param *.minion.arrival_mean 2
param *.minion.service_mean 1.5
param *.boss.arrival_mean 2.5
param *.boss.service_mean 0.5
param *.player.recover_rate_x 50
param **.minion.arrival_distribution 0
param **.minion.service_distribution 0
param **.boss.arrival_distribution 0
param **.boss.service_distribution 0

scalar Network.player boss_throughput:mean 0.4075
attr source signal_boss_throughput
scalar Network.player boss_throughput:last 0.4075
attr source signal_boss_throughput
scalar Network.player boss_defeated_stat:count 816
attr source signal_boss_defeated
scalar Network.player boss_defeated_stat:mean 407.5
attr source signal_boss_defeated
scalar Network.player boss_waiting_time_stat:mean 0.15319852189605
attr source signal_boss_waiting_time
scalar Network.player boss_response_time_stat:mean 0.67117857523216
attr source signal_boss_response_time
scalar Network.player minion_throughput:mean 0.5025
attr source signal_minion_throughput
scalar Network.player minion_throughput:last 0.5025
attr source signal_minion_throughput
scalar Network.player minion_recovered_stat:count 629
attr source signal_minion_recovered
scalar Network.player minion_recovered_stat:mean 314
attr source signal_minion_recovered
scalar Network.player minion_defeated_stat:count 1006
attr source signal_minion_defeated
scalar Network.player minion_defeated_stat:mean 502.5
attr source signal_minion_defeated
scalar Network.player minion_waiting_time_stat:mean 40.944202348126
attr source signal_minion_waiting_time
scalar Network.player minion_response_time_stat:mean 42.403135987061
attr source signal_minion_response_time

