version 2
run Monotonicity_test_recover_rate-486-20221219-18:28:52-16927
attr configname Monotonicity_test_recover_rate
attr datetime 20221219-18:28:52
attr experiment Monotonicity_test_recover_rate
attr inifile omnetpp.ini
attr iterationvars $0=100
attr iterationvarsf 100-
attr measurement $0=100
attr network Network
attr processid 16927
attr repetition 86
attr replication #86
attr resultdir results
attr runnumber 486
attr seedset 86
param *.minion.arrival_mean 2
param *.minion.service_mean 1.5
param *.boss.arrival_mean 2.5
param *.boss.service_mean 0.5
param *.player.recover_rate_x 100
param **.minion.arrival_distribution 0
param **.minion.service_distribution 0
param **.boss.arrival_distribution 0
param **.boss.service_distribution 0

vector 0 Network.player minion_jobs_number_stat:vector ETV
attr source signal_minion_jobs_number
vector 1 Network.player minion_jobs_queue_number_stat:vector ETV
attr source signal_minion_jobs_queue_number
vector 2 Network.player minion_recovered_stat:vector ETV
attr source signal_minion_recovered
vector 3 Network.player minion_defeated_stat:vector ETV
attr source signal_minion_defeated
vector 4 Network.player boss_jobs_number_stat:vector ETV
attr source signal_boss_jobs_number
vector 5 Network.player boss_jobs_queue_number_stat:vector ETV
attr source signal_boss_jobs_queue_number
vector 6 Network.player boss_defeated_stat:vector ETV
attr source signal_boss_defeated
vector 7 Network.player minion_waiting_time_stat:vector ETV
attr source signal_minion_waiting_time
vector 8 Network.player minion_response_time_stat:vector ETV
attr source signal_minion_response_time
vector 9 Network.player boss_waiting_time_stat:vector ETV
attr source signal_boss_waiting_time
vector 10 Network.player boss_response_time_stat:vector ETV
attr source signal_boss_response_time
vector 11 Network.player minion_throughput:vector ETV
attr source signal_minion_throughput
vector 12 Network.player boss_throughput:vector ETV
attr source signal_boss_throughput
0	0	0	0
0	2	0.753422488317	1
0	8	2.888790252459	1
0	17	5.822684852822	1
0	20	8.405191974133	1
0	23	9.127575461058	1
0	25	9.721625262289	2
0	27	9.758847578753	3
0	41	16.340960313212	3
0	44	16.850221038189	4
0	52	23.639530996683	2
0	54	24.452538106005	3
0	61	25.893801697532	3
0	65	27.609369273469	4
0	68	28.314061753722	4
0	77	29.671080146174	5
0	84	31.684140396468	6
0	86	31.937267746328	7
0	96	34.200878649545	6
0	100	34.727654634786	7
0	105	35.743495563286	8
0	129	51.379558453684	3
0	140	53.558837688627	4
0	150	56.074667311596	3
0	164	59.63310480386	1
0	166	59.827795773438	2
0	171	62.121610621602	3
0	177	62.742857434211	3
0	180	63.594770705115	3
0	185	66.746993427027	4
0	190	68.439841318227	5
0	192	69.135624022679	6
0	203	77.698552874945	6
0	215	81.267053036533	4
0	219	81.933739903263	3
0	224	84.375824785556	1
0	229	85.854042193046	2
0	233	86.987675844626	1
0	236	87.117289979477	1
0	242	89.499267950617	1
0	244	89.543347598418	2
0	246	89.634659741376	3
0	251	91.331007678917	4
0	254	92.10282734308	4
0	256	92.12525486714	5
0	258	93.678574271373	6
0	266	97.760456947273	7
0	275	101.010022607649	7
0	277	101.057788728376	8
0	283	103.550504741639	8
0	288	106.482105622558	6
0	300	111.271193041262	6
0	303	112.500244688033	6
0	306	112.893796230192	6
0	308	114.48621022819	7
0	313	116.358653253729	7
0	327	121.686720071953	6
0	338	124.864217161987	6
0	342	125.112932035256	6
0	344	125.470431745166	7
0	348	128.205153681831	6
0	357	133.400788912331	3
0	359	133.4737169689	4
0	362	134.093167439481	4
0	364	134.163502342304	5
0	366	137.450173784374	6
0	375	144.338799207552	3
0	377	144.818841081334	4
0	379	144.979761113362	5
0	399	151.210180684704	3
0	404	153.030719054745	4
0	412	159.361376534816	5
0	414	159.404727528794	6
0	421	162.439515315152	5
0	423	162.869015681663	6
0	425	163.579413942145	7
0	427	164.141679937083	8
0	441	172.448087850598	3
0	443	174.499443410344	4
0	449	174.993972921414	4
0	452	176.542005108368	4
0	454	177.316738822142	5
0	456	178.510017811002	6
0	462	178.929354089923	5
0	464	179.059860793064	6
0	466	179.259470525887	7
0	474	182.027606663649	6
0	479	184.938017773705	7
0	490	189.587795151317	5
0	492	192.021921218091	6
0	494	192.758759529864	7
0	496	193.66053289545	8
0	506	195.529311770025	6
0	518	200.811093921101	7
0	520	200.966051163194	8
0	526	203.860447993352	8
0	538	208.016512966171	8
0	540	208.311011035631	9
0	542	208.797087760204	10
0	561	213.706924478831	8
0	563	213.908440264329	9
0	565	214.386380465588	10
0	569	217.349665774289	10
0	582	223.698817252801	8
0	590	228.038218750657	7
0	592	228.803615169834	8
0	596	229.908628997769	7
0	598	230.165852758432	8
0	600	230.262788298941	9
0	607	234.696421573164	5
0	612	237.155342044612	6
0	618	239.99635384727	6
0	622	241.987831739195	5
0	629	246.379922173736	4
0	631	246.759892591129	5
0	641	254.072523099997	3
0	643	254.620070586067	4
0	658	259.394110177251	5
0	660	260.223627824707	6
0	662	260.29178224229	7
0	665	260.464246498378	7
0	674	263.897833427061	4
0	676	263.959894827979	5
0	678	266.663837769541	6
0	684	268.886706815918	6
0	686	269.380719480911	7
0	688	269.779331813091	8
0	690	270.113416722771	9
0	697	271.554605635827	7
0	699	272.117219219941	8
0	702	272.962290532592	9
0	709	274.909469778906	8
0	711	275.387390808887	9
0	714	278.198954452804	9
0	716	278.235047912101	10
0	724	280.188519265984	8
0	726	281.438333147472	9
0	738	282.96146620824	10
0	743	283.488655154325	10
0	751	287.086383295629	8
0	754	289.509255813707	8
0	758	290.9461674145	7
0	760	292.085778082603	8
0	765	293.549927285123	9
0	771	296.645542048104	9
0	773	296.682972214871	10
0	775	296.729917841144	11
0	777	296.789851658071	12
0	795	304.66072694673	11
0	802	307.816920773901	11
0	806	308.870992307472	12
0	809	309.266242803253	13
0	811	309.635674019258	14
0	813	311.660663492158	15
0	818	315.651817091945	16
0	821	317.420977160316	16
0	825	320.612903544931	15
0	833	323.560255794798	13
0	835	323.711129174076	14
0	837	324.699234015746	15
0	839	325.969348642166	16
0	848	328.46121450231	16
0	854	331.227101074595	16
0	856	331.607704585175	17
0	864	336.400457053986	15
0	870	337.941166735146	15
0	874	339.071133848177	14
0	877	340.58149935307	14
0	879	341.086431328025	15
0	882	342.421597007923	15
0	886	344.832187823008	16
0	903	353.899806292474	15
0	909	355.462374444095	14
0	916	358.268066492133	14
0	921	359.753825759513	12
0	926	359.878990228188	13
0	931	361.922900722965	14
0	957	378.331248032905	9
0	971	382.486250880192	7
0	973	382.807615191343	8
0	978	384.808294380653	8
0	981	385.330608762916	9
0	983	385.6053920664	10
0	987	387.86700949535	9
0	989	388.143962425616	10
0	991	388.372403276862	11
0	993	388.404442585871	12
0	995	388.596758369136	13
0	997	388.634807155252	14
0	1003	389.963757432038	14
0	1008	391.284259214584	14
0	1016	395.746213514517	12
0	1030	399.398479475097	8
0	1038	402.872352761844	6
0	1040	402.985034926624	7
0	1043	403.696732138652	7
0	1045	404.334804881759	8
0	1047	404.642855828176	9
0	1049	405.487961290031	10
0	1051	405.888524727116	11
0	1056	406.441968470574	11
0	1058	406.931962552239	12
0	1060	407.493838525497	13
0	1067	408.102305576422	13
0	1070	409.416099244056	13
0	1082	414.557192867743	10
0	1086	414.999055554027	11
0	1089	415.402661818039	12
0	1091	415.642093967663	13
0	1100	421.994766219568	10
0	1112	424.155926003916	9
0	1114	424.179994343856	10
0	1127	426.920605422623	10
0	1137	432.04088146026	9
0	1140	433.722033992152	9
0	1149	436.007746045523	8
0	1152	437.023183180792	9
0	1157	438.602872520271	10
0	1159	438.668064547212	11
0	1162	438.993772606504	11
0	1164	439.024604618678	12
0	1191	451.427348066396	8
0	1195	457.03485747257	8
0	1198	457.877323622254	8
0	1205	459.77174688862	9
0	1208	460.314583813446	10
0	1210	460.335083371836	11
0	1212	461.545508365901	12
0	1215	463.268732942668	12
0	1217	463.384598061674	13
0	1219	464.356305538118	14
0	1221	464.711058093637	15
0	1223	466.282285573298	16
0	1226	468.205883841142	16
0	1228	468.435270439393	17
0	1230	468.786400363971	18
0	1241	475.536843891856	16
0	1247	477.613631991763	16
0	1257	481.248918731856	13
0	1259	481.275213028863	14
0	1267	483.811992267578	11
0	1270	485.680195812759	11
0	1273	486.088580980845	11
0	1285	492.083147138542	11
0	1297	495.934726705553	11
0	1299	496.779792123045	12
0	1304	499.552687881201	13
0	1307	501.677931914142	13
0	1314	504.4956208603	12
0	1316	505.872379950081	13
0	1327	510.012018259899	13
0	1340	515.87958678837	13
0	1342	516.316998162785	14
0	1344	517.498463971435	15
0	1348	517.73959298565	16
0	1362	522.584452534468	15
0	1374	525.98512218699	15
0	1379	527.101114960542	16
0	1382	528.26806792215	16
0	1387	531.373896025479	17
0	1399	536.628095713262	14
0	1402	536.762279774462	14
0	1404	538.570805763618	15
0	1407	540.176512546731	15
0	1411	540.523775956394	16
0	1417	541.949685092034	17
0	1419	542.408867537616	18
0	1421	542.645172051848	19
0	1441	550.645203019643	17
0	1443	550.977809462961	18
0	1446	551.877068342191	18
0	1450	554.035378662166	17
0	1461	562.808958627581	15
0	1463	563.915423697359	16
0	1473	567.071069585084	17
0	1478	569.194114412359	18
0	1487	571.533689065047	19
0	1489	572.381550408696	20
0	1492	572.883169412976	20
0	1496	574.465224190018	19
0	1502	579.441549017004	19
0	1514	585.455346310332	16
0	1516	587.686555586039	17
0	1527	594.690627048691	15
0	1531	597.926148038944	14
0	1534	600.466653928938	14
0	1539	600.825986427459	15
0	1542	602.766930449593	15
0	1549	605.059499527035	14
0	1551	606.243889504218	15
0	1555	608.105040403307	16
0	1557	608.228676045738	17
0	1559	608.440226911382	18
0	1574	613.937579886728	16
0	1577	614.462167023123	16
0	1579	616.619374117378	17
0	1581	616.828667373044	18
0	1585	617.459126909961	19
0	1591	619.235660718706	20
0	1597	621.520386862559	20
0	1606	627.403446413279	20
0	1608	627.54764555468	21
0	1613	630.069552926545	21
0	1627	632.024606575292	22
0	1637	634.406825027508	21
0	1640	634.83871452958	22
0	1642	635.189656198815	23
0	1646	635.749261830124	22
0	1655	639.72238991585	19
0	1660	642.565503278756	20
0	1662	642.886867031046	21
0	1664	643.260766102956	22
0	1666	644.579957530168	23
0	1673	648.597806534233	22
0	1675	648.992713081473	23
0	1680	651.325996518981	24
0	1682	651.498686344228	25
0	1685	652.553681037568	25
0	1689	655.077698590141	24
0	1691	655.538160023168	25
0	1693	656.158348958434	26
0	1695	656.532245510846	27
0	1697	656.950961995728	28
0	1699	657.25283374824	29
0	1708	659.980259792419	29
0	1712	662.711405068903	28
0	1717	663.049384299592	29
0	1721	664.883958963942	30
0	1728	671.976464441394	30
0	1730	672.519341389313	31
0	1732	673.556999809695	32
0	1735	674.04646809505	32
0	1752	683.872380027405	30
0	1756	686.000929014673	29
0	1758	686.343300252792	30
0	1761	692.604257824746	30
0	1766	694.132841746593	31
0	1778	700.711313791821	28
0	1781	702.316168278465	28
0	1791	704.960019044353	29
0	1805	706.95199978087	28
0	1813	709.039802059771	28
0	1821	711.688569282331	27
0	1823	711.758129334715	28
0	1825	711.907468691988	29
0	1827	712.510075587344	30
0	1830	713.341481051141	30
0	1834	713.874289967644	31
0	1850	719.204458231538	31
0	1860	722.832291345156	30
0	1867	725.972574457807	29
0	1870	727.252343386353	29
0	1872	727.555478831379	30
0	1879	728.851359206274	31
0	1882	729.727554723439	32
0	1891	738.338734112621	32
0	1896	740.996889989691	32
0	1898	741.267948203617	33
0	1900	741.778277521108	34
0	1904	745.46288804494	34
0	1909	748.425982239342	34
0	1919	752.669779523366	34
0	1930	755.354459486374	32
0	1940	760.147233630549	31
0	1944	762.429401823558	32
0	1946	762.938506391108	33
0	1950	764.978516399435	33
0	1956	766.374139658795	32
0	1965	772.049318342308	30
0	1968	774.266465720431	30
0	1970	776.615717692295	31
0	1972	778.218185688058	32
0	1976	781.396595972963	31
0	1980	782.087444128718	32
0	1986	783.425979832676	33
0	1991	786.484323924422	33
0	1993	786.517722655814	34
0	1996	787.821816265692	35
0	1998	788.462254603605	36
0	2001	789.077677358271	36
0	2003	789.134312437047	37
0	2005	789.135234022134	38
0	2010	789.659658771315	39
0	2016	792.15630449489	39
0	2018	792.329991666468	40
0	2023	793.962525708984	40
0	2030	796.234127986775	39
0	2058	804.058356217331	33
0	2064	807.725226936699	33
0	2066	807.899552482503	34
0	2068	809.934561781249	35
0	2073	811.574758613026	33
0	2075	812.189523119162	34
0	2077	812.218998952295	35
0	2079	813.50556846771	36
0	2082	814.437800412655	36
0	2084	815.225265264933	37
0	2086	815.556446028532	38
0	2088	816.565940788101	39
0	2095	819.580814083713	38
0	2104	822.762918244796	35
0	2106	822.917736756412	36
0	2114	828.202822724221	34
0	2116	828.907170625683	35
0	2124	831.628259606048	35
0	2127	832.140061802273	36
0	2129	832.392899439006	37
0	2131	832.758166942207	38
0	2133	832.965612734735	39
0	2136	833.954672970358	39
0	2139	834.274361291991	39
0	2175	846.02409011727	30
0	2180	847.266727687308	28
0	2186	849.692572199085	27
0	2195	854.390868833325	25
0	2198	854.885946635725	25
0	2203	855.708397697844	26
0	2205	855.900549655455	27
0	2212	857.268118109087	28
0	2215	859.223020469616	29
0	2234	864.367084118846	25
0	2245	868.440162989152	23
0	2247	868.559471824388	24
0	2252	873.443538825219	24
0	2255	874.463997259639	25
0	2257	875.287435795988	26
0	2259	879.241831614082	27
0	2264	879.681094116745	27
0	2272	883.661326058401	26
0	2277	883.976629173434	26
0	2279	884.564915177056	27
0	2284	884.976922216083	28
0	2287	886.247149878413	29
0	2290	886.885774843876	29
0	2292	887.434337010059	30
0	2297	890.416925626939	30
0	2302	892.929845675712	29
0	2304	893.147765605443	30
0	2306	893.924934695496	31
0	2321	896.250382306282	30
0	2328	899.516393734028	31
0	2339	905.394339319549	31
0	2347	909.972075091409	29
0	2349	910.217185424076	30
0	2355	912.661739322045	27
0	2358	913.737883161145	27
0	2376	925.067671565473	24
0	2388	928.007089584181	21
0	2391	928.651849965187	21
0	2410	934.504858601064	22
0	2412	935.548450480628	23
0	2414	935.693595035941	24
0	2422	939.311560201161	23
0	2425	940.116261341532	23
0	2427	940.730195769132	24
0	2437	941.971034985152	24
0	2445	944.80996066718	24
0	2458	948.992599522553	25
0	2461	949.597578472393	26
0	2465	951.483148340426	25
0	2475	954.946516684012	24
0	2477	955.036138491012	25
0	2479	955.087815962589	26
0	2486	959.621130906161	25
0	2490	960.695647701625	24
0	2493	961.623906441492	24
0	2495	963.273397491126	25
0	2501	966.407480397866	22
0	2503	966.83145705847	23
0	2505	966.836354399033	24
0	2512	970.320950018828	22
0	2515	971.168665386627	23
0	2520	973.532444351411	24
0	2523	975.508015237715	24
0	2530	976.58849730263	25
0	2533	977.600749603622	26
0	2538	978.287807428495	27
0	2540	978.365201848995	28
0	2542	979.309181436077	29
0	2546	983.001588579735	28
0	2552	984.534535239578	29
0	2562	989.327354254244	29
0	2565	989.537252703374	30
0	2567	989.590996192881	31
0	2570	991.415844170948	31
0	2573	992.889956694563	31
0	2576	993.230521450133	31
0	2578	995.28213767266	32
0	2580	995.779625830477	33
0	2582	995.981565989989	34
0	2590	999.39475568641	32
0	2595	1001.091862745141	33
0	2597	1001.259698090411	34
0	2600	1003.909801202201	34
0	2603	1006.496373706449	34
0	2607	1010.216051565895	33
0	2610	1010.983361568608	33
0	2614	1011.851511876719	34
0	2618	1011.895161749041	35
0	2621	1012.514039381929	36
0	2640	1018.463514012581	33
0	2643	1018.884844936311	33
0	2645	1019.459865586794	34
0	2647	1019.630511305654	35
0	2660	1026.07527999369	34
0	2662	1026.898485582311	35
0	2666	1027.539175918803	36
0	2671	1028.650209248832	37
0	2679	1030.639637374192	38
0	2686	1033.409755233862	39
0	2697	1034.686777316165	39
0	2707	1037.51040768995	40
0	2710	1041.322358836296	41
0	2714	1042.174671689402	40
0	2721	1046.110778342307	39
0	2733	1048.272202356487	39
0	2737	1050.29166241936	38
0	2739	1050.305294113724	39
0	2761	1054.601654992848	38
0	2763	1054.90538424492	39
0	2766	1057.173148609057	39
0	2780	1062.006954026732	37
0	2782	1062.204909596664	38
0	2784	1062.615260714764	39
0	2810	1070.197897412326	34
0	2819	1071.911214786703	34
0	2824	1072.320743548898	35
0	2826	1072.899180330339	36
0	2829	1074.661761993229	36
0	2835	1076.778940207897	35
0	2839	1077.240087601995	35
0	2848	1078.502685398299	35
0	2856	1083.025714700272	34
0	2860	1083.317241143327	35
0	2863	1084.242311634307	35
0	2868	1085.526962155568	36
0	2871	1087.396374859197	36
0	2875	1089.230186806682	35
0	2882	1090.152369102951	36
0	2884	1090.665708144005	37
0	2905	1097.342830665837	35
0	2907	1099.00423398694	36
0	2909	1099.476117200463	37
0	2911	1100.027635537007	38
0	2918	1103.754037981524	37
0	2921	1106.48358601413	37
0	2927	1108.0477406548	37
0	2930	1111.639490954654	37
0	2932	1113.12752916716	38
0	2934	1113.331481713461	39
0	2937	1115.085537747971	39
0	2940	1117.816416025618	39
0	2947	1119.580038684335	38
0	2956	1123.558668349719	38
0	2961	1125.458073275915	39
0	2974	1128.717984271808	35
0	2979	1130.868939965061	33
0	2985	1134.100891178365	32
0	2988	1135.47631770944	33
0	2992	1136.329637289867	32
0	2994	1137.323680808919	33
0	2996	1137.498871027543	34
0	2998	1138.427033001013	35
0	3001	1140.217020242969	35
0	3006	1141.798272638708	36
0	3009	1142.319803598911	36
0	3011	1143.249257923965	37
0	3021	1146.29868030337	37
0	3028	1149.306763535376	38
0	3030	1150.731842264848	39
0	3032	1151.172654763581	40
0	3039	1156.302026283909	41
0	3048	1158.258097465321	41
0	3052	1159.033874565349	42
0	3071	1164.505009140526	40
0	3078	1166.669373374698	39
0	3091	1176.108694797709	35
0	3096	1178.613157490298	35
0	3098	1178.831251074137	36
0	3100	1178.880104743923	37
0	3106	1181.704880643282	35
0	3116	1182.966956079025	36
0	3119	1184.911906349115	37
0	3122	1185.969958558279	37
0	3130	1188.864650340932	35
0	3135	1190.147586794362	36
0	3145	1192.186907000208	35
0	3147	1192.616232251888	36
0	3149	1193.732667896946	37
0	3153	1194.969584294965	38
0	3168	1202.013421509386	33
0	3189	1209.065096186934	27
0	3191	1210.701354293383	28
0	3193	1210.839458642274	29
0	3196	1211.916010976982	29
0	3201	1213.55437376783	29
0	3204	1213.985978502677	30
0	3206	1214.158172542782	31
0	3209	1215.633544969008	31
0	3211	1215.780208158941	32
0	3217	1218.057033121936	32
0	3221	1220.292333915373	31
0	3223	1220.488117205258	32
0	3230	1224.645402788427	31
0	3235	1228.852965368949	32
0	3237	1229.030803224943	33
0	3241	1230.820792503405	32
0	3246	1232.133704821227	32
0	3249	1233.318897799324	33
0	3254	1234.966752070447	33
0	3258	1235.427283916354	34
0	3268	1237.382674576206	35
0	3276	1238.417331618491	36
0	3284	1241.608692326509	37
0	3286	1242.968714525971	38
0	3290	1243.996758590613	37
0	3296	1246.668756937018	37
0	3300	1247.054954999848	38
0	3305	1250.356197926861	37
0	3312	1252.073045301933	38
0	3315	1252.793116889916	39
0	3317	1252.827234110485	40
0	3326	1256.108854805347	40
0	3337	1261.534615404933	41
0	3339	1262.193252622362	42
0	3341	1262.267756109245	43
0	3349	1269.129328398825	41
0	3366	1277.044106656529	39
0	3368	1277.50335770946	40
0	3370	1278.05611886699	41
0	3375	1279.596838720615	42
0	3381	1281.296747654487	42
0	3387	1284.287495655161	42
0	3390	1285.225570578975	42
0	3392	1285.466279713622	43
0	3394	1286.192709476219	44
0	3405	1287.76050140148	45
0	3408	1289.01076245061	45
0	3410	1289.468819478674	46
0	3412	1289.682275241649	47
0	3420	1291.910019454139	48
0	3428	1294.997184720226	49
0	3430	1295.582907271872	50
0	3432	1296.030965519951	51
0	3435	1296.799258171135	51
0	3437	1297.198012971474	52
0	3440	1300.495059582788	52
0	3443	1304.272414813915	52
0	3445	1305.776441279492	53
0	3447	1306.825997398465	54
0	3450	1307.47402397197	54
0	3468	1317.716620749898	51
0	3470	1318.253198922291	52
0	3477	1324.224325534523	51
0	3479	1325.103409595218	52
0	3481	1326.369375728848	53
0	3483	1326.430407639792	54
0	3496	1330.745974242518	53
0	3498	1330.979023942672	54
0	3500	1331.303935061775	55
0	3509	1333.338482673497	55
0	3511	1333.365106873339	56
0	3524	1336.03436560023	55
0	3526	1336.882154875638	56
0	3528	1337.14091438334	57
0	3530	1337.658134376536	58
0	3541	1340.997319602744	59
0	3544	1342.275952368708	59
0	3547	1345.028905571743	59
0	3552	1348.257813567926	60
0	3554	1350.107232861572	61
0	3557	1350.626713703382	61
0	3559	1350.656354967285	62
0	3581	1362.571847052338	55
0	3587	1365.074885956469	55
0	3593	1369.592875557861	55
0	3597	1370.375995504208	56
0	3600	1371.561322348545	57
0	3602	1371.573840980805	58
0	3612	1375.467462081215	56
0	3614	1375.47510833048	57
0	3617	1377.095993423496	58
0	3619	1377.718496474158	59
0	3621	1377.739442305879	60
0	3624	1378.218703869195	60
0	3626	1379.43451806173	61
0	3633	1380.240794162914	62
0	3637	1380.957680908302	62
0	3649	1383.722902868674	62
0	3657	1386.20597122252	63
0	3667	1390.549501169975	62
0	3683	1398.217898167534	58
0	3686	1401.305675706313	58
0	3688	1401.721608276162	59
0	3690	1401.982638633335	60
0	3694	1402.086497683163	61
0	3697	1405.061457812709	62
0	3713	1409.478123154257	61
0	3719	1413.563424256416	61
0	3721	1414.057596200946	62
0	3723	1414.518272932411	63
0	3725	1414.833857478766	64
0	3727	1415.003480559026	65
0	3733	1416.692188886413	64
0	3736	1417.179788425317	65
0	3738	1417.330315751514	66
0	3742	1417.606353291694	67
0	3748	1419.141520760889	68
0	3751	1420.143708678427	68
0	3754	1422.776981438885	68
0	3759	1428.673373578472	69
0	3761	1430.223918665575	70
0	3763	1430.301761801334	71
0	3771	1434.322805718389	69
0	3773	1435.335277304416	70
0	3784	1441.384202700868	65
0	3787	1443.741817787479	65
0	3789	1445.146173624594	66
0	3791	1446.108990835479	67
0	3799	1449.828683565257	67
0	3802	1450.432384514929	68
0	3830	1462.394201013478	64
0	3837	1464.741088476511	63
0	3839	1464.97042874155	64
0	3845	1470.33250186416	61
0	3854	1472.41966586643	61
0	3859	1474.704889755277	62
0	3865	1477.157543703258	62
0	3870	1480.695729868826	63
0	3874	1480.957438568581	64
0	3880	1483.029744092037	65
0	3892	1490.240886351854	59
0	3896	1490.473642890022	60
0	3901	1492.046468323465	59
0	3912	1497.601174133425	57
0	3915	1498.398599354567	57
0	3917	1498.82832221673	58
0	3922	1501.442402395653	59
0	3940	1507.857197221511	59
0	3945	1509.135777397379	60
0	3948	1511.15703123461	60
0	3950	1511.34850212359	61
0	3953	1513.94458320248	61
0	3955	1514.304186030513	62
0	3960	1517.388678917883	60
0	3962	1517.518840526243	61
0	3970	1519.444867989184	60
0	3972	1519.658935717423	61
0	3977	1521.226151899711	61
0	3987	1525.184459008474	60
0	3992	1527.127045598327	60
0	4000	1531.234098601643	59
0	4003	1531.473885137196	59
0	4009	1536.586377116482	59
0	4011	1537.363855809697	60
0	4013	1537.721688160296	61
0	4015	1538.098793813258	62
0	4018	1538.928391917094	62
0	4023	1541.141389948653	62
0	4027	1542.94946116936	62
0	4032	1544.44536632973	63
0	4034	1545.715257121244	64
0	4041	1550.238864182468	63
0	4046	1551.153034771828	64
0	4048	1551.560711178098	65
0	4061	1556.240271425581	64
0	4063	1557.003697399861	65
0	4066	1557.920986055018	65
0	4071	1559.627766869934	66
0	4081	1566.781473653947	65
0	4085	1567.228349261369	66
0	4094	1569.74885421888	67
0	4105	1573.997805870531	65
0	4107	1575.12897744917	66
0	4109	1575.394601778626	67
0	4111	1575.59186414627	68
0	4115	1576.555806962976	69
0	4122	1578.429155531365	68
0	4128	1581.564292417527	69
0	4133	1582.49346233364	70
0	4137	1585.54160958618	69
0	4141	1585.969014451399	70
0	4144	1587.91972968242	71
0	4151	1589.785332918659	70
0	4163	1597.015826642426	67
0	4166	1597.320249903976	67
0	4169	1597.464552272556	67
0	4175	1599.383843029571	67
0	4186	1604.425132571866	65
0	4190	1606.733114119573	66
0	4201	1612.673321804178	65
0	4204	1614.449252251091	65
0	4208	1614.726899859435	66
0	4211	1615.267279792138	67
0	4216	1615.961987032146	65
0	4219	1616.463147978032	65
0	4221	1616.621815277892	66
0	4224	1616.935283902404	66
0	4236	1621.2760323974	63
0	4241	1623.854919791824	64
0	4249	1625.751349201734	65
0	4251	1626.496726504235	66
0	4256	1629.381187089511	67
0	4258	1630.066756460859	68
0	4274	1637.771248735393	64
0	4292	1644.323564236231	63
0	4294	1644.360046365528	64
0	4300	1645.120547901235	65
0	4312	1648.830874030888	59
0	4314	1649.063478572624	60
0	4320	1650.666651304133	60
0	4328	1651.308879736015	60
0	4337	1653.52999557195	61
0	4342	1657.116602102474	62
0	4345	1658.132701586568	62
0	4347	1658.422477209074	63
0	4349	1659.092223199417	64
0	4351	1659.223191079801	65
0	4354	1659.464421378263	65
0	4356	1659.957176842128	66
0	4361	1661.976571296077	67
0	4366	1662.637364846638	68
0	4369	1666.6203506998	68
0	4377	1669.342351643329	69
0	4382	1671.709343286284	70
0	4392	1676.813203906213	66
0	4394	1677.577733741889	67
0	4397	1677.96409308733	67
0	4407	1681.364195147839	66
0	4410	1681.4548035113	66
0	4415	1685.37832862061	67
0	4421	1688.782514402309	67
0	4425	1692.581174626775	66
0	4427	1693.593502126178	67
0	4429	1693.603316554592	68
0	4431	1693.619154280064	69
0	4446	1697.894297773264	69
0	4448	1698.619850961995	70
0	4452	1699.652766277945	69
0	4465	1702.793472201366	70
0	4473	1704.639071825365	71
0	4476	1705.639549763829	72
0	4481	1707.479116757393	73
0	4488	1708.933344266727	74
0	4491	1711.414816093305	75
0	4493	1711.721927235526	76
0	4496	1712.484806548511	76
0	4511	1717.11170151736	76
0	4522	1722.682800847588	71
0	4524	1722.732508507791	72
0	4535	1725.116524784812	72
0	4537	1725.295798271273	73
0	4546	1726.993607736153	74
0	4560	1731.932967517642	72
0	4566	1735.297890489373	69
0	4568	1735.800056912991	70
0	4570	1736.863320935193	71
0	4574	1737.255891318963	72
0	4589	1743.20762511601	70
0	4591	1743.227086786644	71
0	4609	1747.544381184157	72
0	4615	1749.322768224455	71
0	4617	1749.383564857401	72
0	4619	1751.052212078156	73
0	4637	1762.028740633216	73
0	4643	1764.861507523806	70
0	4645	1764.887848604108	71
0	4647	1765.100258698345	72
0	4649	1765.109332080502	73
0	4651	1765.484121954249	74
0	4653	1765.93563904285	75
0	4658	1767.229839221006	76
0	4662	1767.941550356818	75
0	4665	1768.271638470142	75
0	4667	1768.856844806933	76
0	4669	1769.382734466331	77
0	4673	1774.880093043076	76
0	4675	1775.145811042555	77
0	4679	1778.370708491105	76
0	4682	1781.084347316744	76
0	4710	1793.964741574661	72
0	4712	1794.610148348653	73
0	4719	1797.601687706123	74
0	4721	1797.62789578343	75
0	4725	1799.492460008297	75
0	4727	1799.52001632303	76
0	4729	1800.186105238727	77
0	4731	1800.323706662933	78
0	4737	1804.251863107662	78
0	4742	1807.406586327086	79
0	4745	1810.774354083388	79
0	4752	1812.127727778632	78
0	4759	1815.890769535907	77
0	4766	1819.87707795277	76
0	4769	1822.261804824273	76
0	4774	1826.538314629355	77
0	4776	1827.099325772661	78
0	4778	1829.803545047376	79
0	4791	1836.074268306902	78
0	4805	1840.748851178717	78
0	4808	1840.869430879714	79
0	4810	1841.012540842246	80
0	4813	1841.910851116243	80
0	4817	1843.192047577262	81
0	4820	1843.664129938139	82
0	4822	1843.785692867635	83
0	4826	1845.431481133984	84
0	4834	1848.244628162845	85
0	4836	1848.746268802579	86
0	4842	1851.080698225141	84
0	4849	1853.205498837675	84
0	4851	1853.550106961464	85
0	4858	1856.82610466627	85
0	4864	1858.225605820815	86
0	4866	1858.234328341759	87
0	4868	1858.595987140667	88
0	4873	1860.268132160983	86
0	4875	1860.722455918484	87
0	4888	1865.768759358175	83
0	4890	1866.971519887033	84
0	4892	1867.119354178597	85
0	4896	1868.766589505975	86
0	4907	1872.199243757443	84
0	4910	1872.726755279147	85
0	4912	1872.84030412721	86
0	4917	1874.176512616262	87
0	4919	1876.179558076575	88
0	4926	1878.529874677781	86
0	4931	1880.254965393862	87
0	4940	1883.041159230825	87
0	4947	1887.98545715867	87
0	4949	1888.146374117217	88
0	4951	1888.336086825611	89
0	4959	1891.504081439688	87
0	4961	1892.672231270129	88
0	4967	1894.045414965866	88
0	4969	1896.266879765257	89
0	4972	1898.047423478745	89
0	4979	1900.512819198734	88
0	4981	1900.638479393567	89
0	4993	1906.738840886651	83
0	5004	1908.128956211533	81
0	5011	1909.357893351727	80
0	5013	1910.81621812361	81
0	5024	1916.661964068589	79
0	5035	1920.672230383689	79
0	5038	1921.440661843357	80
0	5050	1928.659891742118	80
0	5052	1930.163672029617	81
0	5055	1931.257699896096	81
0	5060	1932.327515574662	82
0	5062	1932.519248903071	83
0	5064	1933.314005223626	84
0	5066	1933.854965815046	85
0	5076	1935.1875695232	86
0	5081	1937.410253774763	87
0	5087	1941.541303731997	88
0	5089	1942.129393432228	89
0	5095	1947.077149000171	89
0	5107	1954.025476977789	88
0	5109	1954.224746082015	89
0	5114	1955.523093379118	90
0	5117	1956.297007044776	91
0	5125	1958.200614507693	92
0	5129	1958.896754153197	93
0	5131	1959.597526872644	94
0	5142	1961.931592218474	93
0	5156	1965.742654750782	93
0	5162	1968.05507258988	91
0	5164	1968.373096774699	92
0	5166	1968.410410723924	93
0	5168	1968.641463316152	94
0	5171	1970.324607930071	94
0	5178	1975.012874022628	93
0	5180	1975.025742766433	94
0	5182	1976.898432608273	95
0	5187	1979.823392615623	93
0	5189	1979.835618901169	94
0	5201	1983.094045331274	94
0	5208	1986.383394359462	95
0	5224	1990.739744689928	93
0	5242	1998.414462845078	89
0	5244	1998.515599700076	90
0	5246	1999.624309418214	91
0	5248	1999.848524514613	92
1	0	0	0
1	2	0.753422488317	0
1	3	1.448683834074	0
1	8	2.888790252459	0
1	9	4.672014360991	0
1	17	5.822684852822	0
1	18	7.462603685308	0
1	20	8.405191974133	0
1	21	8.89884493666	0
1	23	9.127575461058	0
1	25	9.721625262289	1
1	27	9.758847578753	2
1	28	10.157303588634	2
1	41	16.340960313212	2
1	44	16.850221038189	3
1	45	17.780097407835	3
1	49	20.996215141382	2
1	50	21.416152998101	1
1	52	23.639530996683	1
1	54	24.452538106005	2
1	55	25.202371537577	2
1	61	25.893801697532	2
1	65	27.609369273469	3
1	66	27.924431559241	3
1	68	28.314061753722	3
1	77	29.671080146174	4
1	84	31.684140396468	5
1	86	31.937267746328	6
1	93	33.749597199544	6
1	94	33.987980090446	5
1	96	34.200878649545	5
1	100	34.727654634786	6
1	105	35.743495563286	7
1	107	36.168538144374	7
1	111	38.440914059383	6
1	118	41.67734781389	5
1	122	45.892454257736	4
1	123	48.075623485559	3
1	124	49.08687173797	2
1	129	51.379558453684	2
1	140	53.558837688627	3
1	141	53.789412145775	3
1	148	55.956153614556	2
1	150	56.074667311596	2
1	151	56.675415778046	2
1	152	57.248261008382	1
1	153	57.43055507053	0
1	164	59.63310480386	0
1	166	59.827795773438	1
1	171	62.121610621602	2
1	172	62.13713279461	2
1	177	62.742857434211	2
1	178	62.802003930463	2
1	180	63.594770705115	2
1	185	66.746993427027	3
1	190	68.439841318227	4
1	192	69.135624022679	5
1	193	72.273781725847	5
1	203	77.698552874945	5
1	205	78.284955598357	5
1	206	78.509045888662	4
1	207	78.943703692245	3
1	215	81.267053036533	3
1	216	81.27744705183	3
1	217	81.424981999215	2
1	219	81.933739903263	2
1	220	82.420432899095	2
1	221	82.760135386248	1
1	222	84.174434308782	0
1	224	84.375824785556	0
1	229	85.854042193046	1
1	230	86.001064124449	1
1	231	86.333914722841	0
1	233	86.987675844626	0
1	234	87.02417505157	0
1	236	87.117289979477	0
1	237	87.840284331477	0
1	242	89.499267950617	0
1	244	89.543347598418	1
1	246	89.634659741376	2
1	251	91.331007678917	3
1	252	92.065771719783	3
1	254	92.10282734308	3
1	256	92.12525486714	4
1	258	93.678574271373	5
1	266	97.760456947273	6
1	270	98.521220367391	6
1	275	101.010022607649	6
1	277	101.057788728376	7
1	278	101.852024514126	7
1	283	103.550504741639	7
1	284	103.871028659639	7
1	285	104.003997595788	6
1	286	105.016162645084	5
1	288	106.482105622558	5
1	298	109.65245315009	5
1	300	111.271193041262	5
1	301	111.313307986621	5
1	303	112.500244688033	5
1	304	112.589456432735	5
1	306	112.893796230192	5
1	308	114.48621022819	6
1	309	115.534232168838	6
1	313	116.358653253729	6
1	318	118.469088569996	6
1	325	121.343742887184	5
1	327	121.686720071953	5
1	328	123.083185225687	5
1	338	124.864217161987	5
1	340	125.08427072763	5
1	342	125.112932035256	5
1	344	125.470431745166	6
1	345	125.735717948052	6
1	346	127.570015241138	5
1	348	128.205153681831	5
1	349	128.492003781072	5
1	353	131.461545274599	4
1	354	132.628108900362	3
1	355	132.868133972815	2
1	357	133.400788912331	2
1	359	133.4737169689	3
1	360	133.642161562353	3
1	362	134.093167439481	3
1	364	134.163502342304	4
1	366	137.450173784374	5
1	367	137.973699812089	5
1	368	138.590681422633	4
1	372	141.920707561047	3
1	373	142.613940754563	2
1	375	144.338799207552	2
1	377	144.818841081334	3
1	379	144.979761113362	4
1	395	150.738321536203	4
1	396	150.900362795884	3
1	397	151.016837399869	2
1	399	151.210180684704	2
1	404	153.030719054745	3
1	412	159.361376534816	4
1	414	159.404727528794	5
1	418	159.917962831651	5
1	419	161.468200094403	4
1	421	162.439515315152	4
1	423	162.869015681663	5
1	425	163.579413942145	6
1	427	164.141679937083	7
1	428	164.625559940711	7
1	432	168.526202109508	6
1	433	170.072618528395	5
1	437	170.616096715349	4
1	438	170.987873250314	3
1	439	171.629652001766	2
1	441	172.448087850598	2
1	443	174.499443410344	3
1	447	174.854301842014	3
1	449	174.993972921414	3
1	450	176.470037847584	3
1	452	176.542005108368	3
1	454	177.316738822142	4
1	456	178.510017811002	5
1	457	178.708344315609	5
1	458	178.710049192537	4
1	462	178.929354089923	4
1	464	179.059860793064	5
1	466	179.259470525887	6
1	468	179.823900389167	6
1	469	179.838511823217	5
1	474	182.027606663649	5
1	479	184.938017773705	6
1	483	185.643668097518	6
1	484	188.849406298182	5
1	485	188.949003830632	4
1	490	189.587795151317	4
1	492	192.021921218091	5
1	494	192.758759529864	6
1	496	193.66053289545	7
1	497	193.905385761058	7
1	498	194.216646499058	6
1	502	194.973897544808	5
1	506	195.529311770025	5
1	518	200.811093921101	6
1	520	200.966051163194	7
1	524	202.586537571474	7
1	526	203.860447993352	7
1	527	204.004063765587	7
1	538	208.016512966171	7
1	540	208.311011035631	8
1	542	208.797087760204	9
1	546	209.520402440886	9
1	556	213.027322509735	8
1	557	213.260617723849	7
1	561	213.706924478831	7
1	563	213.908440264329	8
1	565	214.386380465588	9
1	567	216.28191880894	9
1	569	217.349665774289	9
1	570	218.180824468884	9
1	574	219.188941018493	8
1	575	220.186246098284	7
1	582	223.698817252801	7
1	584	225.961964810542	7
1	588	227.130712983725	6
1	590	228.038218750657	6
1	592	228.803615169834	7
1	593	229.731702394777	7
1	594	229.804023225549	6
1	596	229.908628997769	6
1	598	230.165852758432	7
1	600	230.262788298941	8
1	601	230.724713938309	8
1	602	231.656108475038	7
1	603	232.252107467277	6
1	604	233.494527742547	5
1	605	234.400421014086	4
1	607	234.696421573164	4
1	612	237.155342044612	5
1	616	239.20090771841	5
1	618	239.99635384727	5
1	619	240.499946128766	5
1	620	240.561856809751	4
1	622	241.987831739195	4
1	623	242.314902440852	4
1	624	242.690983203743	3
1	629	246.379922173736	3
1	631	246.759892591129	4
1	632	248.096674565399	4
1	633	248.481044569463	3
1	634	250.127229016209	2
1	641	254.072523099997	2
1	643	254.620070586067	3
1	658	259.394110177251	4
1	660	260.223627824707	5
1	662	260.29178224229	6
1	663	260.354113006327	6
1	665	260.464246498378	6
1	666	260.820614955903	6
1	670	261.550974671137	5
1	671	263.339404397403	4
1	672	263.463225004198	3
1	674	263.897833427061	3
1	676	263.959894827979	4
1	678	266.663837769541	5
1	679	266.808493067131	5
1	684	268.886706815918	5
1	686	269.380719480911	6
1	688	269.779331813091	7
1	690	270.113416722771	8
1	691	270.168098183904	8
1	692	270.315409131347	7
1	693	270.800285614053	6
1	697	271.554605635827	6
1	699	272.117219219941	7
1	702	272.962290532592	8
1	703	273.066001775741	8
1	707	274.714461787257	7
1	709	274.909469778906	7
1	711	275.387390808887	8
1	712	278.064337866424	8
1	714	278.198954452804	8
1	716	278.235047912101	9
1	720	278.621706554045	9
1	721	278.813221085813	8
1	722	278.940935931735	7
1	724	280.188519265984	7
1	726	281.438333147472	8
1	738	282.96146620824	9
1	741	283.448161730171	9
1	743	283.488655154325	9
1	744	283.508490622102	9
1	748	285.472213890596	8
1	749	286.938513324305	7
1	751	287.086383295629	7
1	752	288.599981667805	7
1	754	289.509255813707	7
1	755	290.747252519515	7
1	756	290.884324220536	6
1	758	290.9461674145	6
1	760	292.085778082603	7
1	765	293.549927285123	8
1	769	296.190130803606	8
1	771	296.645542048104	8
1	773	296.682972214871	9
1	775	296.729917841144	10
1	777	296.789851658071	11
1	778	297.839190613346	11
1	782	301.659635017221	10
1	795	304.66072694673	10
1	797	306.732889053899	10
1	802	307.816920773901	10
1	806	308.870992307472	11
1	809	309.266242803253	12
1	811	309.635674019258	13
1	813	311.660663492158	14
1	818	315.651817091945	15
1	819	316.00187057698	15
1	821	317.420977160316	15
1	822	317.42167967746	15
1	823	319.420711614834	14
1	825	320.612903544931	14
1	826	320.945350984978	14
1	830	322.034140178878	13
1	831	323.102155184985	12
1	833	323.560255794798	12
1	835	323.711129174076	13
1	837	324.699234015746	14
1	839	325.969348642166	15
1	846	328.31466924994	15
1	848	328.46121450231	15
1	849	328.551707861279	15
1	854	331.227101074595	15
1	856	331.607704585175	16
1	857	331.931330693169	16
1	861	335.500037989531	15
1	862	335.99720354166	14
1	864	336.400457053986	14
1	868	337.24004324886	14
1	870	337.941166735146	14
1	871	338.129780363966	14
1	872	338.81928200567	13
1	874	339.071133848177	13
1	875	340.146686869999	13
1	877	340.58149935307	13
1	879	341.086431328025	14
1	880	342.413098717774	14
1	882	342.421597007923	14
1	886	344.832187823008	15
1	897	350.331163789398	15
1	901	353.187803696736	14
1	903	353.899806292474	14
1	904	354.171737284788	14
1	905	355.035889447183	13
1	909	355.462374444095	13
1	914	357.646223379671	13
1	916	358.268066492133	13
1	917	358.755352926677	13
1	918	359.246624529517	12
1	919	359.65735231065	11
1	921	359.753825759513	11
1	926	359.878990228188	12
1	931	361.922900722965	13
1	935	365.357263424769	13
1	939	367.392630819937	12
1	943	369.034301992657	11
1	944	371.820793792148	10
1	948	374.812441442275	9
1	952	375.304410313824	8
1	957	378.331248032905	8
1	964	380.86200842274	8
1	965	380.915996982923	7
1	969	382.0857398982	6
1	971	382.486250880192	6
1	973	382.807615191343	7
1	974	384.257872639691	7
1	978	384.808294380653	7
1	981	385.330608762916	8
1	983	385.6053920664	9
1	984	386.46815463892	9
1	985	386.650524188979	8
1	987	387.86700949535	8
1	989	388.143962425616	9
1	991	388.372403276862	10
1	993	388.404442585871	11
1	995	388.596758369136	12
1	997	388.634807155252	13
1	998	389.013803990961	13
1	1003	389.963757432038	13
1	1004	390.144992876984	13
1	1008	391.284259214584	13
1	1010	391.400139749611	13
1	1011	391.605913131833	12
1	1012	394.862124685455	11
1	1016	395.746213514517	11
1	1018	396.457858084766	11
1	1022	397.426480762062	10
1	1023	397.860845954502	9
1	1027	398.744783706226	8
1	1028	399.108888866208	7
1	1030	399.398479475097	7
1	1031	400.156653530851	7
1	1032	400.353144036599	6
1	1033	401.461820695293	5
1	1038	402.872352761844	5
1	1040	402.985034926624	6
1	1041	403.30827197545	6
1	1043	403.696732138652	6
1	1045	404.334804881759	7
1	1047	404.642855828176	8
1	1049	405.487961290031	9
1	1051	405.888524727116	10
1	1052	405.952366040269	10
1	1056	406.441968470574	10
1	1058	406.931962552239	11
1	1060	407.493838525497	12
1	1065	408.072150098086	12
1	1067	408.102305576422	12
1	1068	408.751422265442	12
1	1070	409.416099244056	12
1	1071	409.492310656193	12
1	1072	410.922131935195	11
1	1073	411.412284321868	10
1	1074	411.662869274032	9
1	1082	414.557192867743	9
1	1086	414.999055554027	10
1	1089	415.402661818039	11
1	1091	415.642093967663	12
1	1095	419.144684560392	12
1	1096	419.687776630287	11
1	1097	419.908161264152	10
1	1098	420.017745337667	9
1	1100	421.994766219568	9
1	1101	422.013298519602	9
1	1108	423.578107948857	8
1	1112	424.155926003916	8
1	1114	424.179994343856	9
1	1116	424.919045115663	9
1	1127	426.920605422623	9
1	1134	431.360007035753	9
1	1135	431.741543240391	8
1	1137	432.04088146026	8
1	1138	433.573551700948	8
1	1140	433.722033992152	8
1	1141	434.073214702407	8
1	1145	435.769960876195	7
1	1149	436.007746045523	7
1	1152	437.023183180792	8
1	1157	438.602872520271	9
1	1159	438.668064547212	10
1	1160	438.744508345002	10
1	1162	438.993772606504	10
1	1164	439.024604618678	11
1	1171	439.971522428736	11
1	1172	441.486946524775	10
1	1176	444.038527280748	9
1	1180	447.175106552025	8
1	1181	447.463746541061	7
1	1191	451.427348066396	7
1	1193	454.631734803955	7
1	1195	457.03485747257	7
1	1196	457.699979397485	7
1	1198	457.877323622254	7
1	1205	459.77174688862	8
1	1208	460.314583813446	9
1	1210	460.335083371836	10
1	1212	461.545508365901	11
1	1213	461.832008160427	11
1	1215	463.268732942668	11
1	1217	463.384598061674	12
1	1219	464.356305538118	13
1	1221	464.711058093637	14
1	1223	466.282285573298	15
1	1224	468.009838883714	15
1	1226	468.205883841142	15
1	1228	468.435270439393	16
1	1230	468.786400363971	17
1	1231	469.735934072982	17
1	1238	472.290335876383	16
1	1239	474.315433355172	15
1	1241	475.536843891856	15
1	1245	476.765018879548	15
1	1247	477.613631991763	15
1	1248	478.394323146748	15
1	1249	478.45047948754	14
1	1250	479.4758475501	13
1	1251	479.582530640071	12
1	1257	481.248918731856	12
1	1259	481.275213028863	13
1	1262	482.063706078319	13
1	1263	482.818112674277	12
1	1264	483.396654610846	11
1	1265	483.73762499451	10
1	1267	483.811992267578	10
1	1268	484.664214314301	10
1	1270	485.680195812759	10
1	1271	485.757930801003	10
1	1273	486.088580980845	10
1	1280	488.037326761645	10
1	1285	492.083147138542	10
1	1292	495.369738195451	10
1	1297	495.934726705553	10
1	1299	496.779792123045	11
1	1304	499.552687881201	12
1	1305	501.043439169392	12
1	1307	501.677931914142	12
1	1308	502.721356583528	12
1	1312	503.262504815648	11
1	1314	504.4956208603	11
1	1316	505.872379950081	12
1	1317	507.739509483347	12
1	1327	510.012018259899	12
1	1335	513.521150438295	12
1	1340	515.87958678837	12
1	1342	516.316998162785	13
1	1344	517.498463971435	14
1	1348	517.73959298565	15
1	1356	520.884231304349	15
1	1357	520.919714267547	14
1	1362	522.584452534468	14
1	1369	524.339441333604	14
1	1374	525.98512218699	14
1	1379	527.101114960542	15
1	1380	527.140491399096	15
1	1382	528.26806792215	15
1	1387	531.373896025479	16
1	1388	532.028373920235	16
1	1389	532.240524606481	15
1	1393	534.246664627238	14
1	1394	534.558618910417	13
1	1399	536.628095713262	13
1	1400	536.716986097002	13
1	1402	536.762279774462	13
1	1404	538.570805763618	14
1	1405	539.87737703173	14
1	1407	540.176512546731	14
1	1411	540.523775956394	15
1	1417	541.949685092034	16
1	1419	542.408867537616	17
1	1421	542.645172051848	18
1	1437	549.653644898812	18
1	1438	550.23226820116	17
1	1439	550.463252569976	16
1	1441	550.645203019643	16
1	1443	550.977809462961	17
1	1444	551.860727319809	17
1	1446	551.877068342191	17
1	1447	551.954298116655	17
1	1448	552.78436225655	16
1	1450	554.035378662166	16
1	1451	555.286803646036	16
1	1452	557.149652440636	15
1	1453	557.465793601528	14
1	1461	562.808958627581	14
1	1463	563.915423697359	15
1	1473	567.071069585084	16
1	1478	569.194114412359	17
1	1487	571.533689065047	18
1	1489	572.381550408696	19
1	1490	572.846251169892	19
1	1492	572.883169412976	19
1	1493	572.888093893244	19
1	1494	573.887223813471	18
1	1496	574.465224190018	18
1	1500	578.956845431305	18
1	1502	579.441549017004	18
1	1503	580.668701344045	18
1	1504	580.908678026196	17
1	1511	584.831297827373	16
1	1512	585.225113102745	15
1	1514	585.455346310332	15
1	1516	587.686555586039	16
1	1520	590.651659438444	16
1	1521	593.101195110376	15
1	1525	594.656166693512	14
1	1527	594.690627048691	14
1	1528	596.987322587973	14
1	1529	597.370865506907	13
1	1531	597.926148038944	13
1	1532	600.181450487803	13
1	1534	600.466653928938	13
1	1539	600.825986427459	14
1	1540	602.766059521338	14
1	1542	602.766930449593	14
1	1543	603.548903940869	14
1	1547	604.864629973816	13
1	1549	605.059499527035	13
1	1551	606.243889504218	14
1	1555	608.105040403307	15
1	1557	608.228676045738	16
1	1559	608.440226911382	17
1	1561	609.546458865034	17
1	1565	610.873650303847	16
1	1569	612.326781278836	15
1	1574	613.937579886728	15
1	1575	614.057143475603	15
1	1577	614.462167023123	15
1	1579	616.619374117378	16
1	1581	616.828667373044	17
1	1585	617.459126909961	18
1	1591	619.235660718706	19
1	1592	620.028401891504	19
1	1597	621.520386862559	19
1	1601	623.832221087838	19
1	1606	627.403446413279	19
1	1608	627.54764555468	20
1	1609	629.295236662221	20
1	1613	630.069552926545	20
1	1627	632.024606575292	21
1	1632	633.862085468882	21
1	1633	634.295676863755	20
1	1637	634.406825027508	20
1	1640	634.83871452958	21
1	1642	635.189656198815	22
1	1643	635.37035197717	22
1	1644	635.37949697072	21
1	1646	635.749261830124	21
1	1647	636.446534835353	21
1	1648	637.22615985104	20
1	1652	638.005073667235	19
1	1653	638.299015289868	18
1	1655	639.72238991585	18
1	1660	642.565503278756	19
1	1662	642.886867031046	20
1	1664	643.260766102956	21
1	1666	644.579957530168	22
1	1667	644.886568441786	22
1	1671	648.387815656894	21
1	1673	648.597806534233	21
1	1675	648.992713081473	22
1	1680	651.325996518981	23
1	1682	651.498686344228	24
1	1683	651.692988390636	24
1	1685	652.553681037568	24
1	1686	654.376457234738	24
1	1687	655.032929015237	23
1	1689	655.077698590141	23
1	1691	655.538160023168	24
1	1693	656.158348958434	25
1	1695	656.532245510846	26
1	1697	656.950961995728	27
1	1699	657.25283374824	28
1	1700	657.510267525132	28
1	1708	659.980259792419	28
1	1709	660.421497424836	28
1	1710	662.683176959179	27
1	1712	662.711405068903	27
1	1717	663.049384299592	28
1	1721	664.883958963942	29
1	1723	668.493739891494	29
1	1728	671.976464441394	29
1	1730	672.519341389313	30
1	1732	673.556999809695	31
1	1733	673.738359152254	31
1	1735	674.04646809505	31
1	1739	677.501855735473	31
1	1743	678.625926347439	30
1	1744	679.348703044095	29
1	1752	683.872380027405	29
1	1753	684.110314043238	29
1	1754	684.473969813177	28
1	1756	686.000929014673	28
1	1758	686.343300252792	29
1	1759	691.085920923657	29
1	1761	692.604257824746	29
1	1766	694.132841746593	30
1	1767	697.385725678974	30
1	1771	698.158257398499	29
1	1772	698.59810377833	28
1	1776	700.352260825587	27
1	1778	700.711313791821	27
1	1779	702.176133915675	27
1	1781	702.316168278465	27
1	1791	704.960019044353	28
1	1796	705.44963252306	28
1	1797	705.656171134952	27
1	1805	706.95199978087	27
1	1809	707.291660335725	27
1	1813	709.039802059771	27
1	1815	710.466026270085	27
1	1819	711.62328988734	26
1	1821	711.688569282331	26
1	1823	711.758129334715	27
1	1825	711.907468691988	28
1	1827	712.510075587344	29
1	1828	712.869989532198	29
1	1830	713.341481051141	29
1	1834	713.874289967644	30
1	1845	717.480692504743	30
1	1850	719.204458231538	30
1	1851	719.804620725414	30
1	1858	722.34679338604	29
1	1860	722.832291345156	29
1	1861	724.268942947871	29
1	1862	724.303871609087	28
1	1867	725.972574457807	28
1	1868	726.216024152392	28
1	1870	727.252343386353	28
1	1872	727.555478831379	29
1	1879	728.851359206274	30
1	1882	729.727554723439	31
1	1889	738.335224173617	31
1	1891	738.338734112621	31
1	1892	739.902996027067	31
1	1896	740.996889989691	31
1	1898	741.267948203617	32
1	1900	741.778277521108	33
1	1902	744.502831845405	33
1	1904	745.46288804494	33
1	1905	746.014487817947	33
1	1909	748.425982239342	33
1	1917	752.303763581409	33
1	1919	752.669779523366	33
1	1920	753.405678510119	33
1	1927	754.622192074819	32
1	1928	754.803136875546	31
1	1930	755.354459486374	31
1	1931	756.245148779211	31
1	1935	758.997976841259	30
1	1940	760.147233630549	30
1	1944	762.429401823558	31
1	1946	762.938506391108	32
1	1948	764.265858475587	32
1	1950	764.978516399435	32
1	1951	766.105631408125	32
1	1952	766.143504269982	31
1	1956	766.374139658795	31
1	1958	768.276113569173	31
1	1959	768.855024199052	30
1	1960	771.367306077443	29
1	1965	772.049318342308	29
1	1966	772.790221682452	29
1	1968	774.266465720431	29
1	1970	776.615717692295	30
1	1972	778.218185688058	31
1	1973	778.434418238827	31
1	1974	778.707032494172	30
1	1976	781.396595972963	30
1	1980	782.087444128718	31
1	1986	783.425979832676	32
1	1987	784.33050031942	32
1	1991	786.484323924422	32
1	1993	786.517722655814	33
1	1996	787.821816265692	34
1	1998	788.462254603605	35
1	1999	788.494882251684	35
1	2001	789.077677358271	35
1	2003	789.134312437047	36
1	2005	789.135234022134	37
1	2010	789.659658771315	38
1	2014	791.298111875354	38
1	2016	792.15630449489	38
1	2018	792.329991666468	39
1	2019	793.308804610301	39
1	2023	793.962525708984	39
1	2025	794.932439227724	39
1	2026	796.045786947358	38
1	2030	796.234127986775	38
1	2035	797.32277827165	38
1	2045	800.122772892931	37
1	2046	800.375271113494	36
1	2050	802.134680521782	35
1	2054	802.873157502587	34
1	2055	803.324023606754	33
1	2056	803.998070793343	32
1	2058	804.058356217331	32
1	2062	807.634605352684	32
1	2064	807.725226936699	32
1	2066	807.899552482503	33
1	2068	809.934561781249	34
1	2069	810.227106024701	34
1	2070	810.678428401169	33
1	2071	811.17485876312	32
1	2073	811.574758613026	32
1	2075	812.189523119162	33
1	2077	812.218998952295	34
1	2079	813.50556846771	35
1	2080	813.683999553323	35
1	2082	814.437800412655	35
1	2084	815.225265264933	36
1	2086	815.556446028532	37
1	2088	816.565940788101	38
1	2092	819.013512558699	38
1	2093	819.32175079639	37
1	2095	819.580814083713	37
1	2096	820.048884167196	37
1	2097	820.798491294525	36
1	2098	820.952014353693	35
1	2099	821.245996210652	34
1	2104	822.762918244796	34
1	2106	822.917736756412	35
1	2107	823.393174116395	35
1	2108	824.226117746638	34
1	2112	828.179449607225	33
1	2114	828.202822724221	33
1	2116	828.907170625683	34
1	2120	829.146354088822	34
1	2124	831.628259606048	34
1	2127	832.140061802273	35
1	2129	832.392899439006	36
1	2131	832.758166942207	37
1	2133	832.965612734735	38
1	2134	833.194555418584	38
1	2136	833.954672970358	38
1	2137	834.088659324793	38
1	2139	834.274361291991	38
1	2143	836.048643570873	38
1	2144	837.133838413711	37
1	2145	837.288966936236	36
1	2146	837.683553142553	35
1	2156	841.194760862532	34
1	2160	841.723717340405	33
1	2170	844.354921141092	32
1	2171	844.919214805433	31
1	2172	845.24400250625	30
1	2173	845.822610447717	29
1	2175	846.02409011727	29
1	2176	846.07048365403	29
1	2177	846.098528326421	28
1	2178	847.074166134702	27
1	2180	847.266727687308	27
1	2181	848.949142275223	27
1	2182	849.273849021011	26
1	2186	849.692572199085	26
1	2188	850.429443542852	26
1	2189	851.757396838053	25
1	2190	852.267378715441	24
1	2195	854.390868833325	24
1	2196	854.523667568692	24
1	2198	854.885946635725	24
1	2203	855.708397697844	25
1	2205	855.900549655455	26
1	2212	857.268118109087	27
1	2215	859.223020469616	28
1	2216	859.322059805414	28
1	2217	859.659630274987	27
1	2230	863.598742981483	26
1	2231	863.670701714231	25
1	2232	863.693232385312	24
1	2234	864.367084118846	24
1	2235	864.380349400014	24
1	2242	866.100878787871	23
1	2243	867.207911483377	22
1	2245	868.440162989152	22
1	2247	868.559471824388	23
1	2248	871.958353276422	23
1	2252	873.443538825219	23
1	2255	874.463997259639	24
1	2257	875.287435795988	25
1	2259	879.241831614082	26
1	2260	879.426404957576	26
1	2264	879.681094116745	26
1	2269	882.747424832577	26
1	2270	883.54749343577	25
1	2272	883.661326058401	25
1	2273	883.809114210773	25
1	2277	883.976629173434	25
1	2279	884.564915177056	26
1	2284	884.976922216083	27
1	2287	886.247149878413	28
1	2288	886.88576048836	28
1	2290	886.885774843876	28
1	2292	887.434337010059	29
1	2293	887.860530101875	29
1	2297	890.416925626939	29
1	2299	892.498146755883	29
1	2300	892.744245133643	28
1	2302	892.929845675712	28
1	2304	893.147765605443	29
1	2306	893.924934695496	30
1	2316	895.344484090057	30
1	2317	895.957914487739	29
1	2321	896.250382306282	29
1	2328	899.516393734028	30
1	2337	904.646870491967	30
1	2339	905.394339319549	30
1	2343	905.774104857261	30
1	2344	907.338671527687	29
1	2345	908.679243345293	28
1	2347	909.972075091409	28
1	2349	910.217185424076	29
1	2350	910.775727039238	29
1	2351	911.029400362843	28
1	2352	911.071580411818	27
1	2353	911.645551892101	26
1	2355	912.661739322045	26
1	2356	913.61142750466	26
1	2358	913.737883161145	26
1	2362	920.303171752679	26
1	2363	921.051079427672	25
1	2364	921.307364565787	24
1	2368	922.908321473384	23
1	2376	925.067671565473	23
1	2377	925.330959988655	23
1	2378	926.16576962086	22
1	2379	926.727096952503	21
1	2380	927.056097076069	20
1	2388	928.007089584181	20
1	2389	928.066467588307	20
1	2391	928.651849965187	20
1	2410	934.504858601064	21
1	2412	935.548450480628	22
1	2414	935.693595035941	23
1	2419	936.838051997647	23
1	2420	937.700834996668	22
1	2422	939.311560201161	22
1	2423	939.846905956175	22
1	2425	940.116261341532	22
1	2427	940.730195769132	23
1	2428	940.734138254068	23
1	2437	941.971034985152	23
1	2440	942.933332965893	23
1	2445	944.80996066718	23
1	2458	948.992599522553	24
1	2461	949.597578472393	25
1	2462	950.535332501284	25
1	2463	950.758170756108	24
1	2465	951.483148340426	24
1	2472	953.25673414304	24
1	2473	954.802600788283	23
1	2475	954.946516684012	23
1	2477	955.036138491012	24
1	2479	955.087815962589	25
1	2483	957.055899326192	25
1	2484	958.864105549359	24
1	2486	959.621130906161	24
1	2487	959.639910628161	24
1	2488	960.386037179755	23
1	2490	960.695647701625	23
1	2491	960.717904320646	23
1	2493	961.623906441492	23
1	2495	963.273397491126	24
1	2496	963.449577894191	24
1	2497	963.973611715542	23
1	2498	964.403506659221	22
1	2499	964.77756166253	21
1	2501	966.407480397866	21
1	2503	966.83145705847	22
1	2505	966.836354399033	23
1	2506	969.013664666272	23
1	2507	969.422109735191	22
1	2508	969.679885011114	21
1	2512	970.320950018828	21
1	2515	971.168665386627	22
1	2520	973.532444351411	23
1	2521	974.812255716352	23
1	2523	975.508015237715	23
1	2530	976.58849730263	24
1	2533	977.600749603622	25
1	2538	978.287807428495	26
1	2540	978.365201848995	27
1	2542	979.309181436077	28
1	2543	981.958935220293	28
1	2544	982.13729413815	27
1	2546	983.001588579735	27
1	2552	984.534535239578	28
1	2555	988.290004576765	28
1	2562	989.327354254244	28
1	2565	989.537252703374	29
1	2567	989.590996192881	30
1	2568	991.020275111192	30
1	2570	991.415844170948	30
1	2571	991.611603770719	30
1	2573	992.889956694563	30
1	2574	993.218171410597	30
1	2576	993.230521450133	30
1	2578	995.28213767266	31
1	2580	995.779625830477	32
1	2582	995.981565989989	33
1	2586	997.626384767863	33
1	2587	998.71192313257	32
1	2588	999.383012086905	31
1	2590	999.39475568641	31
1	2595	1001.091862745141	32
1	2597	1001.259698090411	33
1	2598	1001.379647301014	33
1	2600	1003.909801202201	33
1	2601	1004.528822302697	33
1	2603	1006.496373706449	33
1	2604	1008.944117358234	33
1	2605	1009.804040458104	32
1	2607	1010.216051565895	32
1	2608	1010.268047515809	32
1	2610	1010.983361568608	32
1	2614	1011.851511876719	33
1	2618	1011.895161749041	34
1	2621	1012.514039381929	35
1	2623	1013.870144755339	35
1	2624	1014.319428444384	34
1	2625	1015.139903128537	33
1	2638	1017.318506491234	32
1	2640	1018.463514012581	32
1	2641	1018.570056939236	32
1	2643	1018.884844936311	32
1	2645	1019.459865586794	33
1	2647	1019.630511305654	34
1	2651	1020.540622338034	34
1	2658	1024.881186048093	33
1	2660	1026.07527999369	33
1	2662	1026.898485582311	34
1	2666	1027.539175918803	35
1	2671	1028.650209248832	36
1	2679	1030.639637374192	37
1	2686	1033.409755233862	38
1	2692	1034.274031505693	38
1	2697	1034.686777316165	38
1	2707	1037.51040768995	39
1	2710	1041.322358836296	40
1	2711	1041.401304173018	40
1	2712	1041.781404078039	39
1	2714	1042.174671689402	39
1	2715	1042.426457263265	39
1	2719	1043.951410364955	38
1	2721	1046.110778342307	38
1	2731	1048.17044690259	38
1	2733	1048.272202356487	38
1	2734	1048.369546085735	38
1	2735	1048.805703717387	37
1	2737	1050.29166241936	37
1	2739	1050.305294113724	38
1	2752	1053.374624225885	38
1	2753	1054.005946105547	37
1	2761	1054.601654992848	37
1	2763	1054.90538424492	38
1	2764	1055.987649847963	38
1	2766	1057.173148609057	38
1	2767	1057.467786640853	38
1	2768	1057.772910345992	37
1	2769	1058.004400538502	36
1	2780	1062.006954026732	36
1	2782	1062.204909596664	37
1	2784	1062.615260714764	38
1	2788	1062.964510999688	38
1	2789	1063.546618235383	37
1	2793	1064.89465779193	36
1	2797	1066.916458879957	35
1	2807	1068.736221039359	34
1	2808	1069.167182936073	33
1	2810	1070.197897412326	33
1	2811	1070.693033538598	33
1	2819	1071.911214786703	33
1	2824	1072.320743548898	34
1	2826	1072.899180330339	35
1	2827	1074.090682877929	35
1	2829	1074.661761993229	35
1	2830	1075.678295527702	35
1	2831	1075.845832784423	34
1	2835	1076.778940207897	34
1	2837	1077.225879581778	34
1	2839	1077.240087601995	34
1	2843	1078.067485246488	34
1	2848	1078.502685398299	34
1	2849	1080.888556702361	34
1	2850	1080.903655780796	33
1	2856	1083.025714700272	33
1	2860	1083.317241143327	34
1	2861	1083.440866823499	34
1	2863	1084.242311634307	34
1	2868	1085.526962155568	35
1	2869	1087.191866960163	35
1	2871	1087.396374859197	35
1	2872	1088.001756197772	35
1	2873	1088.847999803744	34
1	2875	1089.230186806682	34
1	2882	1090.152369102951	35
1	2884	1090.665708144005	36
1	2886	1091.576194275007	36
1	2893	1092.513679005223	35
1	2894	1093.160355619707	34
1	2905	1097.342830665837	34
1	2907	1099.00423398694	35
1	2909	1099.476117200463	36
1	2911	1100.027635537007	37
1	2915	1102.527945440502	37
1	2916	1102.688729140936	36
1	2918	1103.754037981524	36
1	2919	1105.00067067722	36
1	2921	1106.48358601413	36
1	2922	1106.542637556338	36
1	2927	1108.0477406548	36
1	2928	1109.155531929477	36
1	2930	1111.639490954654	36
1	2932	1113.12752916716	37
1	2934	1113.331481713461	38
1	2935	1114.043828203374	38
1	2937	1115.085537747971	38
1	2938	1117.305190259756	38
1	2940	1117.816416025618	38
1	2944	1118.461074284569	38
1	2945	1118.629053446676	37
1	2947	1119.580038684335	37
1	2948	1119.686936328564	37
1	2956	1123.558668349719	37
1	2961	1125.458073275915	38
1	2962	1126.043967817745	38
1	2963	1126.19871073788	37
1	2964	1126.852377915099	36
1	2968	1127.943985999734	35
1	2972	1128.394198316149	34
1	2974	1128.717984271808	34
1	2975	1129.655115626575	34
1	2976	1129.690373412895	33
1	2977	1130.266504861066	32
1	2979	1130.868939965061	32
1	2980	1131.131401306643	32
1	2981	1131.35962788491	31
1	2985	1134.100891178365	31
1	2988	1135.47631770944	32
1	2989	1135.842390078565	32
1	2990	1135.993860873704	31
1	2992	1136.329637289867	31
1	2994	1137.323680808919	32
1	2996	1137.498871027543	33
1	2998	1138.427033001013	34
1	2999	1138.851969364876	34
1	3001	1140.217020242969	34
1	3006	1141.798272638708	35
1	3007	1142.01259266249	35
1	3009	1142.319803598911	35
1	3011	1143.249257923965	36
1	3015	1144.287234016505	36
1	3021	1146.29868030337	36
1	3028	1149.306763535376	37
1	3030	1150.731842264848	38
1	3032	1151.172654763581	39
1	3039	1156.302026283909	40
1	3041	1156.759178807614	40
1	3048	1158.258097465321	40
1	3052	1159.033874565349	41
1	3061	1161.124820061732	41
1	3065	1162.672206169524	40
1	3069	1164.363163952077	39
1	3071	1164.505009140526	39
1	3072	1165.221601583245	39
1	3073	1165.595695751453	38
1	3078	1166.669373374698	38
1	3082	1169.29781268128	38
1	3083	1169.918663972536	37
1	3084	1172.136410054756	36
1	3085	1172.357594042058	35
1	3086	1174.400187549424	34
1	3091	1176.108694797709	34
1	3092	1178.41416146683	34
1	3096	1178.613157490298	34
1	3098	1178.831251074137	35
1	3100	1178.880104743923	36
1	3102	1179.213934913705	36
1	3103	1179.550688625634	35
1	3104	1180.812585111858	34
1	3106	1181.704880643282	34
1	3116	1182.966956079025	35
1	3119	1184.911906349115	36
1	3120	1185.788935365413	36
1	3122	1185.969958558279	36
1	3126	1187.260400392813	36
1	3127	1188.708138336544	35
1	3128	1188.86371766617	34
1	3130	1188.864650340932	34
1	3135	1190.147586794362	35
1	3136	1190.472139837155	35
1	3137	1190.538426412961	34
1	3145	1192.186907000208	34
1	3147	1192.616232251888	35
1	3149	1193.732667896946	36
1	3153	1194.969584294965	37
1	3158	1196.430415692561	37
1	3162	1198.41916131071	36
1	3163	1198.825235732287	35
1	3164	1198.93972299898	34
1	3165	1199.602175496166	33
1	3166	1201.300136350797	32
1	3168	1202.013421509386	32
1	3169	1202.352616643393	32
1	3173	1204.475965344089	31
1	3177	1206.599125635305	30
1	3181	1207.322214701336	29
1	3182	1207.854832038687	28
1	3183	1208.774467804279	27
1	3184	1208.852881922648	26
1	3189	1209.065096186934	26
1	3191	1210.701354293383	27
1	3193	1210.839458642274	28
1	3194	1211.533904379797	28
1	3196	1211.916010976982	28
1	3197	1212.349088238001	28
1	3201	1213.55437376783	28
1	3204	1213.985978502677	29
1	3206	1214.158172542782	30
1	3207	1215.581801289606	30
1	3209	1215.633544969008	30
1	3211	1215.780208158941	31
1	3215	1217.96457251003	31
1	3217	1218.057033121936	31
1	3218	1218.810597483448	31
1	3219	1219.882560624925	30
1	3221	1220.292333915373	30
1	3223	1220.488117205258	31
1	3224	1220.676086749718	31
1	3225	1220.72384607474	30
1	3230	1224.645402788427	30
1	3235	1228.852965368949	31
1	3237	1229.030803224943	32
1	3238	1229.398537330087	32
1	3239	1230.69863333912	31
1	3241	1230.820792503405	31
1	3242	1231.184107537707	31
1	3246	1232.133704821227	31
1	3249	1233.318897799324	32
1	3250	1233.391020091334	32
1	3254	1234.966752070447	32
1	3258	1235.427283916354	33
1	3268	1237.382674576206	34
1	3276	1238.417331618491	35
1	3284	1241.608692326509	36
1	3286	1242.968714525971	37
1	3287	1243.358279771426	37
1	3288	1243.627671761179	36
1	3290	1243.996758590613	36
1	3291	1244.799642285174	36
1	3296	1246.668756937018	36
1	3300	1247.054954999848	37
1	3302	1247.667901143728	37
1	3303	1248.693182855342	36
1	3305	1250.356197926861	36
1	3312	1252.073045301933	37
1	3315	1252.793116889916	38
1	3317	1252.827234110485	39
1	3324	1256.076722430414	39
1	3326	1256.108854805347	39
1	3337	1261.534615404933	40
1	3339	1262.193252622362	41
1	3341	1262.267756109245	42
1	3342	1263.20252604451	42
1	3346	1268.119110734602	41
1	3347	1268.123625596006	40
1	3349	1269.129328398825	40
1	3350	1269.430298561703	40
1	3351	1269.914246802643	39
1	3358	1272.303763562732	38
1	3366	1277.044106656529	38
1	3368	1277.50335770946	39
1	3370	1278.05611886699	40
1	3375	1279.596838720615	41
1	3379	1280.788365004456	41
1	3381	1281.296747654487	41
1	3382	1283.065435313523	41
1	3387	1284.287495655161	41
1	3388	1284.489162128344	41
1	3390	1285.225570578975	41
1	3392	1285.466279713622	42
1	3394	1286.192709476219	43
1	3405	1287.76050140148	44
1	3406	1288.974920489828	44
1	3408	1289.01076245061	44
1	3410	1289.468819478674	45
1	3412	1289.682275241649	46
1	3420	1291.910019454139	47
1	3428	1294.997184720226	48
1	3430	1295.582907271872	49
1	3432	1296.030965519951	50
1	3433	1296.783062028843	50
1	3435	1296.799258171135	50
1	3437	1297.198012971474	51
1	3438	1300.059124770778	51
1	3440	1300.495059582788	51
1	3441	1303.716396788081	51
1	3443	1304.272414813915	51
1	3445	1305.776441279492	52
1	3447	1306.825997398465	53
1	3448	1307.127902650087	53
1	3450	1307.47402397197	53
1	3451	1307.928598107495	53
1	3455	1313.833701152403	52
1	3459	1314.991565691017	51
1	3460	1315.905571852062	50
1	3468	1317.716620749898	50
1	3470	1318.253198922291	51
1	3471	1320.459144731659	51
1	3472	1322.308664508042	50
1	3477	1324.224325534523	50
1	3479	1325.103409595218	51
1	3481	1326.369375728848	52
1	3483	1326.430407639792	53
1	3484	1326.598147403393	53
1	3488	1327.297710916616	52
1	3496	1330.745974242518	52
1	3498	1330.979023942672	53
1	3500	1331.303935061775	54
1	3507	1332.83012481258	54
1	3509	1333.338482673497	54
1	3511	1333.365106873339	55
1	3512	1333.735626933621	55
1	3516	1334.797882866017	54
1	3524	1336.03436560023	54
1	3526	1336.882154875638	55
1	3528	1337.14091438334	56
1	3530	1337.658134376536	57
1	3541	1340.997319602744	58
1	3542	1341.879507983865	58
1	3544	1342.275952368708	58
1	3545	1343.313485657588	58
1	3547	1345.028905571743	58
1	3552	1348.257813567926	59
1	3554	1350.107232861572	60
1	3555	1350.284686883004	60
1	3557	1350.626713703382	60
1	3559	1350.656354967285	61
1	3560	1353.310778080725	61
1	3570	1355.735819921251	60
1	3571	1355.738875230615	59
1	3575	1356.883480183287	58
1	3576	1357.263402170279	57
1	3577	1358.000958545536	56
1	3578	1359.794332297578	55
1	3579	1361.506979560384	54
1	3581	1362.571847052338	54
1	3585	1364.695564827054	54
1	3587	1365.074885956469	54
1	3588	1366.555400502709	54
1	3593	1369.592875557861	54
1	3597	1370.375995504208	55
1	3600	1371.561322348545	56
1	3602	1371.573840980805	57
1	3603	1372.049618506265	57
1	3604	1372.386771522756	56
1	3605	1372.710640658978	55
1	3612	1375.467462081215	55
1	3614	1375.47510833048	56
1	3617	1377.095993423496	57
1	3619	1377.718496474158	58
1	3621	1377.739442305879	59
1	3622	1377.772567400815	59
1	3624	1378.218703869195	59
1	3626	1379.43451806173	60
1	3633	1380.240794162914	61
1	3635	1380.740293617982	61
1	3637	1380.957680908302	61
1	3647	1382.565694431805	61
1	3649	1383.722902868674	61
1	3657	1386.20597122252	62
1	3658	1387.220017929136	62
1	3665	1389.849656355043	61
1	3667	1390.549501169975	61
1	3668	1390.884448184379	61
1	3669	1391.593390904497	60
1	3670	1393.227003717647	59
1	3671	1393.372881643242	58
1	3678	1395.420692486715	57
1	3683	1398.217898167534	57
1	3684	1400.923003497826	57
1	3686	1401.305675706313	57
1	3688	1401.721608276162	58
1	3690	1401.982638633335	59
1	3694	1402.086497683163	60
1	3697	1405.061457812709	61
1	3698	1406.151706433627	61
1	3699	1406.309285399726	60
1	3713	1409.478123154257	60
1	3717	1413.083801976942	60
1	3719	1413.563424256416	60
1	3721	1414.057596200946	61
1	3723	1414.518272932411	62
1	3725	1414.833857478766	63
1	3727	1415.003480559026	64
1	3728	1415.20413269595	64
1	3729	1415.53878324846	63
1	3733	1416.692188886413	63
1	3736	1417.179788425317	64
1	3738	1417.330315751514	65
1	3742	1417.606353291694	66
1	3748	1419.141520760889	67
1	3749	1419.260482744917	67
1	3751	1420.143708678427	67
1	3752	1420.554675701822	67
1	3754	1422.776981438885	67
1	3759	1428.673373578472	68
1	3761	1430.223918665575	69
1	3763	1430.301761801334	70
1	3764	1430.463745883983	70
1	3768	1432.421823681624	69
1	3769	1432.486763924	68
1	3771	1434.322805718389	68
1	3773	1435.335277304416	69
1	3774	1435.629799163599	69
1	3775	1435.65490991888	68
1	3776	1436.672914707993	67
1	3777	1436.788883873332	66
1	3778	1436.960638244041	65
1	3782	1440.923613792363	64
1	3784	1441.384202700868	64
1	3785	1442.655726175243	64
1	3787	1443.741817787479	64
1	3789	1445.146173624594	65
1	3791	1446.108990835479	66
1	3792	1448.470049889423	66
1	3799	1449.828683565257	66
1	3802	1450.432384514929	67
1	3812	1454.029936281794	67
1	3816	1455.49415764472	66
1	3820	1456.603189847299	65
1	3821	1457.223811401363	64
1	3822	1457.584810691589	63
1	3830	1462.394201013478	63
1	3831	1462.654165528541	63
1	3832	1463.391869094596	62
1	3837	1464.741088476511	62
1	3839	1464.97042874155	63
1	3840	1465.191468411834	63
1	3841	1466.177625759887	62
1	3842	1469.411295621748	61
1	3843	1469.953067133285	60
1	3845	1470.33250186416	60
1	3852	1472.250069693739	60
1	3854	1472.41966586643	60
1	3859	1474.704889755277	61
1	3860	1475.303775180503	61
1	3865	1477.157543703258	61
1	3870	1480.695729868826	62
1	3874	1480.957438568581	63
1	3880	1483.029744092037	64
1	3881	1483.471138071794	64
1	3885	1485.492552942683	63
1	3886	1485.787972557748	62
1	3887	1486.599455233811	61
1	3888	1487.455509908889	60
1	3889	1487.556721176896	59
1	3890	1489.836952544974	58
1	3892	1490.240886351854	58
1	3896	1490.473642890022	59
1	3898	1490.552387865013	59
1	3899	1491.886393577901	58
1	3901	1492.046468323465	58
1	3902	1492.733753871723	58
1	3903	1495.48414533471	57
1	3910	1496.412400223605	56
1	3912	1497.601174133425	56
1	3913	1497.875189925921	56
1	3915	1498.398599354567	56
1	3917	1498.82832221673	57
1	3922	1501.442402395653	58
1	3932	1505.679787576253	58
1	3940	1507.857197221511	58
1	3945	1509.135777397379	59
1	3946	1509.21264037134	59
1	3948	1511.15703123461	59
1	3950	1511.34850212359	60
1	3951	1513.578155981932	60
1	3953	1513.94458320248	60
1	3955	1514.304186030513	61
1	3956	1515.845421427046	61
1	3957	1516.322998807324	60
1	3958	1516.621496192639	59
1	3960	1517.388678917883	59
1	3962	1517.518840526243	60
1	3963	1518.159782300331	60
1	3964	1518.213721354037	59
1	3970	1519.444867989184	59
1	3972	1519.658935717423	60
1	3975	1520.926944600882	60
1	3977	1521.226151899711	60
1	3981	1524.017708490228	60
1	3982	1524.10393721193	59
1	3987	1525.184459008474	59
1	3988	1526.029889252735	59
1	3992	1527.127045598327	59
1	3994	1528.969730153356	59
1	3995	1530.005100868815	58
1	4000	1531.234098601643	58
1	4001	1531.419142929314	58
1	4003	1531.473885137196	58
1	4007	1536.26737282433	58
1	4009	1536.586377116482	58
1	4011	1537.363855809697	59
1	4013	1537.721688160296	60
1	4015	1538.098793813258	61
1	4016	1538.248441544068	61
1	4018	1538.928391917094	61
1	4019	1540.021597614906	61
1	4023	1541.141389948653	61
1	4025	1542.79422899129	61
1	4027	1542.94946116936	61
1	4032	1544.44536632973	62
1	4034	1545.715257121244	63
1	4038	1548.364131337982	63
1	4039	1548.766764875441	62
1	4041	1550.238864182468	62
1	4046	1551.153034771828	63
1	4048	1551.560711178098	64
1	4049	1551.726048299287	64
1	4050	1552.909634863724	63
1	4061	1556.240271425581	63
1	4063	1557.003697399861	64
1	4064	1557.38042145288	64
1	4066	1557.920986055018	64
1	4071	1559.627766869934	65
1	4072	1562.466466213283	65
1	4073	1563.145586137195	64
1	4081	1566.781473653947	64
1	4085	1567.228349261369	65
1	4094	1569.74885421888	66
1	4095	1569.849599067003	66
1	4096	1570.178394532304	65
1	4097	1572.085965021783	64
1	4105	1573.997805870531	64
1	4107	1575.12897744917	65
1	4109	1575.394601778626	66
1	4111	1575.59186414627	67
1	4115	1576.555806962976	68
1	4117	1577.325244750352	68
1	4118	1577.619080447031	67
1	4122	1578.429155531365	67
1	4128	1581.564292417527	68
1	4133	1582.49346233364	69
1	4134	1582.884126441393	69
1	4135	1585.171068013613	68
1	4137	1585.54160958618	68
1	4141	1585.969014451399	69
1	4144	1587.91972968242	70
1	4148	1589.410396111216	70
1	4149	1589.649500928442	69
1	4151	1589.785332918659	69
1	4152	1592.453331069114	69
1	4153	1593.300504224494	68
1	4157	1594.769180940748	67
1	4161	1596.330517736438	66
1	4163	1597.015826642426	66
1	4164	1597.108119528546	66
1	4166	1597.320249903976	66
1	4167	1597.449972010107	66
1	4169	1597.464552272556	66
1	4173	1598.577740674358	66
1	4175	1599.383843029571	66
1	4176	1599.503619476008	66
1	4177	1602.282779945375	65
1	4184	1603.987280325378	64
1	4186	1604.425132571866	64
1	4190	1606.733114119573	65
1	4195	1609.26124695232	65
1	4199	1612.602729819598	64
1	4201	1612.673321804178	64
1	4202	1614.126007549975	64
1	4204	1614.449252251091	64
1	4208	1614.726899859435	65
1	4211	1615.267279792138	66
1	4212	1615.654378948366	66
1	4213	1615.72401411754	65
1	4214	1615.875097205188	64
1	4216	1615.961987032146	64
1	4217	1616.339716547542	64
1	4219	1616.463147978032	64
1	4221	1616.621815277892	65
1	4222	1616.831346575557	65
1	4224	1616.935283902404	65
1	4228	1618.553911177053	65
1	4232	1619.56149585902	64
1	4233	1619.610672885753	63
1	4234	1621.019877099711	62
1	4236	1621.2760323974	62
1	4241	1623.854919791824	63
1	4249	1625.751349201734	64
1	4251	1626.496726504235	65
1	4256	1629.381187089511	66
1	4258	1630.066756460859	67
1	4259	1631.85178662331	67
1	4263	1634.558011624449	66
1	4264	1635.391395559607	65
1	4265	1635.734433897764	64
1	4266	1635.881135710541	63
1	4274	1637.771248735393	63
1	4275	1637.91137587912	63
1	4276	1638.409561868205	62
1	4292	1644.323564236231	62
1	4294	1644.360046365528	63
1	4300	1645.120547901235	64
1	4301	1645.325612353436	64
1	4302	1645.610373094145	63
1	4306	1647.058754499908	62
1	4307	1647.269011144228	61
1	4308	1647.587932609318	60
1	4309	1647.838121751223	59
1	4310	1648.762368855761	58
1	4312	1648.830874030888	58
1	4314	1649.063478572624	59
1	4315	1650.021010754618	59
1	4320	1650.666651304133	59
1	4321	1650.780068639263	59
1	4328	1651.308879736015	59
1	4337	1653.52999557195	60
1	4342	1657.116602102474	61
1	4343	1657.549692968278	61
1	4345	1658.132701586568	61
1	4347	1658.422477209074	62
1	4349	1659.092223199417	63
1	4351	1659.223191079801	64
1	4352	1659.408299197809	64
1	4354	1659.464421378263	64
1	4356	1659.957176842128	65
1	4361	1661.976571296077	66
1	4366	1662.637364846638	67
1	4367	1665.701110295932	67
1	4369	1666.6203506998	67
1	4377	1669.342351643329	68
1	4382	1671.709343286284	69
1	4383	1671.837563052979	69
1	4387	1673.824262805531	68
1	4388	1674.242499523269	67
1	4389	1674.699158661576	66
1	4390	1676.809149333067	65
1	4392	1676.813203906213	65
1	4394	1677.577733741889	66
1	4395	1677.829106806127	66
1	4397	1677.96409308733	66
1	4398	1678.189399757364	66
1	4399	1678.302907610435	65
1	4407	1681.364195147839	65
1	4408	1681.429705003836	65
1	4410	1681.4548035113	65
1	4415	1685.37832862061	66
1	4416	1687.168781803558	66
1	4421	1688.782514402309	66
1	4422	1689.220521515767	66
1	4423	1690.738165566282	65
1	4425	1692.581174626775	65
1	4427	1693.593502126178	66
1	4429	1693.603316554592	67
1	4431	1693.619154280064	68
1	4435	1694.065412277888	68
1	4446	1697.894297773264	68
1	4448	1698.619850961995	69
1	4449	1698.902012346228	69
1	4450	1699.425706070999	68
1	4452	1699.652766277945	68
1	4465	1702.793472201366	69
1	4473	1704.639071825365	70
1	4476	1705.639549763829	71
1	4481	1707.479116757393	72
1	4488	1708.933344266727	73
1	4491	1711.414816093305	74
1	4493	1711.721927235526	75
1	4494	1712.225610613161	75
1	4496	1712.484806548511	75
1	4497	1712.497685479463	75
1	4511	1717.11170151736	75
1	4512	1718.366812055026	75
1	4513	1718.685452199019	74
1	4514	1719.010025039211	73
1	4515	1719.173119911749	72
1	4519	1721.3110923921	71
1	4520	1722.329725490675	70
1	4522	1722.682800847588	70
1	4524	1722.732508507791	71
1	4525	1723.196354505934	71
1	4535	1725.116524784812	71
1	4537	1725.295798271273	72
1	4546	1726.993607736153	73
1	4547	1727.190536631893	73
1	4551	1728.140966945464	72
1	4558	1730.869378373814	71
1	4560	1731.932967517642	71
1	4561	1733.000241680099	71
1	4562	1733.506720880914	70
1	4563	1733.649503414557	69
1	4564	1734.605690322551	68
1	4566	1735.297890489373	68
1	4568	1735.800056912991	69
1	4570	1736.863320935193	70
1	4574	1737.255891318963	71
1	4576	1738.990124645245	71
1	4577	1740.279709595449	70
1	4581	1740.961636507503	69
1	4589	1743.20762511601	69
1	4591	1743.227086786644	70
1	4609	1747.544381184157	71
1	4612	1748.710272959783	71
1	4613	1748.751378145889	70
1	4615	1749.322768224455	70
1	4617	1749.383564857401	71
1	4619	1751.052212078156	72
1	4632	1757.426208168398	72
1	4637	1762.028740633216	72
1	4638	1762.744524421555	72
1	4639	1763.346325164066	71
1	4640	1763.532430995038	70
1	4641	1763.863286565764	69
1	4643	1764.861507523806	69
1	4645	1764.887848604108	70
1	4647	1765.100258698345	71
1	4649	1765.109332080502	72
1	4651	1765.484121954249	73
1	4653	1765.93563904285	74
1	4658	1767.229839221006	75
1	4659	1767.279371448737	75
1	4660	1767.925277901216	74
1	4662	1767.941550356818	74
1	4663	1768.263601229756	74
1	4665	1768.271638470142	74
1	4667	1768.856844806933	75
1	4669	1769.382734466331	76
1	4670	1770.180539109606	76
1	4671	1773.153174770739	75
1	4673	1774.880093043076	75
1	4675	1775.145811042555	76
1	4676	1776.59239833684	76
1	4677	1776.69780717882	75
1	4679	1778.370708491105	75
1	4680	1778.668167780583	75
1	4682	1781.084347316744	75
1	4689	1782.986891683094	75
1	4690	1786.320110633704	74
1	4694	1787.462514680341	73
1	4698	1789.959897540578	72
1	4705	1791.711096625672	71
1	4710	1793.964741574661	71
1	4712	1794.610148348653	72
1	4719	1797.601687706123	73
1	4721	1797.62789578343	74
1	4723	1799.439619507046	74
1	4725	1799.492460008297	74
1	4727	1799.52001632303	75
1	4729	1800.186105238727	76
1	4731	1800.323706662933	77
1	4732	1802.194975388028	77
1	4737	1804.251863107662	77
1	4742	1807.406586327086	78
1	4743	1809.534194858984	78
1	4745	1810.774354083388	78
1	4746	1811.163871665985	78
1	4750	1811.776121617416	77
1	4752	1812.127727778632	77
1	4756	1814.010401333581	77
1	4757	1814.180328296061	76
1	4759	1815.890769535907	76
1	4760	1816.085243052119	76
1	4761	1817.469332927335	75
1	4766	1819.87707795277	75
1	4767	1821.329049075531	75
1	4769	1822.261804824273	75
1	4774	1826.538314629355	76
1	4776	1827.099325772661	77
1	4778	1829.803545047376	78
1	4779	1830.812361912062	78
1	4783	1834.861567161011	77
1	4791	1836.074268306902	77
1	4792	1837.299793516363	77
1	4805	1840.748851178717	77
1	4808	1840.869430879714	78
1	4810	1841.012540842246	79
1	4811	1841.30176820864	79
1	4813	1841.910851116243	79
1	4817	1843.192047577262	80
1	4820	1843.664129938139	81
1	4822	1843.785692867635	82
1	4826	1845.431481133984	83
1	4834	1848.244628162845	84
1	4836	1848.746268802579	85
1	4838	1849.579063080005	85
1	4839	1850.256179629759	84
1	4840	1850.876001648579	83
1	4842	1851.080698225141	83
1	4843	1851.752945009068	83
1	4849	1853.205498837675	83
1	4851	1853.550106961464	84
1	4854	1856.182633450354	84
1	4858	1856.82610466627	84
1	4864	1858.225605820815	85
1	4866	1858.234328341759	86
1	4868	1858.595987140667	87
1	4869	1860.053799034156	87
1	4870	1860.106632065542	86
1	4871	1860.185110498228	85
1	4873	1860.268132160983	85
1	4875	1860.722455918484	86
1	4876	1861.507396459702	86
1	4877	1862.168328656199	85
1	4878	1862.560061883502	84
1	4879	1863.437775320702	83
1	4886	1865.07956742009	82
1	4888	1865.768759358175	82
1	4890	1866.971519887033	83
1	4892	1867.119354178597	84
1	4896	1868.766589505975	85
1	4901	1870.319607787093	85
1	4902	1871.308953230771	84
1	4903	1871.956438955233	83
1	4907	1872.199243757443	83
1	4910	1872.726755279147	84
1	4912	1872.84030412721	85
1	4917	1874.176512616262	86
1	4919	1876.179558076575	87
1	4920	1876.424671071617	87
1	4921	1876.689568922835	86
1	4922	1878.402084185101	85
1	4926	1878.529874677781	85
1	4931	1880.254965393862	86
1	4933	1881.023741252099	86
1	4940	1883.041159230825	86
1	4942	1886.142068111996	86
1	4947	1887.98545715867	86
1	4949	1888.146374117217	87
1	4951	1888.336086825611	88
1	4952	1888.472411180289	88
1	4953	1888.785030564755	87
1	4957	1891.145515155219	86
1	4959	1891.504081439688	86
1	4961	1892.672231270129	87
1	4962	1893.505111264807	87
1	4967	1894.045414965866	87
1	4969	1896.266879765257	88
1	4970	1897.245944317853	88
1	4972	1898.047423478745	88
1	4973	1898.209794171887	88
1	4977	1899.857249810341	87
1	4979	1900.512819198734	87
1	4981	1900.638479393567	88
1	4982	1904.004899026024	88
1	4983	1904.541522083388	87
1	4984	1904.808005582609	86
1	4985	1905.174784854262	85
1	4986	1905.319126152245	84
1	4987	1905.681661317786	83
1	4988	1906.443679354768	82
1	4993	1906.738840886651	82
1	4994	1906.821472705787	82
1	4995	1907.087066568351	81
1	5002	1907.692046305597	80
1	5004	1908.128956211533	80
1	5008	1908.960387799595	80
1	5009	1909.18042703696	79
1	5011	1909.357893351727	79
1	5013	1910.81621812361	80
1	5020	1916.023322913913	80
1	5021	1916.06572620637	79
1	5022	1916.356917983984	78
1	5024	1916.661964068589	78
1	5028	1918.192242819393	78
1	5035	1920.672230383689	78
1	5038	1921.440661843357	79
1	5045	1923.816804796748	79
1	5050	1928.659891742118	79
1	5052	1930.163672029617	80
1	5053	1930.943543013184	80
1	5055	1931.257699896096	80
1	5060	1932.327515574662	81
1	5062	1932.519248903071	82
1	5064	1933.314005223626	83
1	5066	1933.854965815046	84
1	5076	1935.1875695232	85
1	5081	1937.410253774763	86
1	5087	1941.541303731997	87
1	5089	1942.129393432228	88
1	5090	1943.609597001476	88
1	5095	1947.077149000171	88
1	5096	1948.077385401705	88
1	5100	1950.608477612323	87
1	5107	1954.025476977789	87
1	5109	1954.224746082015	88
1	5114	1955.523093379118	89
1	5117	1956.297007044776	90
1	5125	1958.200614507693	91
1	5129	1958.896754153197	92
1	5131	1959.597526872644	93
1	5139	1961.436237888414	93
1	5140	1961.537140692198	92
1	5142	1961.931592218474	92
1	5149	1963.762025214801	92
1	5156	1965.742654750782	92
1	5158	1966.156014077387	92
1	5159	1966.195800542505	91
1	5160	1966.849897653407	90
1	5162	1968.05507258988	90
1	5164	1968.373096774699	91
1	5166	1968.410410723924	92
1	5168	1968.641463316152	93
1	5169	1969.93777563983	93
1	5171	1970.324607930071	93
1	5175	1971.92303827241	93
1	5176	1974.927789852041	92
1	5178	1975.012874022628	92
1	5180	1975.025742766433	93
1	5182	1976.898432608273	94
1	5183	1977.762812534097	94
1	5184	1978.375358601082	93
1	5185	1978.791269245498	92
1	5187	1979.823392615623	92
1	5189	1979.835618901169	93
1	5190	1980.523269526393	93
1	5201	1983.094045331274	93
1	5208	1986.383394359462	94
1	5216	1987.360434545882	94
1	5217	1987.681243785088	93
1	5218	1987.985572304842	92
1	5224	1990.739744689928	92
1	5227	1992.36025888158	92
1	5228	1993.371180207925	91
1	5232	1994.038167870085	90
1	5233	1995.031968862347	89
1	5234	1995.150096432574	88
1	5242	1998.414462845078	88
1	5244	1998.515599700076	89
1	5246	1999.624309418214	90
1	5248	1999.848524514613	91
2	0	0	0
2	30	12.267444615456	1
2	36	14.380568948161	2
2	39	15.845592420064	3
2	47	17.919625813828	4
2	57	25.44440158903	5
2	70	28.611053646287	6
2	88	32.374548844396	7
2	91	33.502036433321	8
2	98	34.535208405828	9
2	103	35.667587641502	10
2	109	37.115546434842	11
2	113	39.734315736175	12
2	120	42.394594969395	13
2	126	50.397087381727	14
2	131	51.411422798241	15
2	134	52.139593852685	16
2	137	53.225541495621	17
2	143	53.878657098838	18
2	168	60.469792178914	19
2	174	62.504600337952	20
2	182	65.498013390422	21
2	187	68.077376184056	22
2	195	72.931245406352	23
2	201	77.675059594088	24
2	209	79.342488375778	25
2	226	84.444478667914	26
2	248	90.148593505016	27
2	260	94.738287598806	28
2	263	96.261524767301	29
2	268	97.826373046557	30
2	272	100.486519873029	31
2	280	102.142476607761	32
2	290	107.321639134158	33
2	311	116.163862449901	34
2	316	116.993163863914	35
2	320	118.498217974499	36
[...]
10	2040	798.412262200723	0.81764703456
10	2043	799.09336658635	1.353287983338
10	2044	799.820017843615	1.139874813306
10	2049	801.825973351786	0.518332758897
10	2053	802.726548236471	0.497238829497
10	2061	807.177855511171	0.008707338041
10	2091	818.472440894737	0.464009779782
10	2102	822.276535452187	0.683889280649
10	2111	828.025216415174	0.516458712323
10	2119	828.99612266469	0.01241539231
10	2125	831.654447526627	1.012757461767
10	2142	835.329173263983	0.349255599826
10	2149	838.024181656452	0.02825512643
10	2154	840.467866619818	0.878334262322
10	2155	840.501217993908	0.116807117312
10	2159	841.372454742493	0.162872942606
10	2163	842.641017741413	0.082542165271
10	2166	843.482359375412	0.090454042223
10	2169	843.968960031751	0.216755170155
10	2187	850.061386812361	0.574914881789
10	2193	853.582448431669	0.252056968124
10	2201	855.08161684789	0.136845283735
10	2208	857.165462885929	0.45558139356
10	2213	858.296530760422	1.047370982531
10	2224	860.039940299123	0.295029337467
10	2225	860.837745789938	0.922828055912
10	2226	861.905924950971	1.951849513207
10	2229	862.66475514512	0.108445963539
10	2240	865.753494852419	0.605250673066
10	2241	866.025995763779	0.615096554597
10	2253	874.219203592908	1.434206841315
10	2265	879.753912052643	0.187940442167
10	2268	880.652091453034	0.729238742948
10	2280	884.651132935479	0.822434115095
10	2285	885.358384404418	0.574387388034
10	2298	891.782011123884	3.13655345636
10	2309	894.289697504526	0.349115785737
10	2314	894.846799877175	0.114934030986
10	2315	895.212664151311	0.36727684553
10	2326	898.659319304469	2.608919472927
10	2331	901.336426731057	3.560684748088
10	2332	901.401000818491	2.789327627474
10	2335	902.777917357152	1.905707944582
10	2336	904.088512951057	1.345829457283
10	2342	905.756347420553	0.351721403623
10	2361	915.682243784062	0.048136436839
10	2367	922.791601221454	0.418320624363
10	2373	924.674069207643	1.269227442577
10	2374	925.028009739024	1.563040431899
10	2383	927.344669662171	0.187514192878
10	2386	927.966884651248	0.021054796377
10	2394	930.498520088863	1.364011713358
10	2401	932.254086826545	1.649702313718
10	2402	932.448978867418	1.508034055878
10	2405	932.856913672512	1.442941894236
10	2406	932.982533488315	0.489227014475
10	2415	936.100903880074	2.111807681102
10	2418	936.535342455389	0.003915639331
10	2431	941.822438366095	0.260463583766
10	2438	942.422719973917	0.529610946302
10	2439	942.540752998464	0.600215540091
10	2443	944.715748668036	0.175304206172
10	2448	945.503794659094	0.672113760447
10	2451	946.307635668279	0.327207150809
10	2454	948.066646871281	0.058508210474
10	2459	949.381881533318	0.603795737585
10	2470	952.544831214307	0.678698406395
10	2471	952.875827916336	0.889685159399
10	2482	956.160146648352	0.389153666609
10	2513	970.816084411745	0.662803089991
10	2518	973.09860572513	0.577531211712
10	2526	976.143539321604	0.424511707684
10	2531	976.724739038661	0.168968174986
10	2536	978.173516347458	0.507739983044
10	2553	984.670995509593	1.055034430764
10	2554	985.353720924693	1.684285843102
10	2560	988.780629512089	0.340470385171
10	2563	989.470502038423	0.968169152612
10	2585	996.955049588276	0.134418644894
10	2593	1000.189832332488	0.057402800248
10	2619	1011.955409481549	0.46045196969
10	2622	1012.931620979447	1.048515115623
10	2632	1016.896628472111	1.154788658656
10	2633	1016.934364858184	1.183331343931
10	2634	1017.03329421743	1.215918243508
10	2637	1017.243060053207	0.035963629458
10	2650	1020.195692458536	0.280737136608
10	2654	1020.733388256847	0.044137397429
10	2657	1021.307612664868	0.15107750637
10	2669	1028.331438002798	1.414489985988
10	2672	1029.29631346525	1.665289803283
10	2675	1029.790654494322	0.413156305879
10	2684	1031.912386350632	1.922449113535
10	2687	1033.471485779932	2.765419089549
10	2690	1034.089569998218	3.37486112572
10	2691	1034.226845523588	0.288882925836
10	2695	1034.560593369315	0.142218991994
10	2702	1036.449403404585	0.633212654722
10	2703	1036.641379197168	0.680703085963
10	2708	1038.470190449112	1.065248127294
10	2718	1043.663947010926	0.868429557956
10	2724	1047.086868763772	0.13925508836
10	2729	1047.963653345248	0.636568481133
10	2730	1048.090090987499	0.64736952113
10	2742	1051.255508926545	0.034807018201
10	2745	1051.471789584774	0.105450342568
10	2748	1052.591398772497	0.027583095245
10	2751	1053.026758449072	0.226120378133
10	2758	1054.440507260884	0.346309137841
10	2759	1054.479070023533	0.092773898578
10	2772	1059.655581744246	0.549359275268
10	2775	1059.804899019731	0.063297325078
10	2778	1061.433475843607	0.025970573351
10	2787	1062.951005639701	0.207622586705
10	2792	1064.647394543672	0.306200800966
10	2796	1065.494792794249	0.373381544291
10	2800	1067.293314239307	0.315158401423
10	2805	1068.004626670235	0.532440759837
10	2806	1068.132181647172	0.479633551166
10	2814	1070.884534106782	0.010504988293
10	2817	1071.84154539685	0.064322051482
10	2822	1072.299071898664	0.032425774947
10	2836	1077.064795367004	0.325123859499
10	2842	1077.793702532338	0.500360499536
10	2846	1078.4521190914	0.001044301359
10	2857	1083.028621049644	1.121905729689
10	2858	1083.150718534704	0.649336305942
10	2866	1085.217551811932	0.081250844145
10	2878	1089.368947030387	0.067757450795
10	2885	1090.78010487219	0.826022617839
10	2891	1092.123802162987	0.141486084447
10	2892	1092.369774693135	0.252235241605
10	2897	1095.925157108741	0.120426666895
10	2902	1096.008254312831	0.06898579642
10	2903	1096.932968108919	0.944886196222
10	2914	1101.226270770012	0.439550561518
10	2925	1107.795429630447	0.375429163253
10	2943	1118.32221067629	0.382355667418
10	2951	1121.878624604019	0.845395313846
10	2954	1123.154254487375	0.041929532262
10	2959	1124.644396940177	0.021240417744
10	2967	1127.769493998029	0.779937639321
10	2971	1128.248109939602	0.094055412963
10	2986	1134.171171548289	1.848624760739
10	3004	1141.244228921244	0.441555149552
10	3014	1143.725664458599	0.001677489002
10	3022	1146.495212571807	0.476315667307
10	3023	1147.125537602774	1.100097380524
10	3026	1147.78206949998	0.273968340856
10	3035	1153.140282920865	0.741477975701
10	3040	1156.740093841473	1.494428934068
10	3044	1156.988849318337	0.200744124582
10	3053	1159.233093830003	2.210448809566
10	3054	1159.779978582717	1.005790734036
10	3057	1160.32154537839	0.287181462212
10	3060	1160.55941750391	0.07069658694
10	3064	1161.598546561908	0.161609978645
10	3068	1164.109741276658	0.186965145113
10	3076	1165.693066300157	0.055951050372
10	3081	1169.212224502984	0.003208410352
10	3089	1175.003760364735	0.110450042166
10	3101	1178.959767687249	0.372908618231
10	3109	1182.115154271923	0.05805725885
10	3112	1182.515442395928	0.069621456059
10	3117	1182.99833681246	0.091193270271
10	3125	1186.999395923051	0.284904989017
10	3133	1190.070726984651	0.134046870917
10	3140	1190.979292103637	0.319698850133
10	3143	1191.254381412499	0.046348037171
10	3154	1195.584198523955	1.3881636814
10	3157	1195.632209863822	0.009172791425
10	3161	1198.264884804292	1.103211344951
10	3172	1204.108993397398	1.027074276107
10	3176	1206.594353811615	1.628196847224
10	3180	1207.279295458219	0.280834622749
10	3187	1209.045735456904	0.155159725921
10	3202	1213.753495529426	0.215943858517
10	3214	1217.811486877157	0.705776536423
10	3228	1221.388334669636	0.347603861641
10	3233	1224.750397413127	0.055562864147
10	3247	1232.392723942196	0.757449359715
10	3263	1236.948172926547	2.804004664236
10	3264	1237.006788537257	1.790522698124
10	3271	1237.603095966359	1.533419698317
10	3272	1237.866040546603	1.553389698387
10	3273	1238.253584484416	1.031612276541
10	3274	1238.344637766729	0.924036151861
10	3279	1239.553433645583	0.219773536696
10	3282	1241.227018691744	0.306021899199
10	3294	1245.363636137277	0.030584653684
10	3301	1247.176032627612	0.492467343277
10	3310	1251.653559151711	0.540890549397
10	3313	1252.090307445948	0.709748745489
10	3322	1254.417858114414	1.337722379706
10	3323	1255.64605996516	2.025892370389
10	3331	1257.831217804345	1.04498995955
10	3332	1257.977064218663	1.016033913531
10	3335	1258.439260163697	0.090315940454
10	3345	1265.646131111605	0.150004185257
10	3356	1270.803784334475	0.711156914543
10	3357	1271.770466103222	0.998016164324
10	3361	1274.73022604844	1.060051565851
10	3364	1276.186093548927	0.837470687697
10	3373	1278.497555019376	0.272109043922
10	3378	1280.032488270391	0.100415807527
10	3385	1283.74979373362	0.063449913224
10	3397	1286.757675679498	0.161808162987
10	3400	1287.19878297836	0.1060460562
10	3403	1287.452365105049	0.07977104736
10	3415	1290.627671786884	0.372793062846
10	3418	1291.297963998599	0.115700362388
10	3425	1293.235481738159	0.991974208198
10	3426	1293.669350584096	0.77627464759
10	3454	1309.595402649964	0.601209466153
10	3458	1314.354648315509	0.242187640494
10	3463	1316.183041206281	0.073859105396
10	3466	1316.525233320837	0.207614834894
10	3475	1322.66118108334	0.176937221796
10	3487	1326.876180097105	0.123434986623
10	3491	1329.056600886918	0.36707431326
10	3494	1330.21954691005	0.243408659182
10	3503	1331.836325574342	0.372774097899
10	3506	1332.797774618586	0.146205712749
10	3515	1333.932342040216	0.110297034282
10	3519	1334.979246662155	0.00158606937
10	3522	1335.808580623885	0.348377714316
10	3533	1338.748155426405	0.282391367363
10	3538	1340.35433880033	1.174605594596
10	3539	1340.484086253818	1.141537183085
10	3550	1346.580563906358	0.435833530779
10	3565	1353.750981190232	0.224544513561
10	3566	1353.75566935486	0.176689743696
10	3569	1354.817690543405	0.115720860536
10	3574	1356.520478475837	0.306258748729
10	3584	1364.053556107434	0.209296553264
10	3591	1369.228593425095	0.092913691665
10	3598	1371.205604942153	0.862987369694
10	3608	1373.017422213873	0.288828383045
10	3615	1376.049399455318	2.501334934768
10	3631	1380.14093778926	0.669364186574
10	3634	1380.493542090318	0.934175486312
10	3642	1381.411621572377	0.028835625498
10	3643	1381.828369744097	0.433350440213
10	3646	1382.153605784748	0.149319713037
10	3654	1385.437885968105	1.304111172412
10	3655	1385.495266115564	1.042447863956
10	3663	1388.649608612357	0.358269830311
10	3664	1389.008803942938	0.623730891384
10	3676	1394.188126463288	0.400431197165
10	3677	1394.472813583018	0.50870303539
10	3681	1397.495910828425	0.195598198082
10	3695	1402.746062826634	0.661022762473
10	3704	1407.474620898719	0.047231688988
10	3707	1407.74695356682	0.288588539319
10	3708	1407.969898372191	0.26576642354
10	3711	1409.467145676987	0.440119581692
10	3716	1410.198506509493	0.275399976435
10	3734	1416.771673421532	0.597875132572
10	3743	1417.913697439272	0.384908699567
10	3746	1419.083199088376	0.367201332679
10	3757	1424.160281514249	0.274741834212
10	3767	1431.433071190624	0.502075213772
10	3781	1440.43031494697	0.849684434168
10	3795	1449.546004879543	0.772524652077
10	3800	1449.933607902906	0.357054508323
10	3805	1451.150992708069	0.714974591956
10	3808	1451.78468201835	0.6183248656
10	3811	1453.984527845983	0.063244105956
10	3815	1455.283299460451	0.90293056213
10	3819	1455.893948528682	0.034879312339
10	3825	1460.299903285145	0.191989822311
10	3828	1460.671011368698	0.002812109151
10	3835	1464.087951034488	0.574580885894
10	3850	1471.040316152261	0.517761890769
10	3851	1471.044227467392	0.062530887027
10	3857	1473.292921578571	0.237772280687
10	3863	1476.717292925195	0.445996924298
10	3868	1478.834118112334	0.421305256275
10	3877	1481.637390861521	0.859409474008
10	3878	1481.682737612609	0.36576708416
10	3884	1483.962598617583	0.109224336044
10	3897	1490.516651893561	0.168254226343
10	3908	1496.142777197465	0.237855510945
10	3909	1496.357243318865	0.248544899765
10	3920	1500.747430159897	0.232098727877
10	3929	1503.436161008497	1.826017023788
10	3930	1503.920012836788	1.805837731895
10	3931	1504.453131095612	1.415099790791
10	3937	1507.466843875436	1.64638739353
10	3938	1507.737711854668	1.690309108662
10	3943	1509.017971869701	0.679977830657
10	3973	1519.864701250525	1.247531043229
10	3974	1520.218064275869	1.42531223224
10	3980	1523.849295938517	0.552568869703
10	3985	1524.63376866985	0.372441738274
10	3993	1528.477135341477	1.649186928134
10	3998	1530.544263168666	0.07923368048
10	4006	1533.92323574777	1.884465358321
10	4024	1541.599884095315	1.494168466505
10	4030	1543.27561558917	0.180598053546
10	4037	1547.339841811036	0.211129125351
10	4044	1550.796337820613	0.083848210291
10	4055	1554.104335943327	0.509909095902
10	4058	1554.244544451784	0.283813758012
10	4059	1555.334629187646	1.2268890838
10	4069	1559.196363611938	0.649759914324
10	4076	1564.377281993075	0.260517075151
10	4079	1565.355257091409	0.082503741498
10	4086	1567.379877738192	0.492058793734
10	4091	1568.497100610663	0.35666386062
10	4092	1568.989595499345	0.538321742281
10	4100	1572.573890070071	0.403852586958
10	4103	1573.496769664491	0.776055682144
10	4116	1576.995420137682	1.1723622739
10	4123	1578.663779315212	0.289992074583
10	4126	1579.366077220507	0.611666401855
10	4131	1581.928091575179	0.009514496707
10	4142	1586.31542055341	0.351882179659
10	4147	1588.808081300603	0.016707244219
10	4156	1594.727858108882	0.26520837762
10	4160	1595.957736714197	0.890939852223
10	4172	1598.353693804063	0.383434812947
10	4182	1602.926146908176	0.423166448865
10	4183	1603.540917653377	0.835168687033
10	4191	1606.819846792405	0.31479060921
10	4194	1607.883740181203	0.084531418349
10	4198	1612.289657062352	1.380488549822
10	4209	1614.973648081592	0.461381566898
10	4227	1618.45289364126	0.529036627425
10	4231	1619.375020238892	0.051976650673
10	4239	1623.57071125574	0.1417790716
10	4246	1625.363666614655	0.286567601118
10	4247	1625.659107931402	0.394098263079
10	4254	1627.640190400727	0.12081473547
10	4262	1632.672276385091	0.095730774392
10	4271	1637.28942583113	0.082520347303
10	4272	1637.616073479883	0.329521118236
10	4279	1639.1740254517	0.567349493712
10	4282	1640.045811038025	0.471555976944
10	4285	1642.956938280817	0.635832138082
10	4290	1643.652781490041	0.589877832531
10	4295	1644.754035576301	1.414576732742
10	4298	1645.024027354539	0.016741211542
10	4305	1646.593971600744	0.857226058313
10	4318	1650.217908367433	0.025479191235
10	4326	1651.106338814225	0.320948078187
10	4333	1652.22410825648	1.124126463794
10	4334	1652.399794115448	0.626641181159
10	4335	1652.662881780668	0.558192010156
10	4340	1654.657511673065	0.479098788209
10	4359	1660.369964804974	0.226638555044
10	4364	1662.303022178544	0.204548064369
10	4374	1667.820624489015	0.375569565213
10	4375	1668.124273148881	0.624882205216
10	4380	1670.289304314225	0.136396006802
10	4386	1672.666677741079	0.165127908255
10	4402	1680.186948592326	0.259991298372
10	4405	1680.965027735089	0.261754333219
10	4413	1684.90980916396	1.492175237906
10	4419	1688.157407195879	0.141170533901
10	4434	1693.96173694451	0.143411596937
10	4440	1695.8678693107	0.547606310113
10	4443	1697.405161395819	1.708252959186
10	4444	1697.576775539367	0.209949560477
10	4457	1701.346349212861	1.183080248486
10	4458	1701.494132821126	0.210488027714
10	4461	1702.623496576822	0.201676780948
10	4468	1703.97195070645	1.225130261896
10	4471	1704.070310806715	0.817502958681
10	4474	1705.621104889225	1.626213516331
10	4479	1707.080735638636	1.330770643193
10	4484	1708.458436535886	0.710608354311
10	4489	1710.537513320776	1.728557584499
10	4506	1714.237855624618	0.988042555017
10	4507	1714.469623152312	0.841275630338
10	4508	1715.110336861075	1.112018078114
10	4509	1715.74380175003	1.683673783723
10	4518	1720.589535717504	0.75297520057
10	4530	1724.762225677172	0.643948117177
10	4533	1725.10515767394	0.946370859595
10	4542	1726.035670707941	1.116257469047
10	4543	1726.353412595621	0.51302699067
10	4544	1726.992825130955	0.990338540537
10	4550	1728.033844637031	0.162748682574
10	4554	1729.296912316322	0.234800651421
10	4557	1729.9056230128	0.136983380726
10	4575	1737.666177454935	0.576725480904
10	4580	1740.813862877584	0.088955240991
10	4586	1742.018064763064	0.827422657414
10	4587	1742.517030284955	0.808900394211
10	4596	1744.37952747194	0.437546768174
10	4599	1745.000584225905	0.842438832741
10	4602	1745.398326896426	0.509853491227
10	4607	1747.409516284695	2.16516557995
10	4610	1747.579680289117	1.73050822631
10	4611	1747.819713701296	0.893360204328
10	4622	1753.898089161045	0.801336003157
10	4629	1754.770765700568	0.807231975697
10	4630	1754.866707430679	0.864513763769
10	4631	1757.292042280984	2.938842144226
10	4635	1759.779208014101	0.488074994606
10	4656	1766.814446123273	0.277095372612
10	4685	1781.504016066385	0.250272017075
10	4688	1781.971263391846	0.225460774678
10	4693	1787.059313717467	0.554676223988
10	4697	1789.683976052385	1.309935984424
10	4703	1790.507820523677	0.490080990328
10	4704	1791.692344767519	1.291097367327
10	4708	1793.51934846095	0.162418093441
10	4715	1795.931302918714	0.117906069701
10	4722	1798.201776598499	1.193712005366
10	4735	1803.303264816562	0.399300183606
10	4740	1806.070935191158	0.925544381861
10	4749	1811.686211823803	0.085033544827
10	4755	1813.916417550519	0.291360971596
10	4764	1819.610386868741	0.815261699716
10	4772	1824.417927280159	1.073616876902
10	4782	1832.446606849467	0.210401651249
10	4788	1835.701459910731	0.250879250733
10	4789	1835.771438208563	0.29964065007
10	4795	1838.086810767446	0.181179978227
10	4800	1839.1672924141	0.165660347977
10	4801	1840.126703160714	1.011815340936
10	4806	1840.836973098843	0.550955830412
10	4818	1843.404341844721	1.377775890427
10	4829	1845.549025467459	0.422939396682
10	4830	1846.541298972357	1.096571071285
10	4837	1848.925629460897	1.180787139279
10	4852	1854.253524820341	2.3908879347
10	4853	1854.475340337303	2.179885596137
10	4859	1856.925131624038	0.434372486728
10	4862	1857.983359651776	0.443572697005
10	4884	1864.737096490733	1.132257919415
10	4885	1865.021413520735	0.400431915201
10	4899	1869.459453069427	1.186113563632
10	4900	1869.686074133042	0.301454364287
10	4908	1872.437583639111	0.251619131351
10	4915	1872.965126900963	0.107464854337
10	4927	1878.82143636914	0.310770689035
10	4932	1880.928902889796	1.78056845279
10	4936	1882.507385423885	0.023781899177
10	4941	1884.814738000996	2.015061215687
10	4945	1886.974213244559	0.117858870708
10	4956	1889.851414545726	0.129391681635
10	4965	1894.033327335029	0.085361889427
10	4976	1899.575108119803	1.083515893839
10	4991	1906.723034997552	0.277354085959
10	4998	1907.295180394825	0.138711029622
10	5001	1907.596898268563	0.017650420908
10	5007	1908.718104837349	0.056277248421
10	5016	1912.863193865095	0.339233060589
10	5019	1914.922986217584	0.52435009674
10	5027	1917.949115135232	0.730428294217
10	5031	1918.807065147822	0.552634848252
10	5036	1920.697226480591	0.152470738932
10	5043	1923.15952428469	0.400397736586
10	5044	1923.293952788464	0.254869797768
10	5048	1927.08730840259	0.237712440218
10	5058	1931.791186816975	0.121694538769
10	5069	1934.201099441186	0.318524179722
10	5074	1935.039984454126	0.340311309192
10	5079	1936.809128515071	1.984259940102
10	5084	1937.873263334972	2.456846721345
10	5085	1938.70132925166	1.120390844552
10	5093	1945.74930912686	0.621030081487
10	5099	1949.538061026455	0.539331300862
10	5105	1953.414589861646	0.918998256435
10	5112	1955.119738903568	2.002076031981
10	5115	1955.85791358129	1.052731262286
10	5122	1957.76808890493	0.110005844407
10	5123	1958.053982975992	0.331943507329
10	5132	1959.657300740057	1.096324240442
10	5135	1961.18702458969	0.069261244771
10	5138	1961.369597034597	0.179169613449
10	5145	1962.628533003338	0.256554096609
10	5148	1963.465861781187	0.075096796735
10	5154	1965.654943636992	1.658442222332
10	5157	1965.972952079032	0.38076920991
10	5174	1970.968262210991	0.133684605811
10	5199	1983.063379464884	0.813453690993
10	5202	1983.823965729314	1.429815229809
10	5203	1984.397060453186	1.952748404801
10	5204	1985.237781228506	2.464740009597
10	5211	1986.665414201709	0.416668046043
10	5212	1986.703776938733	0.150233980303
10	5215	1987.095445283375	0.009732182931
10	5225	1991.092313680027	1.686478526883
10	5226	1991.701539218139	2.026189609106
10	5231	1993.835598081021	0.161695258015
10	5237	1995.354741638708	0.118436683978
10	5240	1996.488106746273	0.57987958994
11	5249	2000	0.446
12	5249	2000	0.398

