version 2
run Monotonicity_test_recover_rate-8-20221219-18:27:14-14499
attr configname Monotonicity_test_recover_rate
attr datetime 20221219-18:27:14
attr experiment Monotonicity_test_recover_rate
attr inifile omnetpp.ini
attr iterationvars $0=0
attr iterationvarsf 0-
attr measurement $0=0
attr network Network
attr processid 14499
attr repetition 8
attr replication #8
attr resultdir results
attr runnumber 8
attr seedset 8
param *.minion.arrival_mean 2
param *.minion.service_mean 1.5
param *.boss.arrival_mean 2.5
param *.boss.service_mean 0.5
param *.player.recover_rate_x 0
param **.minion.arrival_distribution 0
param **.minion.service_distribution 0
param **.boss.arrival_distribution 0
param **.boss.service_distribution 0

vector 0 Network.player minion_jobs_number_stat:vector ETV
attr source signal_minion_jobs_number
vector 1 Network.player minion_jobs_queue_number_stat:vector ETV
attr source signal_minion_jobs_queue_number
vector 2 Network.player minion_recovered_stat:vector ETV
attr source signal_minion_recovered
vector 3 Network.player minion_defeated_stat:vector ETV
attr source signal_minion_defeated
vector 4 Network.player boss_jobs_number_stat:vector ETV
attr source signal_boss_jobs_number
vector 5 Network.player boss_jobs_queue_number_stat:vector ETV
attr source signal_boss_jobs_queue_number
vector 6 Network.player boss_defeated_stat:vector ETV
attr source signal_boss_defeated
vector 7 Network.player boss_waiting_time_stat:vector ETV
attr source signal_boss_waiting_time
vector 8 Network.player boss_response_time_stat:vector ETV
attr source signal_boss_response_time
vector 9 Network.player minion_waiting_time_stat:vector ETV
attr source signal_minion_waiting_time
vector 10 Network.player minion_response_time_stat:vector ETV
attr source signal_minion_response_time
vector 11 Network.player minion_throughput:vector ETV
attr source signal_minion_throughput
vector 12 Network.player boss_throughput:vector ETV
attr source signal_boss_throughput
0	0	0	0
0	8	3.916420786547	1
0	10	4.039440899453	2
0	16	4.97213722628	2
0	22	6.065174040816	3
0	30	7.685114913974	3
0	32	8.487228752263	4
0	48	14.718809245391	3
0	53	17.52362218543	1
0	59	20.192313701415	1
0	64	22.823909270233	2
0	76	26.211779377177	2
0	81	27.08445638231	3
0	86	27.297593444806	3
0	89	28.515053303549	4
0	101	33.790835300742	1
0	103	34.462500739458	2
0	109	36.341154640149	3
0	112	39.245865600499	4
0	118	41.061288052722	5
0	125	44.570898669436	4
0	127	44.763445052567	5
0	129	44.842573940862	6
0	131	45.689382785273	7
0	133	46.441099235687	8
0	140	48.614975741388	7
0	145	52.99772338337	7
0	149	54.163489342747	7
0	154	57.934152714679	7
0	159	59.537791441261	6
0	168	62.010416445659	6
0	172	64.443266380155	5
0	182	67.335887240463	4
0	184	69.116164787222	5
0	186	69.431091611405	6
0	188	69.533536640825	7
0	192	71.007840450492	8
0	194	72.657962910193	9
0	197	73.566185999993	10
0	200	76.474120501332	10
0	215	87.334354788419	9
0	235	92.170533724565	7
0	239	93.274807509172	7
0	241	93.469834597367	8
0	255	100.708213368503	6
0	267	105.364458045197	3
0	272	106.568379178766	4
0	277	107.80431167298	5
0	282	108.745904670224	6
0	284	109.948932067724	7
0	286	109.951530422823	8
0	305	124.875525983466	1
0	308	125.275402291493	1
0	311	125.629888227261	1
0	313	129.20827862321	2
0	317	131.679691282266	1
0	320	131.9381848613	1
0	322	132.288378083977	2
0	328	134.720317644277	2
0	331	138.049973278596	2
0	336	140.655119970716	3
0	338	140.726679361575	4
0	356	145.878125308512	4
0	367	147.409073929416	4
0	371	148.6771040695	4
0	373	149.041347527685	5
0	375	149.549259677104	6
0	377	150.286784741763	7
0	379	151.636951729901	8
0	381	151.729170322386	9
0	389	153.986194605207	9
0	392	154.531324760706	10
0	394	156.521107740323	11
0	396	158.767949923627	12
0	401	159.649199077165	13
0	405	162.699234073917	12
0	407	162.83718454632	13
0	413	165.213394164485	12
0	420	169.635901333613	9
0	426	170.433737854298	9
0	434	173.803311689383	4
0	436	175.165874865628	5
0	444	177.292229063062	3
0	449	178.777413905937	4
0	451	180.166648872514	5
0	453	180.875835229855	6
0	461	183.014145288756	4
0	464	184.258062457946	4
0	466	185.251840842942	5
0	482	193.622694961457	1
0	484	194.411969346081	2
0	488	195.802808541319	1
0	490	197.280317982108	2
0	494	198.295554363789	3
0	496	199.314664008198	4
0	503	201.917874359438	3
0	509	205.458652105786	1
0	515	209.439038368058	1
0	518	210.317684428121	1
0	520	210.370720532653	2
0	524	213.914061897477	1
0	526	214.599090918601	2
0	528	214.865955416477	3
0	530	217.978405681223	4
0	535	219.257350197568	5
0	538	220.479082930853	5
0	540	221.717912294478	6
0	542	221.731817469004	7
0	549	226.414521502554	6
0	551	227.501685640937	7
0	553	228.153045953947	8
0	557	228.956016311863	9
0	563	230.372269576727	10
0	565	232.225720177658	11
0	585	238.036456951592	8
0	588	238.821418998324	9
0	590	239.162034121545	10
0	596	247.115272085799	7
0	605	249.150113588012	4
0	608	250.924703715192	4
0	633	259.515360265466	2
0	636	259.796396208249	3
0	639	261.034806114493	3
0	645	262.506822389137	3
0	649	265.058928104672	2
0	652	265.945194757476	2
0	654	267.583669273007	3
0	656	267.613896501144	4
0	667	272.001737051345	5
0	669	272.204540228746	6
0	686	280.056820455543	1
0	694	283.123949361086	2
0	696	283.792026000901	3
0	700	284.905775754088	2
0	708	286.143763218409	3
0	710	286.584936421542	4
0	731	291.311512737905	5
0	740	293.268385079793	6
0	752	299.313829705979	4
0	758	301.358738035055	4
0	767	303.693157546918	4
0	772	304.324505301167	5
0	776	307.447376529012	4
0	778	307.72548180428	5
0	800	313.761155247767	4
0	802	315.041214192058	5
0	805	317.519505906453	5
0	810	318.510153624178	6
0	814	318.957050939666	5
0	818	319.995707987685	6
0	827	323.280993777094	6
0	829	324.224681355729	7
0	840	326.250950082845	8
0	842	326.942066153179	9
0	849	330.508641499949	9
0	853	332.11850964184	8
0	855	332.335344281	9
0	858	333.463746500876	9
0	860	333.767999734626	10
0	864	336.830747569485	11
0	867	337.077453945858	12
0	870	339.490560847382	12
0	872	340.312311871691	13
0	877	343.308189580919	11
0	879	343.826429371891	12
0	881	344.50530534665	13
0	891	346.60940740959	13
0	893	347.081648553047	14
0	897	348.140943655773	15
0	899	349.543760155673	16
0	907	352.333181774688	16
0	910	352.618903067295	17
0	912	352.642751544675	18
0	915	353.018699850074	18
0	917	353.09400268261	19
0	919	353.657307826564	20
0	923	355.719901715601	19
0	925	355.807102456581	20
0	931	357.620128082388	20
0	934	358.133494771721	20
0	936	358.670617077942	21
0	942	360.636184051116	21
0	946	362.545909558653	20
0	948	364.557919448585	21
0	950	365.545908491281	22
0	954	367.06850219556	21
0	960	369.263176013343	21
0	962	371.922138824471	22
0	964	373.34171649595	23
0	976	376.718306398117	22
0	978	377.493446818173	23
0	980	378.432993890857	24
0	983	379.397612465772	25
0	989	382.666329316104	22
0	991	383.647910713815	23
0	997	387.882602964898	23
0	1007	392.381242743408	22
0	1010	394.149321823634	22
0	1012	396.048876198007	23
0	1014	398.182216169988	24
0	1020	400.445303750566	21
0	1023	401.13151359358	21
0	1025	401.41531705397	22
0	1029	402.398563387381	21
0	1031	403.063701287426	22
0	1033	403.33604071065	23
0	1035	403.391761761187	24
0	1038	403.87033687275	24
0	1040	404.46412300138	25
0	1047	407.277555431556	21
0	1049	408.032072719437	22
0	1058	409.76170338167	23
0	1060	409.953662169878	24
0	1065	411.952092428327	24
0	1067	412.381589147442	25
0	1082	418.701030490526	22
0	1085	419.445990032409	22
0	1090	419.643981368745	23
0	1092	421.076747642662	24
0	1094	421.350053035053	25
0	1096	422.247311449222	26
0	1099	423.291339164035	26
0	1103	426.032458494153	25
0	1107	426.536366255475	26
0	1113	427.853241171213	27
0	1116	429.370082826348	27
0	1126	431.042935645669	28
0	1131	434.593672383311	27
0	1143	442.047173147815	24
0	1148	443.90094409368	25
0	1152	445.240475048691	24
0	1154	445.650565391983	25
0	1157	446.237808710915	25
0	1162	447.198105831893	26
0	1171	454.863212470444	23
0	1174	455.529873171505	23
0	1176	455.873874324998	24
0	1178	458.304025755451	25
0	1184	460.401921937195	25
0	1189	460.987439655972	25
0	1191	461.001483054972	26
0	1199	463.867341214548	25
0	1201	464.052490251005	26
0	1203	464.701331528679	27
0	1208	465.805263696869	25
0	1210	465.897604603246	26
0	1213	467.576741402589	26
0	1224	473.290613608975	24
0	1234	475.376632041809	23
0	1236	476.828961612593	24
0	1238	477.063798806239	25
0	1246	479.767104600048	26
0	1248	480.556172591671	27
0	1253	482.380821434645	28
0	1263	489.417868435504	27
0	1276	499.989878340888	23
0	1278	500.259879692862	24
0	1281	500.607597358181	24
0	1283	500.655858299092	25
0	1285	501.737096666521	26
0	1291	505.424032087661	26
0	1297	506.80773772192	26
0	1299	507.255741666725	27
0	1303	509.550390246772	28
0	1306	510.701934371821	29
0	1314	513.423678443141	29
0	1317	513.974377652572	30
0	1319	514.067950322396	31
0	1321	514.282407945335	32
0	1323	515.951825759665	33
0	1325	516.298205345638	34
0	1338	522.374517034523	33
0	1340	522.464371237559	34
0	1343	526.497610077274	34
0	1345	527.118269385463	35
0	1347	527.579577130161	36
0	1356	531.682919477915	37
0	1364	533.572426542712	37
0	1366	533.946482933972	38
0	1368	535.042532999748	39
0	1371	535.233834069005	39
0	1375	536.430510006116	38
0	1385	538.744643684094	36
0	1387	538.834649453024	37
0	1393	541.968491404339	38
0	1395	541.982230158334	39
0	1397	542.70474126349	40
0	1399	544.124719196285	41
0	1405	547.4434074662	41
0	1407	548.428209260346	42
0	1409	548.530812501826	43
0	1416	550.257999576215	44
0	1418	550.762131300229	45
0	1421	551.102598887422	46
0	1430	553.049767566151	43
0	1441	557.526889734878	40
0	1446	559.072968219445	39
0	1449	559.095286129854	39
0	1455	561.626825473118	39
0	1461	564.510238123991	39
0	1466	568.696415504181	40
0	1472	571.662530595221	40
0	1476	572.109486800769	41
0	1485	573.810456366762	42
0	1488	574.783046611082	42
0	1504	582.761934051697	35
0	1509	583.731777848667	36
0	1511	583.749208220343	37
0	1541	599.942326828402	31
0	1543	600.244439951167	32
0	1547	601.677537830707	31
0	1549	602.158165395523	32
0	1553	602.715889031632	33
0	1558	603.975557974044	32
0	1560	605.393962808089	33
0	1568	608.695654294465	28
0	1574	609.60611134896	28
0	1580	611.444679598284	28
0	1585	613.320819634774	29
0	1587	614.388191922671	30
0	1595	617.44275636639	28
0	1601	618.363720736656	28
0	1603	619.774264056599	29
0	1607	622.107141231082	28
0	1611	623.398056328938	27
0	1615	625.341679239785	26
0	1618	626.886984002966	26
0	1622	630.000968821658	25
0	1624	630.054310925111	26
0	1626	630.233370954797	27
0	1630	631.332880528452	28
0	1632	631.438983731368	29
0	1637	633.717474812627	30
0	1640	634.702236641469	31
0	1645	637.201346972567	29
0	1647	638.493750006673	30
0	1652	639.969159033214	30
0	1656	642.873070723528	30
0	1662	645.986257074579	30
0	1667	647.640710094945	31
0	1672	648.997326593938	31
0	1675	649.473119210582	32
0	1680	650.782852779385	30
0	1686	655.795963815323	27
0	1695	658.104049466935	27
0	1697	658.524332781908	28
0	1706	662.084577891361	28
0	1709	662.624817825732	28
0	1711	663.104718275415	29
0	1716	663.408804231936	30
0	1718	663.764771872086	31
0	1720	664.185809481962	32
0	1727	669.198806345173	31
0	1733	671.609198276336	31
0	1740	675.535331549947	27
0	1745	677.21039460594	25
0	1754	678.968374890127	22
0	1760	681.493447362957	22
0	1773	688.194166821405	23
0	1775	688.560653061135	24
0	1777	689.302660000947	25
0	1782	690.607028643204	26
0	1785	691.424937515637	27
0	1789	695.148820229527	26
0	1798	698.446918390281	23
0	1805	700.054206775548	24
0	1815	704.762616470474	23
0	1826	708.914072462773	22
0	1849	715.683763283382	18
0	1851	715.773810485621	19
0	1853	716.068726673621	20
0	1856	716.743201098891	21
0	1862	717.474539836818	22
0	1867	718.203205139001	23
0	1874	719.535227932538	24
0	1891	723.431068214305	22
0	1894	725.013218450444	23
0	1896	727.607615085799	24
0	1898	727.675270854914	25
0	1902	728.543603612448	24
0	1911	730.480337703097	23
0	1917	731.598042291734	23
0	1923	734.143882947703	24
0	1931	737.728014886272	24
0	1939	739.452388340084	25
0	1942	739.644910464484	26
0	1948	740.279065626368	26
0	1950	740.711463441132	27
0	1953	741.204898971096	27
0	1955	741.880523112494	28
0	1957	742.031465557417	29
0	1961	743.670386114765	28
0	1972	749.35400080195	26
0	1975	749.727335813627	26
0	1977	750.576001050246	27
0	1979	751.017880793835	28
0	1983	752.157672428595	27
0	1999	757.141934249665	23
0	2003	759.339507287948	22
0	2005	759.513391091394	23
0	2007	759.768417884036	24
0	2010	761.133216728832	24
0	2026	765.465871825149	23
0	2037	767.182093215448	23
0	2047	771.250847057823	20
0	2052	771.351640898625	21
0	2058	772.552357328017	22
0	2068	778.835424781065	23
0	2070	778.960782877194	24
0	2073	779.3218646576	24
0	2077	780.489352757643	23
0	2079	780.646884623691	24
0	2085	782.183759622594	24
0	2094	784.892471924192	24
0	2098	788.08718558267	23
0	2104	789.913215783805	23
0	2108	791.412134132491	22
0	2112	795.15462289679	21
0	2114	795.766354242092	22
0	2125	799.668531654578	20
0	2127	800.779716990018	21
0	2137	805.403744806986	20
0	2149	808.33446811599	16
0	2152	810.188529587933	17
0	2155	814.662956548694	17
0	2158	815.043465570599	17
0	2163	818.635460041584	18
0	2174	822.161802435203	16
0	2176	823.075708355059	17
0	2179	823.690104814858	17
0	2182	825.184517064639	17
0	2185	825.906882127551	17
0	2193	827.149443761035	15
0	2195	827.413908261554	16
0	2197	827.54440003504	17
0	2199	828.104441922114	18
0	2201	828.1982557005	19
0	2203	829.961897103522	20
0	2207	830.499871602215	21
0	2211	831.105466210934	22
0	2217	835.36792976058	21
0	2219	835.828238389794	22
0	2222	837.068494041228	22
0	2228	841.605053110058	19
0	2241	847.114380929889	18
0	2243	847.310589978675	19
0	2247	847.773463871542	20
0	2250	848.242148769628	21
0	2252	848.326270687632	22
0	2261	850.704445446251	22
0	2263	851.110132609278	23
0	2270	853.639820894422	22
0	2274	854.095856027687	23
0	2277	855.759679025537	24
0	2283	856.548951331035	23
0	2295	862.42654099757	23
0	2303	866.906031136127	22
0	2314	873.811410090334	20
0	2320	876.307636237267	20
0	2325	878.331663673267	21
0	2327	878.891781295021	22
0	2333	880.223990688565	22
0	2338	881.843266562581	22
0	2347	883.631424460483	23
0	2350	884.166475507438	23
0	2361	885.536672740463	24
0	2373	887.94290677033	25
0	2381	896.540896446384	25
0	2389	898.757886073071	23
0	2403	902.487653387744	24
0	2405	902.610501722465	25
0	2410	904.315327762311	23
0	2414	907.191731998223	22
0	2428	910.632077496778	23
0	2430	911.678428506347	24
0	2441	915.524283736393	23
0	2444	916.876551360863	24
0	2447	917.427958781667	25
0	2449	917.810626345359	26
0	2451	918.356064517384	27
0	2454	919.871382437253	27
0	2469	924.021076826959	20
0	2475	927.238014210512	18
0	2484	930.473606151477	18
0	2486	930.87754272746	19
0	2488	931.661931494075	20
0	2490	931.791985401453	21
0	2495	933.822763272667	22
0	2499	935.974991307359	21
0	2503	939.036022886302	20
0	2506	940.464189090846	20
0	2515	943.356263470897	18
0	2525	945.081848763083	19
0	2541	952.140874759732	18
0	2546	953.682690601841	19
0	2555	956.974895256899	16
0	2559	957.639559493664	17
0	2562	958.236809741966	18
0	2564	959.044455265224	19
0	2580	966.443395500899	20
0	2584	967.077678291844	20
0	2589	968.536836055521	21
0	2591	969.506605374727	22
0	2593	969.797765855932	23
0	2595	969.88978001191	24
0	2597	971.225256345039	25
0	2601	972.018387198809	26
0	2606	973.812186569487	27
0	2628	984.108265502876	24
0	2630	985.542779727404	25
0	2641	986.250151562076	26
0	2643	986.850756178646	27
0	2646	988.616071887995	27
0	2660	995.710530714225	25
0	2662	995.832687028867	26
0	2664	995.849178500916	27
0	2672	1000.099086557465	24
0	2675	1001.452295908778	25
0	2682	1002.078526205301	26
0	2684	1002.704762939368	27
0	2693	1008.195465032965	25
0	2707	1014.643218066679	23
0	2709	1014.991341972661	24
0	2713	1017.00212424879	25
0	2715	1017.399230401674	26
0	2719	1019.489262756018	26
0	2726	1023.897797282363	25
0	2729	1027.631506098931	25
0	2736	1028.395356466992	26
0	2738	1028.425117614467	27
0	2741	1030.204597451667	28
0	2743	1030.279907184648	29
0	2745	1030.476054096343	30
0	2747	1031.201831353773	31
0	2749	1031.499421556836	32
0	2767	1037.36573902516	29
0	2769	1037.730719834647	30
0	2777	1040.411537838565	30
0	2780	1041.482589708059	31
0	2782	1042.087100261356	32
0	2788	1047.878001170785	29
0	2790	1048.135853521238	30
0	2796	1050.052923363906	27
0	2799	1051.06845979527	27
0	2810	1054.873809504648	25
0	2816	1056.191856112335	25
0	2821	1057.450473397239	26
0	2824	1060.064062718172	26
0	2826	1060.380772624942	27
0	2828	1060.605598619033	28
0	2833	1061.598742497903	29
0	2836	1065.169453020764	29
0	2843	1070.388764775577	30
0	2847	1072.578014533264	30
0	2849	1073.622430365012	31
0	2857	1074.27283058041	32
0	2863	1077.60951092111	29
0	2865	1077.708425201823	30
0	2875	1078.795568015789	28
0	2878	1079.696675470247	29
0	2881	1080.578505426827	29
0	2884	1082.436836284774	29
0	2886	1082.865530305703	30
0	2889	1084.939221008051	30
0	2891	1086.404232714277	31
0	2893	1086.830639558626	32
0	2898	1087.582073889741	33
0	2905	1092.111446723279	32
0	2913	1096.156759799007	33
0	2919	1099.959055262333	33
0	2921	1100.727925766117	34
0	2925	1103.471399295281	35
0	2929	1105.623356847158	36
0	2931	1106.02092695098	37
0	2935	1107.50762074563	38
0	2937	1107.911203719756	39
0	2939	1108.732255477723	40
0	2946	1110.785733669377	39
0	2954	1115.355968880711	37
0	2960	1117.693877870779	37
0	2962	1118.722165903362	38
0	2971	1120.168164013802	38
0	2978	1121.411926018846	39
0	2984	1124.576086466994	40
0	2986	1124.893930005548	41
0	2998	1126.761236989814	42
0	3003	1130.309919937255	43
0	3008	1133.339794789963	43
0	3013	1134.499271629966	43
0	3015	1134.837936715614	44
0	3021	1136.178182261819	45
0	3023	1136.243071291833	46
0	3031	1138.313939649631	47
0	3033	1139.320102554962	48
0	3035	1139.573896070047	49
0	3038	1142.621222950103	49
0	3041	1144.162815881716	49
0	3045	1144.508541969904	48
0	3052	1147.580850215109	46
0	3056	1149.532891109719	46
0	3058	1149.866376728641	47
0	3060	1149.876156675373	48
0	3067	1150.918852115847	48
0	3069	1150.96622693047	49
0	3072	1151.324951730512	50
0	3074	1151.9402893947	51
0	3078	1153.456799408931	51
0	3081	1154.829767942104	51
0	3083	1155.339673863915	52
0	3088	1156.220244584578	52
0	3092	1157.856334456743	52
0	3104	1161.232460856012	51
0	3107	1161.795191238778	52
0	3113	1163.092367510274	52
0	3117	1164.700049354732	51
0	3119	1165.011185488036	52
0	3128	1165.938361499415	53
0	3140	1169.787330324831	51
0	3142	1169.863568194792	52
0	3151	1171.916118943996	52
0	3153	1172.108096332442	53
0	3156	1172.791214944743	54
0	3159	1176.24097207437	54
0	3179	1183.389959302039	48
0	3182	1185.569903128226	49
0	3186	1187.176440449509	48
0	3191	1188.564022956712	49
0	3195	1189.727268030003	48
0	3197	1189.826181511248	49
0	3200	1191.076709997514	49
0	3209	1196.23845656971	46
0	3211	1196.437588000751	47
0	3216	1197.952858591391	48
0	3221	1199.507125277261	48
0	3227	1201.650528944241	49
0	3229	1202.972515582805	50
0	3233	1205.408895520015	49
0	3236	1205.709534067649	49
0	3238	1206.314418773518	50
0	3241	1207.45669927708	50
0	3244	1209.010049897097	50
0	3250	1209.668391750652	51
0	3252	1210.032023245227	52
0	3255	1210.844465167286	53
0	3258	1211.42279816072	54
0	3266	1214.246971044042	52
0	3273	1217.799690255823	51
0	3279	1220.721154720786	51
0	3281	1220.748040957416	52
0	3287	1221.745715148395	52
0	3289	1221.872949309375	53
0	3291	1223.081600665168	54
0	3295	1226.598779161324	53
0	3297	1226.694269114103	54
0	3303	1227.813591873888	54
0	3305	1228.708898289426	55
0	3311	1229.212189453596	56
0	3313	1229.894181748423	57
0	3318	1230.386431397615	58
0	3321	1234.003750997634	59
0	3324	1235.014500122995	60
0	3332	1237.164444444907	61
0	3341	1239.968134837808	61
0	3343	1240.021673342038	62
0	3346	1242.358180316437	62
0	3354	1245.504001026825	63
0	3358	1248.077424699872	62
0	3361	1248.869610446026	62
0	3367	1255.295432425885	62
0	3370	1257.140842048209	62
0	3376	1261.682538105081	62
0	3386	1266.440371804401	61
0	3389	1267.410292594288	61
0	3403	1272.374272074981	56
0	3405	1274.161334730804	57
0	3408	1275.286269820936	57
0	3410	1275.416579539731	58
0	3421	1281.021383995517	56
0	3423	1281.190814012279	57
0	3427	1284.369466470228	56
0	3430	1285.348137053206	56
0	3445	1291.618480732869	53
0	3449	1292.920033991161	52
0	3451	1293.741004997687	53
0	3453	1293.86384012255	54
0	3455	1295.203034431945	55
0	3463	1297.481240944431	53
0	3466	1300.595664792498	53
0	3490	1308.413388974055	48
0	3493	1309.349430135443	49
0	3506	1312.228024177158	50
0	3508	1312.53894131886	51
0	3510	1312.925025317178	52
0	3512	1313.570094390989	53
0	3518	1314.133097621721	54
0	3523	1315.485977416197	53
0	3531	1316.933928780616	51
0	3534	1317.878140922996	51
0	3536	1318.658514378934	52
0	3538	1319.278031595866	53
0	3541	1320.039183043433	53
0	3543	1320.254908179987	54
0	3545	1320.837071062697	55
0	3552	1322.512170790683	54
0	3556	1324.34919695497	55
0	3562	1326.932861242319	53
0	3564	1327.581091148777	54
0	3578	1331.270812924579	55
0	3580	1332.29190772577	56
0	3605	1343.303641538922	52
0	3609	1346.209348515403	51
0	3614	1349.487467715743	49
0	3616	1349.57947901691	50
0	3618	1350.432799568348	51
0	3633	1353.198901555631	49
0	3635	1353.829196757428	50
0	3642	1357.524795070702	48
0	3652	1361.879211228074	47
0	3654	1362.416846934048	48
0	3661	1367.952469154064	47
0	3668	1368.875589877287	48
0	3678	1376.742858184314	48
0	3680	1377.253399828932	49
0	3695	1383.528585468163	46
0	3700	1385.262681001325	47
0	3707	1390.611246876484	46
0	3712	1391.698551360245	46
0	3715	1392.369688254587	47
0	3717	1392.72949826075	48
0	3737	1396.997434363786	42
0	3745	1399.273766972318	43
0	3760	1403.552393599819	43
0	3771	1409.259220729538	42
0	3776	1414.562372771761	40
0	3780	1416.533323505003	39
0	3795	1418.808489510235	38
0	3805	1425.493743698549	35
0	3810	1428.768533613186	36
0	3818	1430.851810629388	36
0	3820	1430.877800397209	37
0	3825	1433.103135260996	36
0	3827	1434.494607074792	37
0	3829	1435.292769687743	38
0	3838	1439.437351368825	37
0	3855	1444.689372999248	35
0	3862	1446.20494365202	35
0	3864	1446.668922466388	36
0	3880	1450.344280677899	34
0	3885	1450.9736969854	35
0	3889	1452.077498085046	35
0	3892	1452.875623813898	35
0	3896	1453.370265294237	36
0	3899	1454.542575869421	37
0	3902	1455.781363088095	37
0	3912	1459.465782559478	35
0	3914	1459.472261608342	36
0	3921	1462.249316475276	36
0	3925	1463.52777620269	37
0	3928	1464.596098750978	38
0	3934	1465.590000412654	35
0	3944	1467.555244025188	33
0	3946	1467.599088951794	34
0	3966	1476.047833132845	27
0	3968	1476.977408500374	28
0	3972	1478.308829258635	27
0	3987	1488.178444007151	26
0	3990	1489.793387705978	27
0	3993	1491.939045756507	27
0	3998	1494.390864146928	28
0	4003	1494.899028007613	29
0	4006	1496.571054633118	29
0	4009	1497.247614344528	29
0	4011	1500.335207022073	30
0	4015	1501.522449663857	29
0	4017	1502.071325254032	30
0	4025	1504.136733491523	25
0	4028	1507.078787758028	25
0	4031	1508.211104007847	25
0	4033	1508.359067130103	26
0	4035	1508.455327049286	27
0	4037	1510.079732001229	28
0	4050	1515.563748646152	26
0	4053	1517.247920472067	27
0	4058	1518.842487888859	28
0	4064	1520.62806327363	29
0	4068	1522.295075497859	30
0	4072	1524.235693511037	29
0	4079	1527.576170554719	28
0	4081	1528.039778483285	29
0	4083	1529.403797302034	30
0	4086	1530.333145590962	30
0	4090	1532.658222126282	29
0	4093	1534.610283974099	29
0	4102	1537.112581334793	29
0	4104	1537.439578968597	30
0	4106	1538.479979260132	31
0	4109	1541.980109535146	31
0	4127	1550.341960150042	30
0	4129	1550.83066062702	31
0	4134	1552.553656947312	32
0	4137	1554.444160379773	33
0	4143	1556.46965574238	33
0	4145	1558.200153605498	34
0	4147	1558.323537992985	35
0	4153	1559.611521340144	35
0	4156	1561.921517248041	35
0	4158	1562.249196730998	36
0	4174	1564.264011313178	35
0	4177	1565.017475779134	35
0	4180	1568.791476641076	35
0	4182	1573.135464158439	36
0	4197	1578.960277876502	36
0	4199	1579.301235420959	37
0	4219	1586.221490982371	38
0	4226	1590.264922845298	37
0	4235	1595.980184083324	37
0	4241	1598.57929918881	37
0	4243	1599.988159408847	38
0	4245	1600.476144940173	39
0	4247	1601.313092761309	40
0	4263	1607.776933694122	36
0	4267	1608.366045671167	35
0	4271	1610.059039017694	34
0	4276	1611.587092698381	35
0	4278	1611.593855051221	36
0	4280	1611.967951781056	37
0	4286	1616.810111203731	34
0	4289	1617.633125003924	34
0	4291	1618.673168568527	35
0	4293	1619.985660983828	36
0	4298	1620.581757724722	37
0	4306	1623.351097092077	34
0	4312	1624.388150608152	35
0	4317	1626.531071652044	36
0	4320	1628.528297325991	36
0	4322	1628.97033763747	37
0	4325	1629.238341134433	37
0	4329	1630.362935843495	38
0	4345	1637.187541537461	35
0	4351	1641.716519042777	35
0	4354	1645.036979548545	35
0	4356	1645.061137397707	36
0	4369	1648.255600764167	35
0	4376	1652.989624735826	34
0	4380	1654.069347738449	33
0	4384	1654.737532078934	34
0	4388	1655.937098800819	34
0	4390	1656.888317853678	35
0	4394	1657.745633214502	34
0	4403	1662.949831096336	34
0	4407	1665.401276512695	33
0	4412	1668.035899860959	34
0	4414	1668.6218766264	35
0	4417	1671.550246404795	35
0	4423	1673.858873370646	35
0	4428	1675.667953418453	33
0	4430	1675.952587229349	34
0	4433	1677.181667635725	34
0	4438	1681.023136093337	32
0	4442	1681.687740252343	33
0	4448	1682.389016669198	34
0	4462	1685.198825179304	35
0	4464	1685.300232104466	36
0	4472	1687.015336951529	37
0	4477	1687.245782921433	37
0	4490	1690.033004860035	34
0	4495	1691.441730365123	35
0	4507	1695.67976248533	35
0	4511	1696.779945000349	34
0	4514	1698.433750128985	34
0	4516	1698.963228349357	35
0	4518	1699.169648782598	36
0	4527	1701.15586921067	37
0	4532	1701.890032255524	38
0	4534	1702.47176712915	39
0	4538	1703.621283076167	40
0	4542	1703.827614268082	41
0	4544	1703.839036041845	42
0	4548	1706.321389686286	42
0	4550	1706.442263814367	43
0	4552	1706.802290614209	44
0	4555	1708.478092880226	44
0	4560	1710.946149133675	42
0	4564	1712.071178720411	43
0	4570	1713.546071583437	44
0	4573	1713.949136234495	44
0	4575	1714.005996752244	45
0	4580	1715.386809461806	46
0	4585	1717.703918270167	46
0	4588	1718.83809222992	47
0	4596	1721.4202874441	48
0	4599	1722.543930821187	48
0	4605	1727.29529828324	48
0	4610	1727.995293976927	48
0	4614	1729.79924404215	48
0	4619	1731.454046475042	49
0	4626	1733.641792292647	48
0	4632	1736.576453002462	48
0	4638	1740.692671466698	49
0	4645	1741.886963699366	50
0	4647	1743.192345084033	51
0	4655	1745.407344963208	52
0	4664	1748.252661472725	52
0	4666	1749.736882997458	53
0	4668	1749.750658837157	54
0	4670	1749.930291421475	55
0	4673	1750.914320981967	55
0	4681	1754.039251679122	53
0	4690	1758.617284035796	53
0	4693	1761.406234280016	53
0	4697	1763.433605905426	52
0	4699	1763.772103106948	53
0	4701	1765.581739657176	54
0	4703	1766.239539826369	55
0	4718	1769.147363102182	54
0	4728	1776.515058825508	54
0	4741	1779.589518827506	53
0	4746	1783.103777808372	54
0	4750	1786.876966045172	53
0	4767	1790.745455258415	52
0	4774	1792.190753440125	53
0	4785	1797.670507033302	51
0	4787	1798.287041160017	52
0	4796	1800.091334877918	49
0	4805	1802.144987185443	49
0	4808	1803.10586536905	49
0	4814	1804.630391557477	49
0	4827	1806.107547564989	50
0	4831	1806.76964296415	51
0	4833	1808.03897878339	52
0	4836	1808.364685922008	53
0	4862	1817.603555967564	51
0	4865	1818.124625959279	52
0	4870	1819.644032054649	53
0	4879	1821.907714268948	53
0	4882	1822.604374187522	53
0	4890	1824.932569132611	53
0	4892	1825.388009113513	54
0	4898	1825.946292318511	55
0	4900	1826.110688267935	56
0	4908	1829.944412803799	51
0	4911	1830.902739394103	51
0	4917	1832.750617347929	51
0	4946	1845.999639627752	43
0	4959	1851.034034539787	41
0	4962	1851.773624786027	42
0	4973	1854.502195527194	40
0	4975	1854.619376693676	41
0	4977	1854.765734155049	42
0	4993	1860.589070969222	40
0	4996	1861.485131482468	41
0	4998	1861.50337269731	42
0	5001	1865.996245510269	42
0	5003	1866.063002967346	43
0	5007	1866.662916604058	44
0	5010	1867.458192841263	45
0	5012	1867.578487058035	46
0	5014	1867.963637387873	47
0	5017	1869.918890622	47
0	5025	1873.125315866874	45
0	5032	1876.272539694962	44
0	5039	1877.487938673112	43
0	5053	1886.027148850649	41
0	5055	1886.520100324665	42
0	5063	1887.891833856357	40
0	5065	1888.460095649785	41
0	5067	1889.819228007956	42
0	5071	1891.750762404677	43
0	5075	1891.851351127439	44
0	5081	1895.628309114366	43
0	5083	1896.542579579093	44
0	5098	1901.643844262195	44
0	5101	1903.020768667383	44
0	5104	1904.03318841224	44
0	5112	1907.852908251565	44
0	5114	1908.118645426677	45
0	5117	1908.722043968504	46
0	5131	1914.597735528967	46
0	5133	1914.820846997013	47
0	5142	1917.518157964064	48
0	5148	1922.705719254794	48
0	5153	1924.76446157686	49
0	5156	1924.937311468795	49
0	5158	1926.027710588283	50
0	5164	1931.670564988525	47
0	5167	1932.571743026849	47
0	5170	1933.043017924434	47
0	5178	1934.336704741291	45
0	5180	1935.641701428457	46
0	5182	1936.033886985515	47
0	5184	1936.994515771889	48
0	5191	1939.463895624523	49
0	5199	1942.657149263497	48
0	5202	1943.966875546821	48
0	5206	1946.568051527348	47
0	5210	1947.280393569197	48
0	5212	1947.316394465465	49
0	5214	1947.674653577627	50
0	5220	1951.424340063885	51
0	5222	1952.232624072083	52
0	5231	1956.922108794337	49
0	5233	1957.092867127681	50
0	5239	1958.192287076518	49
0	5242	1958.670258760372	50
0	5244	1958.691273318638	51
0	5249	1960.757522712785	52
0	5253	1965.063878946626	51
0	5255	1965.52813531679	52
0	5257	1966.07874774586	53
0	5277	1981.374729437098	45
0	5283	1982.602509566206	45
0	5285	1982.661947153012	46
0	5287	1982.85727806091	47
0	5289	1983.487240238613	48
0	5309	1988.972804999477	46
0	5314	1989.74096798963	47
0	5316	1989.988248934936	48
0	5318	1990.484118115026	49
0	5331	1996.280264655654	45
0	5340	1997.232910848858	45
0	5345	1997.892794150222	46
0	5348	1998.282685973159	47
0	5350	1998.846061198121	48
0	5352	1999.07610559528	49
1	0	0	0
1	8	3.916420786547	0
1	10	4.039440899453	1
1	11	4.344967104852	1
1	16	4.97213722628	1
1	22	6.065174040816	2
1	25	7.398491209512	2
1	30	7.685114913974	2
1	32	8.487228752263	3
1	33	9.203315076853	3
1	34	9.678177729029	2
1	48	14.718809245391	2
1	49	15.351911939777	2
1	50	15.895640890413	1
1	51	16.347906144303	0
1	53	17.52362218543	0
1	54	17.698325168251	0
1	59	20.192313701415	0
1	64	22.823909270233	1
1	71	25.122185991486	1
1	76	26.211779377177	1
1	81	27.08445638231	2
1	82	27.094299727892	2
1	86	27.297593444806	2
1	89	28.515053303549	3
1	90	29.145190406365	3
1	91	29.294175383913	2
1	92	29.323961308285	1
1	99	33.757591159434	0
1	101	33.790835300742	0
1	103	34.462500739458	1
1	109	36.341154640149	2
1	112	39.245865600499	3
1	118	41.061288052722	4
1	122	43.935717964158	4
1	123	43.97642291288	3
1	125	44.570898669436	3
1	127	44.763445052567	4
1	129	44.842573940862	5
1	131	45.689382785273	6
1	133	46.441099235687	7
1	137	48.030085913382	7
1	138	48.449039404315	6
1	140	48.614975741388	6
1	141	50.999629559047	6
1	145	52.99772338337	6
1	147	53.606505060039	6
1	149	54.163489342747	6
1	150	54.356330456902	6
1	154	57.934152714679	6
1	156	59.131747413486	6
1	157	59.256098651847	5
1	159	59.537791441261	5
1	163	60.622424573273	5
1	168	62.010416445659	5
1	169	64.007136407986	5
1	170	64.17714391134	4
1	172	64.443266380155	4
1	173	64.445179432973	4
1	177	65.578348980202	3
1	182	67.335887240463	3
1	184	69.116164787222	4
1	186	69.431091611405	5
1	188	69.533536640825	6
1	192	71.007840450492	7
1	194	72.657962910193	8
1	197	73.566185999993	9
1	198	76.024893445204	9
1	200	76.474120501332	9
1	207	81.460028642091	9
1	208	81.614964577357	8
1	215	87.334354788419	8
1	223	89.838048454415	8
1	230	91.454921595828	7
1	231	91.57756704855	6
1	235	92.170533724565	6
1	237	92.933580693281	6
1	239	93.274807509172	6
1	241	93.469834597367	7
1	242	94.409669555887	7
1	246	95.504567077104	6
1	253	99.708048769669	5
1	255	100.708213368503	5
1	256	101.938833725973	5
1	257	102.365900031285	4
1	261	103.509714861644	3
1	265	105.005669872151	2
1	267	105.364458045197	2
1	272	106.568379178766	3
1	277	107.80431167298	4
1	282	108.745904670224	5
1	284	109.948932067724	6
1	286	109.951530422823	7
1	287	110.297064073791	7
1	288	110.73989629484	6
1	289	112.418679848862	5
1	290	112.649191462243	4
1	291	112.806560386312	3
1	292	113.62817922545	2
1	293	113.965101702063	1
1	297	115.405945272643	0
1	305	124.875525983466	0
1	306	125.002585148504	0
1	308	125.275402291493	0
1	309	125.467019481824	0
1	311	125.629888227261	0
1	313	129.20827862321	1
1	314	130.231449198268	1
1	315	130.423586373389	0
1	317	131.679691282266	0
1	318	131.765719117682	0
1	320	131.9381848613	0
1	322	132.288378083977	1
1	326	134.41164157677	1
1	328	134.720317644277	1
1	329	137.715482018326	1
1	331	138.049973278596	1
1	336	140.655119970716	2
1	338	140.726679361575	3
1	339	141.200309122707	3
1	356	145.878125308512	3
1	360	146.412360969907	3
1	367	147.409073929416	3
1	369	148.056690790817	3
1	371	148.6771040695	3
1	373	149.041347527685	4
1	375	149.549259677104	5
1	377	150.286784741763	6
1	379	151.636951729901	7
1	381	151.729170322386	8
1	385	153.489692982881	8
1	389	153.986194605207	8
1	392	154.531324760706	9
1	394	156.521107740323	10
1	396	158.767949923627	11
1	401	159.649199077165	12
1	402	160.650768290326	12
1	403	162.339832117629	11
1	405	162.699234073917	11
1	407	162.83718454632	12
1	408	162.943858234171	12
1	409	164.058062698445	11
1	413	165.213394164485	11
1	415	166.763628604833	11
1	416	168.994265883035	10
1	417	169.062780042574	9
1	418	169.186272252638	8
1	420	169.635901333613	8
1	421	170.161366887096	8
1	426	170.433737854298	8
1	427	170.519767065129	8
1	428	170.683189158182	7
1	429	170.955102352218	6
1	430	171.153756433763	5
1	431	171.196979556502	4
1	432	171.721821872255	3
1	434	173.803311689383	3
1	436	175.165874865628	4
1	437	175.205334791108	4
1	438	176.373514095636	3
1	442	176.761942213565	2
1	444	177.292229063062	2
1	449	178.777413905937	3
1	451	180.166648872514	4
1	453	180.875835229855	5
1	454	181.116712342672	5
1	455	181.382924193367	4
1	456	181.417839144806	3
1	461	183.014145288756	3
1	462	184.164654620065	3
1	464	184.258062457946	3
1	466	185.251840842942	4
1	467	186.023545612904	4
1	468	186.144639121828	3
1	469	186.263171524563	2
1	470	186.311503519405	1
1	471	187.004978647552	0
1	482	193.622694961457	0
1	484	194.411969346081	1
1	485	194.581785754317	1
1	486	194.765439253084	0
1	488	195.802808541319	0
1	490	197.280317982108	1
1	494	198.295554363789	2
1	496	199.314664008198	3
1	498	199.64718735037	3
1	499	199.932517352107	2
1	503	201.917874359438	2
1	505	203.088444788706	2
1	506	203.415653447031	1
1	507	203.829767550128	0
1	509	205.458652105786	0
1	513	209.350292313243	0
1	515	209.439038368058	0
1	516	209.987389288257	0
1	518	210.317684428121	0
1	520	210.370720532653	1
1	521	212.513888530705	1
1	522	212.734290563047	0
1	524	213.914061897477	0
1	526	214.599090918601	1
1	528	214.865955416477	2
1	530	217.978405681223	3
1	535	219.257350197568	4
1	536	220.467059470639	4
1	538	220.479082930853	4
1	540	221.717912294478	5
1	542	221.731817469004	6
1	543	222.809317317122	6
1	547	225.964061885242	5
1	549	226.414521502554	5
1	551	227.501685640937	6
1	553	228.153045953947	7
1	557	228.956016311863	8
1	563	230.372269576727	9
1	565	232.225720177658	10
1	566	232.542074284205	10
1	570	232.841969827228	9
1	574	234.464864554758	8
1	575	234.737188897818	7
1	585	238.036456951592	7
1	588	238.821418998324	8
1	590	239.162034121545	9
1	591	240.797139609721	9
1	592	241.010252975647	8
1	593	242.46074307839	7
1	594	243.272441446949	6
1	596	247.115272085799	6
1	597	247.445552834771	6
1	598	248.185764935611	5
1	599	248.244066888892	4
1	603	248.820963423321	3
1	605	249.150113588012	3
1	606	250.331815862502	3
1	608	250.924703715192	3
1	609	251.169447852921	3
1	625	256.409846086609	2
1	626	256.474388070898	1
1	633	259.515360265466	1
1	636	259.796396208249	2
1	637	260.799588019596	2
1	639	261.034806114493	2
1	640	261.289323185479	2
1	645	262.506822389137	2
1	646	263.308704584161	2
1	647	264.68561700644	1
1	649	265.058928104672	1
1	650	265.435196673043	1
1	652	265.945194757476	1
1	654	267.583669273007	2
1	656	267.613896501144	3
1	667	272.001737051345	4
1	669	272.204540228746	5
1	673	273.858549355694	5
1	674	274.833522514438	4
1	675	274.850162179525	3
1	679	275.721411333651	2
1	680	276.446534291588	1
1	681	277.034211725675	0
1	686	280.056820455543	0
1	694	283.123949361086	1
1	696	283.792026000901	2
1	697	283.842882755215	2
1	698	284.790579908776	1
1	700	284.905775754088	1
1	708	286.143763218409	2
1	710	286.584936421542	3
1	731	291.311512737905	4
1	740	293.268385079793	5
1	742	293.630820888388	5
1	746	294.708962693022	4
1	750	297.069190327412	3
1	752	299.313829705979	3
1	753	299.860463697838	3
1	758	301.358738035055	3
1	765	303.646332457898	3
1	767	303.693157546918	3
1	772	304.324505301167	4
1	773	305.517824297123	4
1	774	306.095718689349	3
1	776	307.447376529012	3
1	778	307.72548180428	4
1	782	308.968648366545	4
1	792	312.12109856949	3
1	800	313.761155247767	3
1	802	315.041214192058	4
1	803	315.806072488989	4
1	805	317.519505906453	4
1	810	318.510153624178	5
1	811	318.545293977304	5
1	812	318.568607053239	4
1	814	318.957050939666	4
1	818	319.995707987685	5
1	823	322.437526938813	5
1	827	323.280993777094	5
1	829	324.224681355729	6
1	840	326.250950082845	7
1	842	326.942066153179	8
1	847	330.208200797777	8
1	849	330.508641499949	8
1	850	330.573348670599	8
1	851	331.331064514328	7
1	853	332.11850964184	7
1	855	332.335344281	8
1	856	333.069010730812	8
1	858	333.463746500876	8
1	860	333.767999734626	9
1	864	336.830747569485	10
1	867	337.077453945858	11
1	868	338.569342427947	11
1	870	339.490560847382	11
1	872	340.312311871691	12
1	873	340.930815802183	12
1	874	341.523221214374	11
1	875	342.180514747979	10
1	877	343.308189580919	10
1	879	343.826429371891	11
1	881	344.50530534665	12
1	882	344.799504559971	12
1	891	346.60940740959	12
1	893	347.081648553047	13
1	897	348.140943655773	14
1	899	349.543760155673	15
1	900	350.463681322571	15
1	907	352.333181774688	15
1	910	352.618903067295	16
1	912	352.642751544675	17
1	913	352.768852913137	17
1	915	353.018699850074	17
1	917	353.09400268261	18
1	919	353.657307826564	19
1	920	353.839472941115	19
1	921	354.591459948906	18
1	923	355.719901715601	18
1	925	355.807102456581	19
1	929	357.368054185742	19
1	931	357.620128082388	19
1	932	357.654648127226	19
1	934	358.133494771721	19
1	936	358.670617077942	20
1	937	358.901816453637	20
1	942	360.636184051116	20
1	943	361.822232396144	20
1	944	362.126580737412	19
1	946	362.545909558653	19
1	948	364.557919448585	20
1	950	365.545908491281	21
1	951	365.553571242119	21
1	952	366.650356907346	20
1	954	367.06850219556	20
1	958	368.492766494827	20
1	960	369.263176013343	20
1	962	371.922138824471	21
1	964	373.34171649595	22
1	971	375.89724615809	22
1	972	376.40249161766	21
1	976	376.718306398117	21
1	978	377.493446818173	22
1	980	378.432993890857	23
1	983	379.397612465772	24
1	984	379.620229242098	24
1	985	380.343910198504	23
1	986	381.602629589495	22
1	987	382.322076208291	21
1	989	382.666329316104	21
1	991	383.647910713815	22
1	995	385.596012939942	22
1	997	387.882602964898	22
1	998	390.397165489274	22
1	999	391.631060415891	21
1	1007	392.381242743408	21
1	1008	393.002423974444	21
1	1010	394.149321823634	21
1	1012	396.048876198007	22
1	1014	398.182216169988	23
1	1015	398.412776799665	23
1	1016	398.562973414174	22
1	1017	398.844259307746	21
1	1018	400.275230490654	20
1	1020	400.445303750566	20
1	1021	400.678825937639	20
1	1023	401.13151359358	20
1	1025	401.41531705397	21
1	1026	401.8206025234	21
1	1027	402.207333647216	20
1	1029	402.398563387381	20
1	1031	403.063701287426	21
1	1033	403.33604071065	22
1	1035	403.391761761187	23
1	1036	403.460416188842	23
1	1038	403.87033687275	23
1	1040	404.46412300138	24
1	1041	405.073870853323	24
1	1042	405.232764005152	23
1	1043	405.297446711314	22
1	1044	406.886454493898	21
1	1045	407.167207305019	20
1	1047	407.277555431556	20
1	1049	408.032072719437	21
1	1058	409.76170338167	22
1	1060	409.953662169878	23
1	1063	410.247163984758	23
1	1065	411.952092428327	23
1	1067	412.381589147442	24
1	1074	415.67615761265	24
1	1075	416.364992564749	23
1	1076	416.631318698104	22
1	1077	417.764532066881	21
1	1082	418.701030490526	21
1	1083	419.250249587854	21
1	1085	419.445990032409	21
1	1090	419.643981368745	22
1	1092	421.076747642662	23
1	1094	421.350053035053	24
1	1096	422.247311449222	25
1	1097	422.669205893613	25
1	1099	423.291339164035	25
1	1100	423.407441935023	25
1	1101	425.362467871351	24
1	1103	426.032458494153	24
1	1107	426.536366255475	25
1	1113	427.853241171213	26
1	1114	428.364303305025	26
1	1116	429.370082826348	26
1	1126	431.042935645669	27
1	1128	431.980283121465	27
1	1129	434.281927122712	26
1	1131	434.593672383311	26
1	1132	437.371727822443	26
1	1139	440.464928929374	25
1	1140	441.165783399942	24
1	1141	442.041617166089	23
1	1143	442.047173147815	23
1	1148	443.90094409368	24
1	1149	444.027128527417	24
1	1150	444.40300166594	23
1	1152	445.240475048691	23
1	1154	445.650565391983	24
1	1155	446.078430153488	24
1	1157	446.237808710915	24
1	1162	447.198105831893	25
1	1163	449.244730978833	25
1	1164	451.71762313342	24
1	1165	451.76429154622	23
1	1169	452.555732950883	22
1	1171	454.863212470444	22
1	1172	455.016584709016	22
1	1174	455.529873171505	22
1	1176	455.873874324998	23
1	1178	458.304025755451	24
1	1182	460.07475293698	24
1	1184	460.401921937195	24
1	1185	460.540715427378	24
1	1189	460.987439655972	24
1	1191	461.001483054972	25
1	1196	463.038689678492	25
1	1197	463.613880902628	24
1	1199	463.867341214548	24
1	1201	464.052490251005	25
1	1203	464.701331528679	26
1	1204	464.870694890601	26
1	1205	465.549517920392	25
1	1206	465.697418929823	24
1	1208	465.805263696869	24
1	1210	465.897604603246	25
1	1211	465.958885879274	25
1	1213	467.576741402589	25
1	1214	468.574590872659	25
1	1218	471.822169842159	24
1	1219	472.367856827111	23
1	1224	473.290613608975	23
1	1225	473.657762248707	23
1	1232	475.028218972814	22
1	1234	475.376632041809	22
1	1236	476.828961612593	23
1	1238	477.063798806239	24
1	1246	479.767104600048	25
1	1248	480.556172591671	26
1	1253	482.380821434645	27
1	1254	482.773467872773	27
1	1261	488.601519943123	26
1	1263	489.417868435504	26
1	1264	489.693496307076	26
1	1265	491.216440634109	25
1	1266	492.868145467921	24
1	1267	494.750212721178	23
1	1274	499.299022032742	22
1	1276	499.989878340888	22
1	1278	500.259879692862	23
1	1279	500.557044808373	23
1	1281	500.607597358181	23
1	1283	500.655858299092	24
1	1285	501.737096666521	25
1	1289	503.90431294087	25
1	1291	505.424032087661	25
1	1295	506.798467660647	25
1	1297	506.80773772192	25
1	1299	507.255741666725	26
1	1303	509.550390246772	27
1	1306	510.701934371821	28
1	1307	511.601273239347	28
1	1314	513.423678443141	28
1	1317	513.974377652572	29
1	1319	514.067950322396	30
1	1321	514.282407945335	31
1	1323	515.951825759665	32
1	1325	516.298205345638	33
1	1326	516.405967202813	33
1	1333	520.078562586795	32
1	1338	522.374517034523	32
1	1340	522.464371237559	33
1	1341	525.130777781992	33
1	1343	526.497610077274	33
1	1345	527.118269385463	34
1	1347	527.579577130161	35
1	1356	531.682919477915	36
1	1362	533.543872524077	36
1	1364	533.572426542712	36
1	1366	533.946482933972	37
1	1368	535.042532999748	38
1	1369	535.185875380459	38
1	1371	535.233834069005	38
1	1372	535.616176776329	38
1	1373	536.330537649737	37
1	1375	536.430510006116	37
1	1379	537.446322536162	37
1	1380	538.064983787175	36
1	1381	538.260225073348	35
1	1385	538.744643684094	35
1	1387	538.834649453024	36
1	1393	541.968491404339	37
1	1395	541.982230158334	38
1	1397	542.70474126349	39
1	1399	544.124719196285	40
1	1400	546.604409950524	40
1	1405	547.4434074662	40
1	1407	548.428209260346	41
1	1409	548.530812501826	42
1	1416	550.257999576215	43
1	1418	550.762131300229	44
1	1421	551.102598887422	45
1	1425	551.985117547781	45
1	1426	551.988736497052	44
1	1427	552.447291717229	43
1	1428	552.816166192278	42
1	1430	553.049767566151	42
1	1431	553.503351533676	42
1	1432	553.70062806358	41
1	1433	554.507534173387	40
1	1434	556.43140239371	39
1	1441	557.526889734878	39
1	1443	558.178275392393	39
1	1444	558.42003763869	38
1	1446	559.072968219445	38
1	1447	559.081879315442	38
1	1449	559.095286129854	38
1	1453	560.484406463878	38
1	1455	561.626825473118	38
1	1459	564.288332892595	38
1	1461	564.510238123991	38
1	1466	568.696415504181	39
1	1467	569.191680017924	39
1	1472	571.662530595221	39
1	1476	572.109486800769	40
1	1485	573.810456366762	41
1	1486	574.619499637596	41
1	1488	574.783046611082	41
1	1489	575.860537131167	41
1	1490	577.135811840477	40
1	1491	577.605480492765	39
1	1492	577.708618596313	38
1	1493	578.68285550018	37
1	1497	579.967212733796	36
1	1501	581.51790695119	35
1	1502	582.095376750895	34
1	1504	582.761934051697	34
1	1509	583.731777848667	35
1	1511	583.749208220343	36
1	1512	584.767552961261	36
1	1525	591.887052991794	35
1	1529	592.27670805995	34
1	1530	593.206665697139	33
1	1531	595.41412305574	32
1	1535	598.312554612782	31
1	1539	598.858981690885	30
1	1541	599.942326828402	30
1	1543	600.244439951167	31
1	1544	600.319964139609	31
1	1545	601.542729807875	30
1	1547	601.677537830707	30
1	1549	602.158165395523	31
1	1553	602.715889031632	32
1	1555	603.054676413216	32
1	1556	603.113286815486	31
1	1558	603.975557974044	31
1	1560	605.393962808089	32
1	1561	605.969313825454	32
1	1562	606.277372744575	31
1	1563	606.766827661173	30
1	1564	608.196337302882	29
1	1565	608.528804969508	28
1	1566	608.573612424486	27
1	1568	608.695654294465	27
1	1572	609.328389681929	27
1	1574	609.60611134896	27
1	1575	610.138678728756	27
1	1580	611.444679598284	27
1	1585	613.320819634774	28
1	1587	614.388191922671	29
1	1588	614.990783394489	29
1	1589	615.872824554257	28
1	1590	616.342620940773	27
1	1595	617.44275636639	27
1	1599	618.042273071207	27
1	1601	618.363720736656	27
1	1603	619.774264056599	28
1	1604	621.152466218521	28
1	1605	621.159798458166	27
1	1607	622.107141231082	27
1	1608	622.912985016932	27
1	1609	623.12691894404	26
1	1611	623.398056328938	26
1	1612	624.250127404091	26
1	1613	624.913935978318	25
1	1615	625.341679239785	25
1	1616	626.667973795924	25
1	1618	626.886984002966	25
1	1619	627.405543611708	25
1	1620	629.530281224901	24
1	1622	630.000968821658	24
1	1624	630.054310925111	25
1	1626	630.233370954797	26
1	1630	631.332880528452	27
1	1632	631.438983731368	28
1	1637	633.717474812627	29
1	1640	634.702236641469	30
1	1641	635.528811632916	30
1	1642	635.817881244963	29
1	1643	636.496559067831	28
1	1645	637.201346972567	28
1	1647	638.493750006673	29
1	1648	638.692303241335	29
1	1652	639.969159033214	29
1	1654	642.518781998073	29
1	1656	642.873070723528	29
1	1657	645.38049963287	29
1	1662	645.986257074579	29
1	1667	647.640710094945	30
1	1668	647.970771690985	30
1	1672	648.997326593938	30
1	1675	649.473119210582	31
1	1676	649.494097425785	31
1	1677	649.81972000021	30
1	1678	650.621382003695	29
1	1680	650.782852779385	29
1	1681	653.377505817767	29
1	1682	653.59363613944	28
1	1683	654.015973992653	27
1	1684	655.180645959406	26
1	1686	655.795963815323	26
1	1687	655.962185719709	26
1	1695	658.104049466935	26
1	1697	658.524332781908	27
1	1704	661.076008377514	27
1	1706	662.084577891361	27
1	1707	662.373197648265	27
1	1709	662.624817825732	27
1	1711	663.104718275415	28
1	1716	663.408804231936	29
1	1718	663.764771872086	30
1	1720	664.185809481962	31
1	1721	664.377717034414	31
1	1722	666.815276679164	30
1	1727	669.198806345173	30
1	1731	670.610817721173	30
1	1733	671.609198276336	30
1	1734	672.190016236849	30
1	1735	672.848299930115	29
1	1736	673.486859434723	28
1	1737	673.577793222578	27
1	1738	675.447185221462	26
1	1740	675.535331549947	26
1	1741	676.926374435023	26
1	1742	676.941799447746	25
1	1743	677.001737775256	24
1	1745	677.21039460594	24
1	1746	677.369308818956	24
1	1747	677.393537502964	23
1	1751	678.343205165442	22
1	1752	678.710677949997	21
1	1754	678.968374890127	21
1	1755	679.339090951756	21
1	1760	681.493447362957	21
1	1773	688.194166821405	22
1	1775	688.560653061135	23
1	1777	689.302660000947	24
1	1782	690.607028643204	25
1	1785	691.424937515637	26
1	1786	692.043332267229	26
1	1787	694.460637138269	25
1	1789	695.148820229527	25
1	1790	695.948767609455	25
1	1791	696.721289004029	24
1	1792	697.792684449739	23
1	1793	697.965668574269	22
1	1798	698.446918390281	22
1	1805	700.054206775548	23
1	1807	701.392402545747	23
1	1811	703.966873216287	22
1	1815	704.762616470474	22
1	1823	707.917057192132	22
1	1824	707.991783161635	21
1	1826	708.914072462773	21
1	1827	708.985398242107	21
1	1828	711.746677650989	20
1	1829	711.835650721028	19
1	1830	712.071815598072	18
1	1831	712.42146837257	17
1	1849	715.683763283382	17
1	1851	715.773810485621	18
1	1853	716.068726673621	19
1	1856	716.743201098891	20
1	1862	717.474539836818	21
1	1867	718.203205139001	22
1	1874	719.535227932538	23
1	1876	719.737710630352	23
1	1877	721.306945025803	22
1	1881	722.025900428484	21
1	1891	723.431068214305	21
1	1894	725.013218450444	22
1	1896	727.607615085799	23
1	1898	727.675270854914	24
1	1899	727.747449528792	24
1	1900	727.947313614437	23
1	1902	728.543603612448	23
1	1903	728.54762899059	23
1	1904	729.770073244219	22
1	1911	730.480337703097	22
1	1913	731.446714617885	22
1	1917	731.598042291734	22
1	1923	734.143882947703	23
1	1924	736.630706646278	23
1	1931	737.728014886272	23
1	1939	739.452388340084	24
1	1942	739.644910464484	25
1	1946	740.197088947156	25
1	1948	740.279065626368	25
1	1950	740.711463441132	26
1	1951	741.032785503973	26
1	1953	741.204898971096	26
1	1955	741.880523112494	27
1	1957	742.031465557417	28
1	1958	742.303524470698	28
1	1959	743.546703662034	27
1	1961	743.670386114765	27
1	1962	744.622083986576	27
1	1966	747.385643885463	26
1	1967	747.622051423532	25
1	1972	749.35400080195	25
1	1973	749.422858653562	25
1	1975	749.727335813627	25
1	1977	750.576001050246	26
1	1979	751.017880793835	27
1	1980	751.592983835405	27
1	1981	751.935925003535	26
1	1983	752.157672428595	26
1	1987	752.498726552258	26
1	1988	752.875445326203	25
1	1989	752.994239208088	24
1	1996	755.53470645598	23
1	1997	756.748154665059	22
1	1999	757.141934249665	22
1	2000	758.274259727682	22
1	2001	758.822118938126	21
1	2003	759.339507287948	21
1	2005	759.513391091394	22
1	2007	759.768417884036	23
1	2008	761.103324269268	23
1	2010	761.133216728832	23
1	2011	761.536363614917	23
1	2012	762.82472645895	22
1	2026	765.465871825149	22
1	2027	765.591300876247	22
1	2037	767.182093215448	22
1	2039	767.930583708707	22
1	2040	768.745169079699	21
1	2041	769.114130103726	20
1	2045	770.818731510306	19
1	2047	771.250847057823	19
1	2052	771.351640898625	20
1	2058	772.552357328017	21
1	2068	778.835424781065	22
1	2070	778.960782877194	23
1	2071	779.129265765776	23
1	2073	779.3218646576	23
1	2074	779.967034281193	23
1	2075	780.436438732289	22
1	2077	780.489352757643	22
1	2079	780.646884623691	23
1	2083	782.001414449921	23
1	2085	782.183759622594	23
1	2092	784.508087524779	23
1	2094	784.892471924192	23
1	2095	787.144676969711	23
1	2096	787.676354563988	22
1	2098	788.08718558267	22
1	2102	788.783026068078	22
1	2104	789.913215783805	22
1	2105	790.600544909621	22
1	2106	791.369256663768	21
1	2108	791.412134132491	21
1	2109	791.685541105705	21
1	2110	792.829491374269	20
1	2112	795.15462289679	20
1	2114	795.766354242092	21
1	2115	795.996976093299	21
1	2116	796.128532984325	20
1	2117	796.510678275089	19
1	2125	799.668531654578	19
1	2127	800.779716990018	20
1	2131	802.829758465158	20
1	2132	803.742816518948	19
1	2137	805.403744806986	19
1	2138	805.532600972544	19
1	2139	805.656662966505	18
1	2143	806.678335361373	17
1	2144	807.240743954244	16
1	2145	807.653294662133	15
1	2149	808.33446811599	15
1	2152	810.188529587933	16
1	2153	811.155217021998	16
1	2155	814.662956548694	16
1	2156	814.857822724316	16
1	2158	815.043465570599	16
1	2163	818.635460041584	17
1	2164	819.089213546024	17
1	2165	820.451735598801	16
1	2169	821.248497761671	15
1	2174	822.161802435203	15
1	2176	823.075708355059	16
1	2177	823.360559950082	16
1	2179	823.690104814858	16
1	2180	823.982796508707	16
1	2182	825.184517064639	16
1	2183	825.400918217283	16
1	2185	825.906882127551	16
1	2186	825.955908367509	16
1	2190	826.591441001702	15
1	2191	826.945201875515	14
1	2193	827.149443761035	14
1	2195	827.413908261554	15
1	2197	827.54440003504	16
1	2199	828.104441922114	17
1	2201	828.1982557005	18
1	2203	829.961897103522	19
1	2207	830.499871602215	20
1	2211	831.105466210934	21
1	2214	833.399857086263	21
1	2215	834.079440883489	20
1	2217	835.36792976058	20
1	2219	835.828238389794	21
1	2220	836.361541266126	21
1	2222	837.068494041228	21
1	2223	838.551768953113	21
1	2224	839.506756049368	20
1	2225	840.845059475633	19
1	2226	840.979860017793	18
1	2228	841.605053110058	18
1	2229	842.512836370263	18
1	2239	845.89854273446	17
1	2241	847.114380929889	17
1	2243	847.310589978675	18
1	2247	847.773463871542	19
1	2250	848.242148769628	20
1	2252	848.326270687632	21
1	2253	848.983137568215	21
1	2261	850.704445446251	21
1	2263	851.110132609278	22
1	2264	852.142146767229	22
1	2268	852.960976528451	21
1	2270	853.639820894422	21
1	2274	854.095856027687	22
1	2277	855.759679025537	23
1	2278	856.040082655924	23
1	2279	856.465088459985	22
1	2283	856.548951331035	22
1	2288	858.977801397675	22
1	2295	862.42654099757	22
1	2297	862.891728951814	22
1	2301	866.669133218061	21
1	2303	866.906031136127	21
1	2310	870.321721412397	21
1	2311	870.800972352768	20
1	2312	873.1328249819	19
1	2314	873.811410090334	19
1	2318	876.187647239904	19
1	2320	876.307636237267	19
1	2325	878.331663673267	20
1	2327	878.891781295021	21
1	2331	879.738618379083	21
1	2333	880.223990688565	21
1	2334	881.101304121092	21
1	2338	881.843266562581	21
1	2347	883.631424460483	22
1	2348	883.810566311948	22
1	2350	884.166475507438	22
1	2361	885.536672740463	23
1	2373	887.94290677033	24
1	2376	889.312111061276	24
1	2381	896.540896446384	24
1	2385	897.539087970868	24
1	2386	898.053328563016	23
1	2387	898.096611437752	22
1	2389	898.757886073071	22
1	2403	902.487653387744	23
1	2405	902.610501722465	24
1	2406	902.732689580151	24
1	2407	903.825136510833	23
1	2408	904.037382856967	22
1	2410	904.315327762311	22
1	2411	906.424742510843	22
1	2412	907.191578814996	21
1	2414	907.191731998223	21
1	2428	910.632077496778	22
1	2430	911.678428506347	23
1	2434	913.322023832782	23
1	2435	913.609108747031	22
1	2441	915.524283736393	22
1	2444	916.876551360863	23
1	2447	917.427958781667	24
1	2449	917.810626345359	25
1	2451	918.356064517384	26
1	2452	918.592608356805	26
1	2454	919.871382437253	26
1	2455	919.976716822421	26
1	2456	920.214805954623	25
1	2457	920.314384729178	24
1	2458	921.037931465643	23
1	2462	922.391096671308	22
1	2463	923.222092443865	21
1	2464	923.457554366944	20
1	2465	923.886037298454	19
1	2469	924.021076826959	19
1	2471	926.336667595943	19
1	2472	926.410843872882	18
1	2473	927.16292470291	17
1	2475	927.238014210512	17
1	2482	928.985278682285	17
1	2484	930.473606151477	17
1	2486	930.87754272746	18
1	2488	931.661931494075	19
1	2490	931.791985401453	20
1	2495	933.822763272667	21
1	2496	935.045779566766	21
1	2497	935.699604135648	20
1	2499	935.974991307359	20
1	2500	937.793711062581	20
1	2501	937.916774729905	19
1	2503	939.036022886302	19
1	2504	939.489402055983	19
1	2506	940.464189090846	19
1	2507	940.648264760442	19
1	2508	941.601798792078	18
1	2509	941.853333640004	17
1	2515	943.356263470897	17
1	2525	945.081848763083	18
1	2532	948.804862612789	18
1	2539	951.24102060346	17
1	2541	952.140874759732	17
1	2546	953.682690601841	18
1	2547	955.060778614943	18
1	2548	955.311645518474	17
1	2549	955.597865740832	16
1	2553	956.965401305252	15
1	2555	956.974895256899	15
1	2559	957.639559493664	16
1	2562	958.236809741966	17
1	2564	959.044455265224	18
1	2580	966.443395500899	19
1	2582	966.732258224083	19
1	2584	967.077678291844	19
1	2589	968.536836055521	20
1	2591	969.506605374727	21
1	2593	969.797765855932	22
1	2595	969.88978001191	23
1	2597	971.225256345039	24
1	2601	972.018387198809	25
1	2606	973.812186569487	26
1	2614	977.016367772595	26
1	2615	979.006944901345	25
1	2619	981.83982156155	24
1	2626	983.647775631323	23
1	2628	984.108265502876	23
1	2630	985.542779727404	24
1	2641	986.250151562076	25
1	2643	986.850756178646	26
1	2644	988.33843320738	26
1	2646	988.616071887995	26
1	2653	990.785152197676	26
1	2654	993.068248898704	25
1	2655	993.850124649513	24
1	2660	995.710530714225	24
1	2662	995.832687028867	25
1	2664	995.849178500916	26
1	2665	995.872484264446	26
1	2666	996.409115775165	25
1	2667	999.22931741341	24
1	2668	999.260150385559	23
1	2672	1000.099086557465	23
1	2675	1001.452295908778	24
1	2682	1002.078526205301	25
1	2684	1002.704762939368	26
1	2689	1005.482424314552	26
1	2690	1007.725082174438	25
1	2691	1007.960126070077	24
1	2693	1008.195465032965	24
1	2694	1008.329686599271	24
1	2701	1011.960054527377	23
1	2705	1012.804577027227	22
1	2707	1014.643218066679	22
1	2709	1014.991341972661	23
1	2713	1017.00212424879	24
1	2715	1017.399230401674	25
1	2717	1017.985852925927	25
1	2719	1019.489262756018	25
1	2720	1020.560885926372	25
1	2724	1022.488271898424	24
1	2726	1023.897797282363	24
1	2727	1025.862187397693	24
1	2729	1027.631506098931	24
1	2736	1028.395356466992	25
1	2738	1028.425117614467	26
1	2741	1030.204597451667	27
1	2743	1030.279907184648	28
1	2745	1030.476054096343	29
1	2747	1031.201831353773	30
1	2749	1031.499421556836	31
1	2750	1031.7731246364	31
1	2760	1034.630486556653	30
1	2761	1034.727660416641	29
1	2765	1037.103731027449	28
1	2767	1037.36573902516	28
1	2769	1037.730719834647	29
1	2773	1038.53009266549	29
1	2777	1040.411537838565	29
1	2780	1041.482589708059	30
1	2782	1042.087100261356	31
1	2783	1044.578287572344	31
1	2784	1046.023828531741	30
1	2785	1046.547242476574	29
1	2786	1047.51421610997	28
1	2788	1047.878001170785	28
1	2790	1048.135853521238	29
1	2791	1048.140980290856	29
1	2792	1048.172754959696	28
1	2793	1049.295550095695	27
1	2794	1049.414484087555	26
1	2796	1050.052923363906	26
1	2797	1050.846321172277	26
1	2799	1051.06845979527	26
1	2806	1052.606159759415	26
1	2807	1053.731400165357	25
1	2808	1054.671723221042	24
1	2810	1054.873809504648	24
1	2814	1055.964605820397	24
1	2816	1056.191856112335	24
1	2821	1057.450473397239	25
1	2822	1059.561015628381	25
1	2824	1060.064062718172	25
1	2826	1060.380772624942	26
1	2828	1060.605598619033	27
1	2833	1061.598742497903	28
1	2834	1063.828664286499	28
1	2836	1065.169453020764	28
1	2843	1070.388764775577	29
1	2845	1071.443259861823	29
1	2847	1072.578014533264	29
1	2849	1073.622430365012	30
1	2857	1074.27283058041	31
1	2858	1074.41102286264	31
1	2859	1074.484389484162	30
1	2860	1076.763466738456	29
1	2861	1076.79864398043	28
1	2863	1077.60951092111	28
1	2865	1077.708425201823	29
1	2869	1078.23257967367	29
1	2870	1078.294155080595	28
1	2871	1078.608723272334	27
1	2875	1078.795568015789	27
1	2878	1079.696675470247	28
1	2879	1080.540091813767	28
1	2881	1080.578505426827	28
1	2882	1081.905047094615	28
1	2884	1082.436836284774	28
1	2886	1082.865530305703	29
1	2887	1084.282371605529	29
1	2889	1084.939221008051	29
1	2891	1086.404232714277	30
1	2893	1086.830639558626	31
1	2898	1087.582073889741	32
1	2899	1088.618241589823	32
1	2900	1090.129803050777	31
1	2905	1092.111446723279	31
1	2913	1096.156759799007	32
1	2917	1098.271068342317	32
1	2919	1099.959055262333	32
1	2921	1100.727925766117	33
1	2925	1103.471399295281	34
1	2929	1105.623356847158	35
1	2931	1106.02092695098	36
1	2935	1107.50762074563	37
1	2937	1107.911203719756	38
1	2939	1108.732255477723	39
1	2943	1110.093199813106	39
1	2944	1110.367525625119	38
1	2946	1110.785733669377	38
1	2947	1111.334192392368	38
1	2948	1111.550886961995	37
1	2952	1115.131337772374	36
1	2954	1115.355968880711	36
1	2958	1116.444065443694	36
1	2960	1117.693877870779	36
1	2962	1118.722165903362	37
1	2963	1119.690044782893	37
1	2971	1120.168164013802	37
1	2978	1121.411926018846	38
1	2984	1124.576086466994	39
1	2986	1124.893930005548	40
1	2998	1126.761236989814	41
1	3003	1130.309919937255	42
1	3006	1133.225213941209	42
1	3008	1133.339794789963	42
1	3009	1134.037913445021	42
1	3013	1134.499271629966	42
1	3015	1134.837936715614	43
1	3021	1136.178182261819	44
1	3023	1136.243071291833	45
1	3031	1138.313939649631	46
1	3033	1139.320102554962	47
1	3035	1139.573896070047	48
1	3036	1139.997455699426	48
1	3038	1142.621222950103	48
1	3039	1143.109448979789	48
1	3041	1144.162815881716	48
1	3042	1144.299170427887	48
1	3043	1144.350091695055	47
1	3045	1144.508541969904	47
1	3046	1145.089025849036	47
1	3047	1145.376585592055	46
1	3048	1147.189916259802	45
1	3052	1147.580850215109	45
1	3054	1149.322633694283	45
1	3056	1149.532891109719	45
1	3058	1149.866376728641	46
1	3060	1149.876156675373	47
1	3061	1150.444702536671	47
1	3067	1150.918852115847	47
1	3069	1150.96622693047	48
1	3072	1151.324951730512	49
1	3074	1151.9402893947	50
1	3076	1152.593595305008	50
1	3078	1153.456799408931	50
1	3079	1154.756724693805	50
1	3081	1154.829767942104	50
1	3083	1155.339673863915	51
1	3084	1156.081996261937	51
1	3088	1156.220244584578	51
1	3090	1157.821131226242	51
1	3092	1157.856334456743	51
1	3093	1158.153266843287	51
1	3100	1160.791026262563	50
1	3104	1161.232460856012	50
1	3107	1161.795191238778	51
1	3111	1162.81542101839	51
1	3113	1163.092367510274	51
1	3114	1163.965022049061	51
1	3115	1164.214230923161	50
1	3117	1164.700049354732	50
1	3119	1165.011185488036	51
1	3128	1165.938361499415	52
1	3131	1166.694225981934	52
1	3132	1166.96198751474	51
1	3133	1167.250826295355	50
1	3140	1169.787330324831	50
1	3142	1169.863568194792	51
1	3147	1171.649522583681	51
1	3151	1171.916118943996	51
1	3153	1172.108096332442	52
1	3156	1172.791214944743	53
1	3157	1173.482501206943	53
1	3159	1176.24097207437	53
1	3160	1176.529593213435	53
1	3164	1177.103301227809	52
1	3165	1177.150822872101	51
1	3166	1177.932370454595	50
1	3170	1180.374938970608	49
1	3171	1180.612494818092	48
1	3175	1182.646402321233	47
1	3179	1183.389959302039	47
1	3182	1185.569903128226	48
1	3183	1185.614397171817	48
1	3184	1186.967860612274	47
1	3186	1187.176440449509	47
1	3191	1188.564022956712	48
1	3192	1189.217995089919	48
1	3193	1189.566258750088	47
1	3195	1189.727268030003	47
1	3197	1189.826181511248	48
1	3198	1190.879949066022	48
1	3200	1191.076709997514	48
1	3201	1191.380280542793	48
1	3202	1192.567821969361	47
1	3206	1194.103665455643	46
1	3207	1195.576712103481	45
1	3209	1196.23845656971	45
1	3211	1196.437588000751	46
1	3216	1197.952858591391	47
1	3217	1197.975113295928	47
1	3221	1199.507125277261	47
1	3227	1201.650528944241	48
1	3229	1202.972515582805	49
1	3230	1203.016781715732	49
1	3231	1203.387312133995	48
1	3233	1205.408895520015	48
1	3234	1205.518643989638	48
1	3236	1205.709534067649	48
1	3238	1206.314418773518	49
1	3239	1207.231648320757	49
1	3241	1207.45669927708	49
1	3242	1208.929423793914	49
1	3244	1209.010049897097	49
1	3250	1209.668391750652	50
1	3252	1210.032023245227	51
1	3255	1210.844465167286	52
1	3258	1211.42279816072	53
1	3262	1211.848467637285	53
1	3263	1212.313522906932	52
1	3264	1213.299018925159	51
1	3266	1214.246971044042	51
1	3267	1215.747607118336	51
1	3271	1217.432490850984	50
1	3273	1217.799690255823	50
1	3277	1220.193941493427	50
1	3279	1220.721154720786	50
1	3281	1220.748040957416	51
1	3282	1221.317385369338	51
1	3287	1221.745715148395	51
1	3289	1221.872949309375	52
1	3291	1223.081600665168	53
1	3292	1223.222737663661	53
1	3293	1226.305061676367	52
1	3295	1226.598779161324	52
1	3297	1226.694269114103	53
1	3301	1227.737872697434	53
1	3303	1227.813591873888	53
1	3305	1228.708898289426	54
1	3311	1229.212189453596	55
1	3313	1229.894181748423	56
1	3318	1230.386431397615	57
1	3321	1234.003750997634	58
1	3324	1235.014500122995	59
1	3332	1237.164444444907	60
1	3339	1239.513764440477	60
1	3341	1239.968134837808	60
1	3343	1240.021673342038	61
1	3344	1241.75907519472	61
1	3346	1242.358180316437	61
1	3354	1245.504001026825	62
1	3355	1245.545819208777	62
1	3356	1245.872565523293	61
1	3358	1248.077424699872	61
1	3359	1248.754582888421	61
1	3361	1248.869610446026	61
1	3365	1252.14262367173	61
1	3367	1255.295432425885	61
1	3368	1256.896481524221	61
1	3370	1257.140842048209	61
1	3374	1261.243780276368	61
1	3376	1261.682538105081	61
1	3377	1261.875148162621	61
1	3381	1264.852617015862	60
1	3386	1266.440371804401	60
1	3387	1266.682902048506	60
1	3389	1267.410292594288	60
1	3396	1269.352121889113	60
1	3397	1269.527170831934	59
1	3398	1270.268469740677	58
1	3399	1271.069263854948	57
1	3400	1271.866132345354	56
1	3401	1271.875797328474	55
1	3403	1272.374272074981	55
1	3405	1274.161334730804	56
1	3406	1274.281770971755	56
1	3408	1275.286269820936	56
1	3410	1275.416579539731	57
1	3411	1275.71571430844	57
1	3412	1279.191413096897	56
1	3413	1279.730707142369	55
1	3421	1281.021383995517	55
1	3423	1281.190814012279	56
1	3424	1282.686303881219	56
1	3425	1284.147818896867	55
1	3427	1284.369466470228	55
1	3428	1284.995190060483	55
1	3430	1285.348137053206	55
1	3431	1287.622209899932	55
1	3438	1289.451636786203	54
1	3439	1290.273189841307	53
1	3440	1291.219866929534	52
1	3445	1291.618480732869	52
1	3446	1292.0920157143	52
1	3447	1292.374426131614	51
1	3449	1292.920033991161	51
1	3451	1293.741004997687	52
1	3453	1293.86384012255	53
1	3455	1295.203034431945	54
1	3456	1295.52247745724	54
1	3460	1296.520563141366	53
1	3461	1297.314357555049	52
1	3463	1297.481240944431	52
1	3464	1300.336991593716	52
1	3466	1300.595664792498	52
1	3470	1302.085934430562	52
1	3471	1302.982881775185	51
1	3472	1303.169884445512	50
1	3482	1306.988250529558	49
1	3483	1307.523348219386	48
1	3484	1308.082964089388	47
1	3490	1308.413388974055	47
1	3493	1309.349430135443	48
1	3506	1312.228024177158	49
1	3508	1312.53894131886	50
1	3510	1312.925025317178	51
1	3512	1313.570094390989	52
1	3518	1314.133097621721	53
1	3520	1315.121422561935	53
1	3521	1315.202337868085	52
1	3523	1315.485977416197	52
1	3524	1316.068306764069	52
1	3525	1316.417518295925	51
1	3529	1316.76389558645	50
1	3531	1316.933928780616	50
1	3532	1317.342756951894	50
1	3534	1317.878140922996	50
1	3536	1318.658514378934	51
1	3538	1319.278031595866	52
1	3539	1319.611245508064	52
1	3541	1320.039183043433	52
1	3543	1320.254908179987	53
1	3545	1320.837071062697	54
1	3549	1321.946600962257	54
1	3550	1322.255062594937	53
1	3552	1322.512170790683	53
1	3556	1324.34919695497	54
1	3558	1324.559748891933	54
1	3559	1325.850591752039	53
1	3560	1326.550182808041	52
1	3562	1326.932861242319	52
1	3564	1327.581091148777	53
1	3578	1331.270812924579	54
1	3580	1332.29190772577	55
1	3584	1334.51913627948	55
1	3588	1336.310956952619	54
1	3589	1338.602231650766	53
1	3596	1340.886417540171	52
1	3603	1343.024656447841	51
1	3605	1343.303641538922	51
1	3606	1343.950379336764	51
1	3607	1345.956727060518	50
1	3609	1346.209348515403	50
1	3610	1347.079556705975	50
1	3611	1347.285315415345	49
1	3612	1349.377365393041	48
1	3614	1349.487467715743	48
1	3616	1349.57947901691	49
1	3618	1350.432799568348	50
1	3619	1350.758104214861	50
1	3623	1351.270459331726	49
1	3624	1351.661946827656	48
1	3633	1353.198901555631	48
1	3635	1353.829196757428	49
1	3638	1354.971852850634	49
1	3639	1355.207536286161	48
1	3640	1356.426861623216	47
1	3642	1357.524795070702	47
1	3646	1360.951569892621	47
1	3650	1361.075225704399	46
1	3652	1361.879211228074	46
1	3654	1362.416846934048	47
1	3658	1366.247250413574	47
1	3659	1367.326396516562	46
1	3661	1367.952469154064	46
1	3668	1368.875589877287	47
1	3670	1372.577685971554	47
1	3678	1376.742858184314	47
1	3680	1377.253399828932	48
1	3684	1378.926234381902	48
1	3691	1381.845111006894	47
1	3692	1382.042113675603	46
1	3693	1382.608709142017	45
1	3695	1383.528585468163	45
1	3700	1385.262681001325	46
1	3701	1385.344377487463	46
1	3705	1389.946233192412	45
1	3707	1390.611246876484	45
1	3708	1391.093402501228	45
1	3712	1391.698551360245	45
1	3715	1392.369688254587	46
1	3717	1392.72949826075	47
1	3718	1393.053094583961	47
1	3719	1393.19562178135	46
1	3726	1394.377509919646	45
1	3727	1394.438328814411	44
1	3728	1394.622004658643	43
1	3729	1394.832964045621	42
1	3730	1396.346967758798	41
1	3737	1396.997434363786	41
1	3745	1399.273766972318	42
1	3750	1400.577065245203	42
1	3760	1403.552393599819	42
1	3762	1405.804475784356	42
1	3769	1408.979668873859	41
1	3771	1409.259220729538	41
1	3772	1409.299177025624	41
1	3773	1410.027608421273	40
1	3774	1413.443711857276	39
1	3776	1414.562372771761	39
1	3777	1414.981593316534	39
1	3778	1415.746586565492	38
1	3780	1416.533323505003	38
1	3784	1417.500009205527	38
1	3788	1417.811071365143	37
1	3795	1418.808489510235	37
1	3797	1419.610871670125	37
1	3798	1419.983306287911	36
1	3799	1420.015623901432	35
1	3803	1422.739351921003	34
1	3805	1425.493743698549	34
1	3810	1428.768533613186	35
1	3811	1428.837434942327	35
1	3818	1430.851810629388	35
1	3820	1430.877800397209	36
1	3822	1432.100512047466	36
1	3823	1432.272986671073	35
1	3825	1433.103135260996	35
1	3827	1434.494607074792	36
1	3829	1435.292769687743	37
1	3833	1437.308624382891	37
1	3834	1437.857982197972	36
1	3838	1439.437351368825	36
1	3840	1440.359749632029	36
1	3841	1440.372412763692	35
1	3851	1443.947813654241	34
1	3855	1444.689372999248	34
1	3860	1446.180736062565	34
1	3862	1446.20494365202	34
1	3864	1446.668922466388	35
1	3868	1447.429055010534	35
1	3872	1448.910268560338	34
1	3873	1449.127257738876	33
1	3880	1450.344280677899	33
1	3885	1450.9736969854	34
1	3887	1451.040118685927	34
1	3889	1452.077498085046	34
1	3890	1452.156162086892	34
1	3892	1452.875623813898	34
1	3896	1453.370265294237	35
1	3899	1454.542575869421	36
1	3900	1455.693087279968	36
1	3902	1455.781363088095	36
1	3903	1456.32438605472	36
1	3907	1457.32928461787	35
1	3908	1458.105900901244	34
1	3912	1459.465782559478	34
1	3914	1459.472261608342	35
1	3916	1460.499231038129	35
1	3921	1462.249316475276	35
1	3925	1463.52777620269	36
1	3928	1464.596098750978	37
1	3929	1464.717479392088	37
1	3930	1464.823344742205	36
1	3931	1465.035892771486	35
1	3932	1465.384708506761	34
1	3934	1465.590000412654	34
1	3935	1465.894047741064	34
1	3936	1465.968786222716	33
1	3940	1467.144673364221	32
1	3944	1467.555244025188	32
1	3946	1467.599088951794	33
1	3948	1467.802364016429	33
1	3949	1468.21009129657	32
1	3950	1469.837688386127	31
1	3960	1474.596834915218	30
1	3961	1474.696777601536	29
1	3962	1475.383578428911	28
1	3963	1475.458197283621	27
1	3964	1475.639019585543	26
1	3966	1476.047833132845	26
1	3968	1476.977408500374	27
1	3969	1477.571409436765	27
1	3970	1478.280541440226	26
1	3972	1478.308829258635	26
1	3976	1480.811665175839	26
1	3983	1487.099516189126	25
1	3987	1488.178444007151	25
1	3990	1489.793387705978	26
1	3991	1491.098928344806	26
1	3993	1491.939045756507	26
1	3998	1494.390864146928	27
1	4003	1494.899028007613	28
1	4004	1496.276943147544	28
1	4006	1496.571054633118	28
1	4007	1496.876556180929	28
1	4009	1497.247614344528	28
1	4011	1500.335207022073	29
1	4012	1500.610551656374	29
1	4013	1501.264774106188	28
1	4015	1501.522449663857	28
1	4017	1502.071325254032	29
1	4018	1502.216072342915	29
1	4019	1502.262366471493	28
1	4020	1502.727888908093	27
1	4021	1502.997686888406	26
1	4022	1503.134416574167	25
1	4023	1503.280788953042	24
1	4025	1504.136733491523	24
1	4026	1504.755527568071	24
1	4028	1507.078787758028	24
1	4029	1507.71078663493	24
1	4031	1508.211104007847	24
1	4033	1508.359067130103	25
1	4035	1508.455327049286	26
1	4037	1510.079732001229	27
1	4038	1510.165653396948	27
1	4045	1514.209682700728	26
1	4046	1514.906349869414	25
1	4050	1515.563748646152	25
1	4053	1517.247920472067	26
1	4058	1518.842487888859	27
1	4064	1520.62806327363	28
1	4068	1522.295075497859	29
1	4069	1522.440301114951	29
1	4070	1523.995135836701	28
1	4072	1524.235693511037	28
1	4073	1524.765415295966	28
1	4074	1525.90665260456	27
1	4079	1527.576170554719	27
1	4081	1528.039778483285	28
1	4083	1529.403797302034	29
1	4084	1529.939578406842	29
1	4086	1530.333145590962	29
1	4087	1531.430853824474	29
1	4088	1532.625531596115	28
1	4090	1532.658222126282	28
1	4091	1534.56170152227	28
1	4093	1534.610283974099	28
1	4100	1536.407921315874	28
1	4102	1537.112581334793	28
1	4104	1537.439578968597	29
1	4106	1538.479979260132	30
1	4107	1539.83745969831	30
1	4109	1541.980109535146	30
1	4110	1545.617041754686	30
1	4114	1547.968956612567	29
1	4127	1550.341960150042	29
1	4129	1550.83066062702	30
1	4134	1552.553656947312	31
1	4137	1554.444160379773	32
1	4141	1556.414371813081	32
1	4143	1556.46965574238	32
1	4145	1558.200153605498	33
1	4147	1558.323537992985	34
1	4151	1559.553050695555	34
1	4153	1559.611521340144	34
1	4154	1561.768669864426	34
1	4156	1561.921517248041	34
1	4158	1562.249196730998	35
1	4162	1562.839588586846	35
1	4166	1563.189325722006	34
1	4174	1564.264011313178	34
1	4175	1564.344700647426	34
1	4177	1565.017475779134	34
1	4178	1567.726123368939	34
1	4180	1568.791476641076	34
1	4182	1573.135464158439	35
1	4183	1573.179573616075	35
1	4197	1578.960277876502	35
1	4199	1579.301235420959	36
1	4219	1586.221490982371	37
1	4223	1589.789927671559	37
1	4224	1590.076615629213	36
1	4226	1590.264922845298	36
1	4227	1592.743240884635	36
1	4235	1595.980184083324	36
1	4236	1596.948351425935	36
1	4241	1598.57929918881	36
1	4243	1599.988159408847	37
1	4245	1600.476144940173	38
1	4247	1601.313092761309	39
1	4248	1601.490376395933	39
1	4249	1602.141714473897	38
1	4253	1603.839308882188	37
1	4257	1606.61040282327	36
1	4258	1607.370295722592	35
1	4263	1607.776933694122	35
1	4264	1607.817715091315	35
1	4265	1608.241642086623	34
1	4267	1608.366045671167	34
1	4268	1609.453494869037	34
1	4269	1609.785661897051	33
1	4271	1610.059039017694	33
1	4276	1611.587092698381	34
1	4278	1611.593855051221	35
1	4280	1611.967951781056	36
1	4281	1612.01631571237	36
1	4282	1613.184082472051	35
1	4283	1613.767598779026	34
1	4284	1614.106898450159	33
1	4286	1616.810111203731	33
1	4287	1617.077820335611	33
1	4289	1617.633125003924	33
1	4291	1618.673168568527	34
1	4293	1619.985660983828	35
1	4298	1620.581757724722	36
1	4299	1621.363715345478	36
1	4300	1621.67870408468	35
1	4301	1621.845145809952	34
1	4302	1622.265759206384	33
1	4306	1623.351097092077	33
1	4312	1624.388150608152	34
1	4317	1626.531071652044	35
1	4318	1626.646626798502	35
1	4320	1628.528297325991	35
1	4322	1628.97033763747	36
1	4323	1629.19989783376	36
1	4325	1629.238341134433	36
1	4329	1630.362935843495	37
1	4334	1631.236246236845	37
1	4341	1632.045342575682	36
1	4342	1636.808844960328	35
1	4343	1637.026158083082	34
1	4345	1637.187541537461	34
1	4349	1640.62991319443	34
1	4351	1641.716519042777	34
1	4352	1644.17521992132	34
1	4354	1645.036979548545	34
1	4356	1645.061137397707	35
1	4363	1647.741686344188	35
1	4364	1647.919390813407	34
1	4369	1648.255600764167	34
1	4373	1650.637212591552	34
1	4374	1652.715049647658	33
1	4376	1652.989624735826	33
1	4377	1653.021161546909	33
1	4378	1653.67923898826	32
1	4380	1654.069347738449	32
1	4384	1654.737532078934	33
1	4386	1655.868109425876	33
1	4388	1655.937098800819	33
1	4390	1656.888317853678	34
1	4391	1657.14066087608	34
1	4392	1657.405162638303	33
1	4394	1657.745633214502	33
1	4401	1662.608681660294	33
1	4403	1662.949831096336	33
1	4404	1663.737724992927	33
1	4405	1665.155628885313	32
1	4407	1665.401276512695	32
1	4412	1668.035899860959	33
1	4414	1668.6218766264	34
1	4415	1669.471013211817	34
1	4417	1671.550246404795	34
1	4418	1671.888215953947	34
1	4423	1673.858873370646	34
1	4424	1673.95727142715	34
1	4425	1674.942300516431	33
1	4426	1675.294929378125	32
1	4428	1675.667953418453	32
1	4430	1675.952587229349	33
1	4431	1675.982229370209	33
1	4433	1677.181667635725	33
1	4434	1677.51577404016	33
1	4435	1680.433686427052	32
1	4436	1680.517339618782	31
1	4438	1681.023136093337	31
1	4442	1681.687740252343	32
1	4448	1682.389016669198	33
1	4462	1685.198825179304	34
1	4464	1685.300232104466	35
1	4472	1687.015336951529	36
1	4473	1687.133022695612	36
1	4477	1687.245782921433	36
1	4479	1687.990823445973	36
1	4480	1688.457936324968	35
1	4481	1688.86352228518	34
1	4482	1689.319424865563	33
1	4490	1690.033004860035	33
1	4495	1691.441730365123	34
1	4505	1694.839389369323	34
1	4507	1695.67976248533	34
1	4508	1696.190660914879	34
1	4509	1696.446442030356	33
1	4511	1696.779945000349	33
1	4512	1698.077542134922	33
1	4514	1698.433750128985	33
1	4516	1698.963228349357	34
1	4518	1699.169648782598	35
1	4527	1701.15586921067	36
1	4532	1701.890032255524	37
1	4534	1702.47176712915	38
1	4538	1703.621283076167	39
1	4542	1703.827614268082	40
1	4544	1703.839036041845	41
1	4546	1706.128592687544	41
1	4548	1706.321389686286	41
1	4550	1706.442263814367	42
1	4552	1706.802290614209	43
1	4553	1708.233867392954	43
1	4555	1708.478092880226	43
1	4556	1708.507144844978	43
1	4557	1709.663214001567	42
1	4558	1710.013432160093	41
1	4560	1710.946149133675	41
1	4564	1712.071178720411	42
1	4570	1713.546071583437	43
1	4571	1713.941319455638	43
1	4573	1713.949136234495	43
1	4575	1714.005996752244	44
1	4580	1715.386809461806	45
1	4581	1716.533278706023	45
1	4585	1717.703918270167	45
1	4588	1718.83809222992	46
1	4596	1721.4202874441	47
1	4597	1721.706745132373	47
1	4599	1722.543930821187	47
1	4603	1726.972665671933	47
1	4605	1727.29529828324	47
1	4606	1727.532857296173	47
1	4610	1727.995293976927	47
1	4612	1728.699778468492	47
1	4614	1729.79924404215	47
1	4619	1731.454046475042	48
1	4620	1731.993400894803	48
1	4624	1733.62832103537	47
1	4626	1733.641792292647	47
1	4630	1735.728195186984	47
1	4632	1736.576453002462	47
1	4638	1740.692671466698	48
1	4645	1741.886963699366	49
1	4647	1743.192345084033	50
1	4655	1745.407344963208	51
1	4662	1748.20047428449	51
1	4664	1748.252661472725	51
1	4666	1749.736882997458	52
1	4668	1749.750658837157	53
1	4670	1749.930291421475	54
1	4671	1750.737186561642	54
1	4673	1750.914320981967	54
1	4674	1751.738398002994	54
1	4678	1752.348185319664	53
1	4679	1752.386390141918	52
1	4681	1754.039251679122	52
1	4682	1756.315727186281	52
1	4690	1758.617284035796	52
1	4691	1761.078142032672	52
1	4693	1761.406234280016	52
1	4694	1761.776543272155	52
1	4695	1761.822660449396	51
1	4697	1763.433605905426	51
1	4699	1763.772103106948	52
1	4701	1765.581739657176	53
1	4703	1766.239539826369	54
1	4710	1766.948153557546	54
1	4714	1768.471638088562	53
1	4718	1769.147363102182	53
1	4720	1772.169556334732	53
1	4728	1776.515058825508	53
1	4735	1777.805477222175	53
1	4736	1778.771616637992	52
1	4741	1779.589518827506	52
1	4746	1783.103777808372	53
1	4747	1783.422507521742	53
1	4748	1786.55591091854	52
1	4750	1786.876966045172	52
1	4751	1787.330554813274	52
1	4755	1788.112799677717	51
1	4767	1790.745455258415	51
1	4774	1792.190753440125	52
1	4775	1792.650202093578	52
1	4779	1795.000606779038	51
1	4780	1795.235609465751	50
1	4785	1797.670507033302	50
1	4787	1798.287041160017	51
1	4788	1798.435728467555	51
1	4789	1798.922325072427	50
1	4793	1799.455761595657	49
1	4794	1799.732131195816	48
1	4796	1800.091334877918	48
1	4803	1802.137124580176	48
1	4805	1802.144987185443	48
1	4806	1802.532967472733	48
1	4808	1803.10586536905	48
1	4809	1804.206833958748	48
1	4814	1804.630391557477	48
1	4827	1806.107547564989	49
1	4831	1806.76964296415	50
1	4833	1808.03897878339	51
1	4836	1808.364685922008	52
1	4838	1809.647834891723	52
1	4839	1809.997492298377	51
1	4852	1815.49471905825	50
1	4862	1817.603555967564	50
1	4865	1818.124625959279	51
1	4870	1819.644032054649	52
1	4877	1821.683725024645	52
1	4879	1821.907714268948	52
1	4880	1822.454921563085	52
1	4882	1822.604374187522	52
1	4883	1822.920172857677	52
1	4890	1824.932569132611	52
1	4892	1825.388009113513	53
1	4898	1825.946292318511	54
1	4900	1826.110688267935	55
1	4901	1827.877531624943	55
1	4902	1828.372828015126	54
1	4903	1828.455719252342	53
1	4904	1828.638646828451	52
1	4905	1828.691389391786	51
1	4906	1829.548846424574	50
1	4908	1829.944412803799	50
1	4909	1830.304928103141	50
1	4911	1830.902739394103	50
1	4915	1831.893216268669	50
1	4917	1832.750617347929	50
1	4921	1835.072140229314	50
1	4931	1839.099515461974	49
1	4932	1839.99768171858	48
1	4933	1840.45340111557	47
1	4934	1841.434455105552	46
1	4935	1842.101906067749	45
1	4936	1842.300531022022	44
1	4940	1843.987818158082	43
1	4941	1844.836160721099	42
1	4946	1845.999639627752	42
1	4953	1848.26948708344	42
1	4954	1849.311499276209	41
1	4955	1849.373650289092	40
1	4959	1851.034034539787	40
1	4962	1851.773624786027	41
1	4966	1852.384657860278	41
1	4970	1854.370125717407	40
1	4971	1854.390379693148	39
1	4973	1854.502195527194	39
1	4975	1854.619376693676	40
1	4977	1854.765734155049	41
1	4978	1855.319239054684	41
1	4982	1857.000860974471	40
1	4983	1859.78659564817	39
1	4993	1860.589070969222	39
1	4996	1861.485131482468	40
1	4998	1861.50337269731	41
1	4999	1863.562928384525	41
1	5001	1865.996245510269	41
1	5003	1866.063002967346	42
1	5007	1866.662916604058	43
1	5010	1867.458192841263	44
1	5012	1867.578487058035	45
1	5014	1867.963637387873	46
1	5015	1868.607958725276	46
1	5017	1869.918890622	46
[...]
10	2705	1012.804577027227	27.261797299823
10	2717	1017.985852925927	32.250089121812
10	2720	1020.560885926372	34.310734364296
10	2724	1022.488271898424	33.872200010429
10	2727	1025.862187397693	37.145469464794
10	2750	1031.7731246364	35.940437607533
10	2760	1034.630486556653	34.65665791082
10	2761	1034.727660416641	34.628573859176
10	2765	1037.103731027449	35.222812396988
10	2773	1038.53009266549	36.451566460189
10	2783	1044.578287572344	39.899925767952
10	2784	1046.023828531741	37.828363498776
10	2785	1046.547242476574	37.564781127137
10	2786	1047.51421610997	37.77458709012
10	2791	1048.140980290856	35.368994850053
10	2792	1048.172754959696	33.529536893017
10	2793	1049.295550095695	34.304208123034
10	2794	1049.414484087555	32.494366272974
10	2797	1050.846321172277	33.844196923487
10	2806	1052.606159759415	33.116897003397
10	2807	1053.731400165357	32.735063884614
10	2808	1054.671723221042	30.773925938679
10	2814	1055.964605820397	27.935689483324
10	2822	1059.561015628381	31.165659161389
10	2834	1063.828664286499	33.624066834832
10	2845	1071.443259861823	40.24142850805
10	2858	1074.41102286264	37.963086968508
10	2859	1074.484389484162	37.118650459002
10	2860	1076.763466738456	39.032746903809
10	2861	1076.79864398043	38.567215142814
10	2869	1078.23257967367	37.821041835105
10	2870	1078.294155080595	36.811565372536
10	2871	1078.608723272334	36.521623010978
10	2879	1080.540091813767	32.404238292529
10	2882	1081.905047094615	31.852123730709
10	2887	1084.282371605529	33.213911810259
10	2899	1088.618241589823	33.744432085175
10	2900	1090.129803050777	35.033265347503
10	2917	1098.271068342317	37.890295717375
10	2943	1110.093199813106	49.485708209483
10	2944	1110.367525625119	48.768783127216
10	2947	1111.334192392368	46.164739371604
10	2948	1111.550886961995	44.305473993338
10	2952	1115.131337772374	44.742572996797
10	2958	1116.444065443694	42.821635078682
10	2963	1119.690044782893	45.812928653141
10	3006	1133.225213941209	54.441786819548
10	3009	1134.037913445021	55.242345429232
10	3036	1139.997455699426	59.418950272599
10	3039	1143.109448979789	60.672612695015
10	3042	1144.299170427887	61.433640122184
10	3043	1144.350091695055	59.410870687004
10	3046	1145.089025849036	58.684793134759
10	3047	1145.376585592055	58.545946033429
10	3048	1147.189916259802	60.00827255404
10	3054	1149.322633694283	58.95535599265
10	3061	1150.444702536671	58.333255813392
10	3076	1152.593595305008	57.111186557127
10	3079	1154.756724693805	58.599964894798
10	3084	1156.081996261937	59.578616651728
10	3090	1157.821131226242	57.093205460125
10	3093	1158.153266843287	55.038239608682
10	3100	1160.791026262563	55.167669415405
10	3111	1162.81542101839	54.904217298634
10	3114	1163.965022049061	55.232766571338
10	3115	1164.214230923161	53.428497253784
10	3131	1166.694225981934	50.776563684093
10	3132	1166.96198751474	49.268109643961
10	3133	1167.250826295355	48.528660391993
10	3147	1171.649522583681	50.237596564835
10	3157	1173.482501206943	48.906414739949
10	3160	1176.529593213435	51.635663207887
10	3164	1177.103301227809	51.544007307067
10	3165	1177.150822872101	50.389585882287
10	3166	1177.932370454595	47.62245051734
10	3170	1180.374938970608	46.308467924848
10	3171	1180.612494818092	46.113223188126
10	3175	1182.646402321233	46.468220059414
10	3183	1185.614397171817	47.300457522186
10	3184	1186.967860612274	47.647758057312
10	3192	1189.217995089919	46.596772139816
10	3193	1189.566258750088	45.403442868372
10	3198	1190.879949066022	46.371407096118
10	3201	1191.380280542793	43.859981419938
10	3202	1192.567821969361	44.986971754252
10	3206	1194.103665455643	44.237288727002
10	3207	1195.576712103481	45.700555428108
10	3217	1197.975113295928	47.056261180081
10	3230	1203.016781715732	51.076492321032
10	3231	1203.387312133995	49.930512725064
10	3234	1205.518643989638	50.688876047534
10	3239	1207.231648320757	51.891974456842
10	3242	1208.929423793914	52.746703953588
10	3262	1211.848467637285	53.098756587075
10	3263	1212.313522906932	51.150273238402
10	3264	1213.299018925159	52.066558069147
10	3267	1215.747607118336	53.952415879558
10	3271	1217.432490850984	54.34012334071
10	3277	1220.193941493427	55.182756005391
10	3282	1221.317385369338	56.203868910411
10	3292	1223.222737663661	57.284376164246
10	3293	1226.305061676367	58.722957119539
10	3301	1227.737872697434	57.950542372603
10	3339	1239.513764440477	67.405668108035
10	3344	1241.75907519472	68.967860249977
10	3355	1245.545819208777	68.973794497587
10	3356	1245.872565523293	66.881236394581
10	3359	1248.754582888421	66.671494657825
10	3365	1252.14262367173	68.752664369691
10	3368	1256.896481524221	71.326578395995
10	3374	1261.243780276368	72.978674983301
10	3377	1261.875148162621	73.311125205909
10	3381	1264.852617015862	75.026435504614
10	3387	1266.682902048506	74.112610190611
10	3396	1269.352121889113	71.830165552575
10	3397	1269.527170831934	71.574312240543
10	3398	1270.268469740677	71.254129372041
10	3399	1271.069263854948	71.562138577687
10	3400	1271.866132345354	70.496883305111
10	3401	1271.875797328474	70.225268384233
10	3406	1274.281770971755	71.30925538895
10	3411	1275.71571430844	70.306818788425
10	3412	1279.191413096897	73.481879029248
10	3413	1279.730707142369	73.416288368851
10	3424	1282.686303881219	73.676253984122
10	3425	1284.147818896867	75.133369067058
10	3428	1284.995190060483	75.326798309831
10	3431	1287.622209899932	77.590186654705
10	3438	1289.451636786203	77.834869247154
10	3439	1290.273189841307	76.026218797265
10	3440	1291.219866929534	75.255783843992
10	3446	1292.0920157143	73.046077409655
10	3447	1292.374426131614	71.653271410828
10	3456	1295.52247745724	74.774436499824
10	3460	1296.520563141366	74.774847992971
10	3461	1297.314357555049	75.441408245674
10	3464	1300.336991593716	77.255390928548
10	3470	1302.085934430562	75.391665316459
10	3471	1302.982881775185	76.120514510475
10	3472	1303.169884445512	75.356292571624
10	3482	1306.988250529558	77.776061075962
10	3483	1307.523348219386	77.629166470963
10	3484	1308.082964089388	77.696532691773
10	3520	1315.121422561935	78.23026362005
10	3521	1315.202337868085	78.037893423178
10	3524	1316.068306764069	78.057588180318
10	3525	1316.417518295925	76.449383458117
10	3529	1316.76389558645	74.405715270013
10	3532	1317.342756951894	73.605364958224
10	3539	1319.611245508064	74.107244481239
10	3549	1321.946600962257	73.076990516231
10	3550	1322.255062594937	73.213995009337
10	3558	1324.559748891933	67.418906843724
10	3559	1325.850591752039	65.231297980392
10	3560	1326.550182808041	64.86764470296
10	3584	1334.51913627948	66.857493404232
10	3588	1336.310956952619	63.936684877638
10	3589	1338.602231650766	64.440896919962
10	3596	1340.886417540171	65.46983800044
10	3603	1343.024656447841	61.833842435562
10	3606	1343.950379336764	59.580912866536
10	3607	1345.956727060518	60.608590007312
10	3610	1347.079556705975	58.80385063253
10	3611	1347.285315415345	58.454395088681
10	3612	1349.377365393041	58.075798184358
10	3619	1350.758104214861	59.139623481992
10	3623	1351.270459331726	57.529454334039
10	3624	1351.661946827656	57.798106705106
10	3638	1354.971852850634	59.165758335842
10	3639	1355.207536286161	57.72629534173
10	3640	1356.426861623216	55.831196830718
10	3646	1360.951569892621	57.347274709441
10	3650	1361.075225704399	52.897126448136
10	3658	1366.247250413574	56.897820278131
10	3659	1367.326396516562	55.414666090372
10	3670	1372.577685971554	59.652660654376
10	3684	1378.926234381902	64.793136760181
10	3691	1381.845111006894	64.911182226278
10	3692	1382.042113675603	64.163972752607
10	3693	1382.608709142017	63.950194763083
10	3701	1385.344377487463	65.30519444403
10	3705	1389.946233192412	69.109162129715
10	3708	1391.093402501228	69.883820206737
10	3718	1393.053094583961	69.909146155832
10	3719	1393.19562178135	68.84642482638
10	3726	1394.377509919646	66.796418770869
10	3727	1394.438328814411	65.568516392695
10	3728	1394.622004658643	64.735679465437
10	3729	1394.832964045621	64.716764269248
10	3730	1396.346967758798	65.076154834219
10	3750	1400.577065245203	58.163177548471
10	3762	1405.804475784356	56.317008068613
10	3769	1408.979668873859	58.129286769425
10	3772	1409.299177025624	57.113580290687
10	3773	1410.027608421273	56.828706865642
10	3774	1413.443711857276	59.614515099848
10	3777	1414.981593316534	57.456798245832
10	3778	1415.746586565492	57.712177278581
10	3784	1417.500009205527	55.620797977453
10	3788	1417.811071365143	55.275091377442
10	3797	1419.610871670125	51.23844386322
10	3798	1419.983306287911	51.197440158159
10	3799	1420.015623901432	51.140034024145
10	3803	1422.739351921003	45.996493736689
10	3811	1428.837434942327	50.975633331272
10	3822	1432.100512047466	48.571926579303
10	3823	1432.272986671073	47.641244271706
10	3833	1437.308624382891	47.955684434464
10	3834	1437.857982197972	47.246735321488
10	3840	1440.359749632029	48.661198271784
10	3841	1440.372412763692	48.002724509105
10	3851	1443.947813654241	47.44647465928
10	3860	1446.180736062565	49.183301698779
10	3868	1447.429055010534	48.971068453416
10	3872	1448.910268560338	48.606224366083
10	3873	1449.127257738876	47.762596556939
10	3887	1451.040118685927	44.630175498044
10	3890	1452.156162086892	45.217666800054
10	3900	1455.693087279968	41.130714508207
10	3903	1456.32438605472	39.791062549717
10	3907	1457.32928461787	39.649983182685
10	3908	1458.105900901244	40.208500984952
10	3916	1460.499231038129	39.00647087365
10	3929	1464.717479392088	35.948945778902
10	3930	1464.823344742205	35.569595912832
10	3931	1465.035892771486	34.586304278772
10	3932	1465.384708506761	34.532897877373
10	3935	1465.894047741064	35.016247343855
10	3936	1465.968786222716	32.86565096172
10	3940	1467.144673364221	31.851903676478
10	3948	1467.802364016429	28.666901395865
10	3949	1468.21009129657	28.772739927745
10	3950	1469.837688386127	28.274244879384
10	3960	1474.596834915218	29.90746191597
10	3961	1474.696777601536	28.491833949516
10	3962	1475.383578428911	28.714655962523
10	3963	1475.458197283621	28.339871151538
10	3964	1475.639019585543	27.867471871967
10	3969	1477.571409436765	28.280287002756
10	3970	1478.280541440226	28.802070862799
10	3976	1480.811665175839	29.837968190439
10	3983	1487.099516189126	33.848468679987
10	3991	1491.098928344806	36.556352475385
10	4004	1496.276943147544	37.104665627574
10	4007	1496.876556180929	37.410773621451
10	4012	1500.610551656374	41.138290048032
10	4013	1501.264774106188	40.725614810508
10	4018	1502.216072342915	39.966755867639
10	4019	1502.262366471493	39.557981562077
10	4020	1502.727888908093	39.200112705403
10	4021	1502.997686888406	38.401588137428
10	4022	1503.134416574167	37.544416161513
10	4023	1503.280788953042	36.580144139661
10	4026	1504.755527568071	37.487508307469
10	4029	1507.71078663493	40.155542609742
10	4038	1510.165653396948	42.566564445154
10	4045	1514.209682700728	38.161849567883
10	4046	1514.906349869414	37.92894136904
10	4069	1522.440301114951	37.598877561914
10	4070	1523.995135836701	35.831551972561
10	4073	1524.765415295966	36.586971288815
10	4074	1525.90665260456	36.113264898582
10	4084	1529.939578406842	35.796993278602
10	4087	1531.430853824474	37.039989677546
10	4088	1532.625531596115	38.2052654494
10	4091	1534.56170152227	39.662673514657
10	4100	1536.407921315874	36.072714293801
10	4107	1539.83745969831	38.315010034453
10	4110	1545.617041754686	43.545716500654
10	4114	1547.968956612567	40.890168854539
10	4141	1556.414371813081	44.846035511565
10	4151	1559.553050695555	44.4305944498
10	4154	1561.768669864426	46.204921218274
10	4162	1562.839588586846	45.342311949877
10	4166	1563.189325722006	43.375807059615
10	4175	1564.344700647426	42.049625149567
10	4178	1567.726123368939	43.490429857902
10	4183	1573.179573616075	46.034546310314
10	4223	1589.789927671559	54.835530062112
10	4224	1590.076615629213	52.96403429442
10	4227	1592.743240884635	55.303661916038
10	4236	1596.948351425935	49.94841701281
10	4248	1601.490376395933	51.486835494408
10	4249	1602.141714473897	51.799754323855
10	4253	1603.839308882188	52.531792297487
10	4257	1606.61040282327	52.166242443497
10	4258	1607.370295722592	51.484402916727
10	4264	1607.817715091315	49.617561485817
10	4265	1608.241642086623	49.918104093638
10	4268	1609.453494869037	50.59997204199
10	4269	1609.785661897051	50.174140556907
10	4281	1612.01631571237	49.767118981372
10	4282	1613.184082472051	50.906229555023
10	4283	1613.767598779026	50.872559096472
10	4284	1614.106898450159	50.545874828941
10	4287	1617.077820335611	52.813809022433
10	4299	1621.363715345478	52.572238704402
10	4300	1621.67870408468	48.543239926241
10	4301	1621.845145809952	47.597312978034
10	4302	1622.265759206384	44.280997128215
10	4318	1626.646626798502	46.370956699058
10	4323	1629.19989783376	46.857611411109
10	4334	1631.236246236845	46.72050705831
10	4341	1632.045342575682	41.780419730384
10	4342	1636.808844960328	43.723525120402
10	4343	1637.026158083082	42.779693029314
10	4349	1640.62991319443	43.006248551365
10	4352	1644.17521992132	45.59592073251
10	4363	1647.741686344188	46.428593582879
10	4364	1647.919390813407	45.014474764976
10	4373	1650.637212591552	42.86027889743
10	4374	1652.715049647658	44.349003976491
10	4377	1653.021161546909	42.962122529215
10	4378	1653.67923898826	43.101725649628
10	4386	1655.868109425876	44.274254374655
10	4391	1657.14066087608	45.172709095024
10	4392	1657.405162638303	40.595051434572
10	4401	1662.608681660294	42.623020676466
10	4404	1663.737724992927	43.410638021592
10	4405	1665.155628885313	44.573871160591
10	4415	1669.471013211817	46.11991611974
10	4418	1671.888215953947	47.500065345795
10	4424	1673.95727142715	47.426199775106
10	4425	1674.942300516431	46.41400319044
10	4426	1675.294929378125	46.324591740655
10	4431	1675.982229370209	46.743888235776
10	4434	1677.51577404016	47.279893660593
10	4435	1680.433686427052	50.070750583557
10	4436	1680.517339618782	49.053910515099
10	4473	1687.133022695612	41.973147254189
10	4479	1687.990823445973	40.011496092451
10	4480	1688.457936324968	40.202335560801
10	4481	1688.86352228518	39.243892750068
10	4482	1689.319424865563	36.329800129737
10	4505	1694.839389369323	36.046976977914
10	4508	1696.190660914879	34.077025744143
10	4509	1696.446442030356	33.49661093402
10	4512	1698.077542134922	32.676265622227
10	4546	1706.128592687544	34.578346282749
10	4553	1708.233867392954	35.350354255788
10	4556	1708.507144844978	34.648271474332
10	4557	1709.663214001567	33.995260583114
10	4558	1710.013432160093	34.060844930744
10	4571	1713.941319455638	32.918183362301
10	4581	1716.533278706023	34.84553845368
10	4597	1721.706745132373	38.889024320731
10	4603	1726.972665671933	41.773840492629
10	4606	1727.532857296173	42.232625191707
10	4612	1728.699778468492	41.684441516963
10	4620	1731.993400894803	44.74761797337
10	4624	1733.62832103537	43.870417665603
10	4630	1735.728195186984	45.223508165169
10	4662	1748.20047428449	53.733130270081
10	4671	1750.737186561642	55.057424076312
10	4674	1751.738398002994	54.958453002645
10	4678	1752.348185319664	53.384956970307
10	4679	1752.386390141918	53.21674135932
10	4682	1756.315727186281	56.505635546246
10	4691	1761.078142032672	59.922272822002
10	4694	1761.776543272155	59.886511016631
10	4695	1761.822660449396	59.350893320246
10	4710	1766.948153557546	63.120539289464
10	4714	1768.471638088562	62.150248402276
10	4720	1772.169556334732	65.367265720523
10	4735	1777.805477222175	65.734298501764
10	4736	1778.771616637992	65.225545054555
10	4747	1783.422507521742	68.572476090279
10	4748	1786.55591091854	71.169101456734
10	4751	1787.330554813274	70.165161835167
10	4755	1788.112799677717	69.274707447797
10	4775	1792.650202093578	71.229914649478
10	4779	1795.000606779038	69.753104357716
10	4780	1795.235609465751	67.940311182511
10	4788	1798.435728467555	70.440434490628
10	4789	1798.922325072427	69.123081030277
10	4793	1799.455761595657	68.001715120615
10	4794	1799.732131195816	66.216519099037
10	4803	1802.137124580176	65.560671577714
10	4806	1802.532967472733	62.948661989854
10	4809	1804.206833958748	63.51416249205
10	4838	1809.647834891723	63.804600870649
10	4839	1809.997492298377	63.215944378961
10	4852	1815.49471905825	64.580398076283
10	4877	1821.683725024645	58.250119119219
10	4880	1822.454921563085	58.682818456137
10	4883	1822.920172857677	57.338433200501
10	4901	1827.877531624943	60.215157315543
10	4902	1828.372828015126	59.231831841146
10	4903	1828.455719252342	59.30835615016
10	4904	1828.638646828451	55.788226874563
10	4905	1828.691389391786	52.949597264946
10	4906	1829.548846424574	53.033787599066
10	4909	1830.304928103141	53.168265107417
10	4915	1831.893216268669	52.303697441163
10	4921	1835.072140229314	51.968362420942
10	4931	1839.099515461974	50.630137903062
10	4932	1839.99768171858	49.573825362185
10	4933	1840.45340111557	49.707945857155
10	4934	1841.434455105552	49.243701665427
10	4935	1842.101906067749	48.889969067501
10	4936	1842.300531022022	45.959095700487
10	4940	1843.987818158082	45.700776998065
10	4941	1844.836160721099	45.607565806185
10	4953	1848.26948708344	47.195032276591
10	4954	1849.311499276209	47.166512090766
10	4955	1849.373650289092	46.267784920042
10	4966	1852.384657860278	47.309634651888
10	4970	1854.370125717407	48.262578152418
10	4971	1854.390379693148	47.620736728998
10	4978	1855.319239054684	47.280260271294
10	4982	1857.000860974471	44.74132870376
10	4983	1859.78659564817	47.028395046019
10	4999	1863.562928384525	48.694613720419
10	5015	1868.607958725276	51.035264960223
10	5018	1870.547243816	52.943687848436
10	5019	1871.648985748639	53.52435978936
10	5020	1872.02783620398	53.147256164271
10	5029	1875.808158598328	54.310850981832
10	5030	1876.115171162069	54.207456893121
10	5033	1876.385925372412	53.78155118489
10	5034	1876.579092168224	53.586250663421
10	5040	1878.118908357505	53.186339224894
10	5041	1878.161049390733	52.77304027722
10	5051	1882.958063822247	56.847375554312
10	5059	1887.018895865875	56.116156471772
10	5060	1887.108797744192	56.196296886031
10	5061	1887.441357105804	54.690739757875
10	5078	1894.89320397344	58.951545307596
10	5079	1895.500456133247	58.702705725519
10	5096	1901.447456900796	55.447817273044
10	5099	1902.849334222107	56.582566573519
10	5102	1903.048318758238	53.382334249821
10	5108	1906.509603483781	54.735978697754
10	5118	1910.094235378244	57.392507060155
10	5146	1922.098751616853	62.283071244347
10	5154	1924.81938365173	63.334252169262
10	5159	1926.522283574298	65.018910876988
10	5160	1927.376795509027	61.380549998758
10	5161	1931.106663728173	65.043660760827
10	5162	1931.370400348041	65.295771132593
10	5165	1932.502390437184	65.839473833126
10	5168	1932.705060422892	65.246867581629
10	5174	1933.16342435328	65.199786965407
10	5175	1933.919850651828	64.000960029828
10	5176	1933.944446346459	61.649180953896
10	5196	1941.697169246189	65.424629551227
10	5197	1942.3407928781	65.198731139623
10	5200	1943.746798874759	66.258860201647
10	5203	1945.769053541633	66.498566284836
10	5204	1945.772495886913	64.188587026348
10	5223	1953.269750363284	66.593631458752
10	5224	1953.272166670925	65.380332814568
10	5228	1954.418099134995	64.598871127039
10	5229	1956.161936599697	64.828181207237
10	5234	1957.162549315049	65.411786910372
10	5235	1957.8947051249	66.043353997461
10	5250	1961.566067088177	64.708847644305
10	5251	1962.705967890736	63.454268328392
10	5258	1968.766560531468	67.122716269273
10	5259	1968.934621082513	65.91385241513
10	5260	1970.731444421714	66.698256009474
10	5264	1971.899950299368	64.641023216173
10	5271	1975.644590464163	67.525945037486
10	5272	1975.958217174241	67.236173205737
10	5273	1976.991231690908	66.314482294353
10	5274	1979.386562008478	66.92478856517
10	5275	1980.955131670472	66.454746612586
10	5278	1981.870953137202	67.273217608235
10	5290	1983.583879801718	66.065721837654
10	5291	1983.622087090713	64.185270317012
10	5292	1984.148078756127	61.442359501333
10	5319	1990.980565813804	59.310000825279
10	5323	1992.589033572291	59.546015647857
10	5324	1993.476817734986	60.31698509706
10	5325	1994.040376932794	59.703672191503
10	5329	1995.99563170617	59.961744720655
10	5332	1996.329563061151	59.335047289262
11	5354	2000	0.487
12	5354	2000	0.3885

