version 2
run Monotonicity_test_recover_rate-322-20221219-18:28:18-16092
attr configname Monotonicity_test_recover_rate
attr datetime 20221219-18:28:18
attr experiment Monotonicity_test_recover_rate
attr inifile omnetpp.ini
attr iterationvars $0=75
attr iterationvarsf 75-
attr measurement $0=75
attr network Network
attr processid 16092
attr repetition 22
attr replication #22
attr resultdir results
attr runnumber 322
attr seedset 22
param *.minion.arrival_mean 2
param *.minion.service_mean 1.5
param *.boss.arrival_mean 2.5
param *.boss.service_mean 0.5
param *.player.recover_rate_x 75
param **.minion.arrival_distribution 0
param **.minion.service_distribution 0
param **.boss.arrival_distribution 0
param **.boss.service_distribution 0

vector 0 Network.player minion_jobs_number_stat:vector ETV
attr source signal_minion_jobs_number
vector 1 Network.player minion_jobs_queue_number_stat:vector ETV
attr source signal_minion_jobs_queue_number
vector 2 Network.player minion_recovered_stat:vector ETV
attr source signal_minion_recovered
vector 3 Network.player minion_defeated_stat:vector ETV
attr source signal_minion_defeated
vector 4 Network.player boss_jobs_number_stat:vector ETV
attr source signal_boss_jobs_number
vector 5 Network.player boss_jobs_queue_number_stat:vector ETV
attr source signal_boss_jobs_queue_number
vector 6 Network.player boss_defeated_stat:vector ETV
attr source signal_boss_defeated
vector 7 Network.player boss_waiting_time_stat:vector ETV
attr source signal_boss_waiting_time
vector 8 Network.player boss_response_time_stat:vector ETV
attr source signal_boss_response_time
vector 9 Network.player minion_waiting_time_stat:vector ETV
attr source signal_minion_waiting_time
vector 10 Network.player minion_response_time_stat:vector ETV
attr source signal_minion_response_time
vector 11 Network.player minion_throughput:vector ETV
attr source signal_minion_throughput
vector 12 Network.player boss_throughput:vector ETV
attr source signal_boss_throughput
0	0	0	0
0	5	2.08569898215	1
0	8	3.959597714419	1
0	14	5.374697257644	2
0	23	10.143763354669	1
0	25	11.646762980154	2
0	29	13.76027159076	1
0	38	18.292492495864	1
0	41	20.854370495065	1
0	47	23.262257365754	1
0	49	23.788639697443	2
0	58	26.294245350483	2
0	60	26.573064425455	3
0	71	29.100074009779	1
0	77	32.91446463429	1
0	81	33.418629823324	2
0	96	40.325646494289	2
0	99	40.710764919816	3
0	101	41.082155516623	4
0	107	42.302863672195	4
0	112	44.242646186911	4
0	125	49.525442528374	4
0	127	49.940448969781	5
0	129	49.960319122352	6
0	131	50.667488962035	7
0	133	50.855939321784	8
0	142	53.056690595803	8
0	162	56.853602648428	5
0	165	57.556919672228	6
0	168	58.88650976063	6
0	170	59.317480213072	7
0	174	63.505950428796	6
0	190	71.422054752346	5
0	193	72.156469312651	5
0	195	72.18015730476	6
0	201	73.162090713672	6
0	203	73.482579957274	7
0	211	75.224477454375	7
0	214	76.925511961022	8
0	216	77.166882605564	9
0	218	77.315378563438	10
0	228	80.23638170496	8
0	232	83.264341628625	8
0	236	84.013920652666	9
0	242	86.505713851375	7
0	245	88.582689675289	7
0	247	88.960626025883	8
0	249	89.027116983333	9
0	251	89.880297949398	10
0	254	90.244290555591	10
0	256	90.91529769351	11
0	259	92.040599091875	11
0	261	92.927737375856	12
0	266	93.444777509395	13
0	277	96.966214761716	11
0	294	103.747172816722	9
0	296	105.833885889909	10
0	303	110.540367532439	9
0	307	111.5647996397	8
0	315	115.579605753223	6
0	318	116.620173238122	6
0	320	116.685555977301	7
0	325	118.403648618886	8
0	336	121.617508231521	9
0	343	123.706707804419	10
0	349	128.438940293236	8
0	361	136.595830164836	5
0	366	139.030171414057	3
0	368	139.793495660969	4
0	370	140.315478433313	5
0	375	142.638398760765	3
0	382	143.698536607554	2
0	384	144.512809621664	3
0	395	152.205651133082	1
0	397	152.297581806419	2
0	400	153.095691082561	2
0	404	153.464026203186	3
0	408	155.274377023481	3
0	424	160.826588331393	2
0	429	162.361667587048	2
0	432	163.491056185757	3
0	435	164.727491691305	3
0	437	166.301678788981	4
0	439	166.81352800307	5
0	441	168.675557873068	6
0	447	173.740887326148	6
0	455	175.708950210707	6
0	458	177.596391449488	7
0	460	177.679692146607	8
0	462	178.176850577064	9
0	468	180.370678668892	8
0	470	180.450832798634	9
0	473	183.029834489826	10
0	475	184.617492158657	11
0	480	185.384022803386	9
0	483	185.573054581167	9
0	485	186.196607691232	10
0	494	189.604855316075	10
0	506	194.160073580788	7
0	511	196.461377395853	8
0	513	196.706090504941	9
0	518	202.198466810727	7
0	525	204.262743045535	6
0	527	204.451168941375	7
0	531	206.23087860092	6
0	533	206.257773853489	7
0	535	206.645011299724	8
0	537	207.131990689703	9
0	539	207.710364641168	10
0	542	208.678431547311	10
0	545	209.083850719469	10
0	547	211.759115713989	11
0	549	211.808577433229	12
0	551	212.397465249544	13
0	553	212.54829827359	14
0	556	213.138110501594	14
0	563	217.641330116992	12
0	568	218.187390568232	13
0	587	228.09511091345	10
0	590	228.320375819171	10
0	602	231.498856789233	8
0	605	231.901316613146	9
0	607	231.917539640971	10
0	617	236.386128179202	7
0	619	236.430581259176	8
0	621	236.553773428988	9
0	626	236.993919844502	10
0	628	237.356876119474	11
0	634	238.428673320207	12
0	636	238.504102992535	13
0	644	242.361145653519	12
0	647	244.774789018556	13
0	649	244.948887736203	14
0	666	256.346278759941	12
0	668	257.762053355762	13
0	670	257.997430626051	14
0	672	258.05057023661	15
0	680	260.629320007127	14
0	686	262.454616962171	13
0	690	263.277824951532	14
0	702	269.370159882371	12
0	704	269.759339251117	13
0	710	271.267436378175	12
0	727	276.957510067842	11
0	734	278.691127668173	10
0	741	286.14507832139	9
0	747	290.407832099139	9
0	756	293.302179881014	9
0	764	298.383243031272	10
0	768	299.413395715575	9
0	770	300.844350897473	10
0	772	301.926961012325	11
0	774	302.034298866105	12
0	782	304.105446941464	13
0	784	304.992891624185	14
0	786	305.065564032547	15
0	792	308.365901618291	15
0	794	308.655216770961	16
0	800	312.117119568864	16
0	803	314.131601519887	16
0	815	319.164849249583	10
0	829	324.499177851376	8
0	831	324.728550298193	9
0	848	330.736988889143	6
0	852	333.814851919902	6
0	854	335.472051441942	7
0	861	339.234591838972	6
0	863	339.711185213519	7
0	865	340.210795954288	8
0	870	341.767866480269	8
0	874	344.211613458717	9
0	877	344.592320690958	10
0	881	345.427557505066	10
0	883	345.746719513784	11
0	885	346.018747118366	12
0	890	348.611618098511	10
0	899	352.678775735249	10
0	901	353.149633875233	11
0	905	355.158679686622	10
0	907	355.20335510703	11
0	912	357.855411875581	12
0	922	359.822242071889	8
0	924	360.111883728041	9
0	933	366.141001278896	7
0	936	366.402181989435	8
0	947	370.883273530289	7
0	952	372.445917336633	7
0	955	373.367652034794	8
0	957	374.81057934825	9
0	967	380.091917941274	10
0	970	381.06455743086	11
0	972	382.511278360668	12
0	981	384.606870365552	13
0	1002	390.361354322447	13
0	1009	392.373250440405	14
0	1014	394.0587320683	15
0	1016	394.721555189734	16
0	1018	394.74833150012	17
0	1031	397.893979979398	18
0	1036	398.719795999111	19
0	1039	399.183813012004	20
0	1041	399.436403381214	21
0	1047	404.867815142481	20
0	1050	405.700753480036	21
0	1061	408.56894332465	22
0	1064	409.474116545435	22
0	1073	411.135279966907	21
0	1078	413.262169601733	20
0	1080	413.355875579898	21
0	1096	418.853696064148	22
0	1098	418.862394450223	23
0	1101	419.307368947953	24
0	1111	426.284725532329	23
0	1113	428.239999875887	24
0	1115	429.267065299344	25
0	1117	429.609050248906	26
0	1121	430.227200361371	25
0	1123	430.39953927503	26
0	1127	432.804740529661	25
0	1133	435.167188542777	25
0	1139	436.65073286213	25
0	1141	437.290347872015	26
0	1143	438.054238271679	27
0	1145	439.092366349117	28
0	1161	444.837626951469	28
0	1183	456.576016542605	26
0	1195	459.7139946307	23
0	1198	461.116801773007	23
0	1210	465.514824051635	20
0	1226	471.076996848131	19
0	1236	474.871063194005	15
0	1238	475.753689939576	16
0	1241	476.365886471336	16
0	1243	477.073520086702	17
0	1250	479.721704866738	18
0	1253	479.967272615169	19
0	1256	480.441447546881	19
0	1262	481.644406744261	19
0	1265	483.603558754976	19
0	1277	491.230786173892	20
0	1281	492.732632144583	21
0	1283	493.991127679434	22
0	1285	494.30510953008	23
0	1287	494.371070058431	24
0	1292	496.231722192474	25
0	1298	498.364834446918	25
0	1306	500.423176408287	26
0	1308	500.481114807558	27
0	1310	501.826630645722	28
0	1312	502.544863241345	29
0	1314	502.922356629493	30
0	1322	510.564604369624	28
0	1324	511.870295166973	29
0	1328	512.031310781549	30
0	1331	512.705527576332	31
0	1334	513.549063966476	31
0	1336	514.070625354452	32
0	1338	514.075053667216	33
0	1341	516.585275883014	33
0	1346	518.910839198461	34
0	1348	518.975651120018	35
0	1350	519.044881191791	36
0	1355	520.716911054317	36
0	1358	521.364478715033	37
0	1360	521.773035740839	38
0	1362	521.809405542102	39
0	1367	522.811554947703	39
0	1369	523.002826077036	40
0	1375	524.41989704571	41
0	1385	530.746413771786	39
0	1402	536.73208851475	35
0	1413	541.11198953711	32
0	1419	543.86499548282	33
0	1427	546.004893971805	34
0	1429	547.820072837475	35
0	1443	555.619364775185	33
0	1449	560.613804525179	33
0	1452	561.848819876118	33
0	1454	562.009174935986	34
0	1456	562.165852903574	35
0	1458	562.428289059398	36
0	1469	565.694615571017	36
0	1473	565.91670559313	37
0	1477	567.942014909922	38
0	1490	572.622216232501	37
0	1498	575.058281239262	37
0	1538	591.84844790947	33
0	1556	599.165690004009	33
0	1562	599.834247326344	34
0	1565	601.963767301572	34
0	1569	602.853357141984	33
0	1574	605.131084033033	34
0	1576	605.49738897378	35
0	1580	606.313925490623	36
0	1585	607.650386466386	35
0	1598	610.833740993026	34
0	1600	611.218211659363	35
0	1604	611.956126319468	36
0	1608	614.98418114583	36
0	1610	614.989002705173	37
0	1615	616.36715060787	38
0	1630	623.42459262162	35
0	1632	624.624561967337	36
0	1635	625.254472535847	36
0	1640	626.841138736328	36
0	1652	630.888760707207	37
0	1658	631.939843782961	37
0	1661	633.270183163201	37
0	1663	633.959299663263	38
0	1676	638.980363362234	38
0	1678	639.025186209637	39
0	1685	640.894146929168	40
0	1687	641.887777882737	41
0	1703	647.408927407153	39
0	1705	647.520213232807	40
0	1708	648.510995791809	41
0	1715	651.453011202468	42
0	1731	659.125006317289	42
0	1738	661.945407176081	41
0	1744	665.531295328554	41
0	1752	668.784418805989	42
0	1757	674.50893205539	43
0	1781	685.611821779881	40
0	1791	691.553701599021	39
0	1794	692.490845680624	39
0	1801	694.754823958637	38
0	1803	694.807346591716	39
0	1806	695.718220493808	39
0	1809	696.001548269725	39
0	1812	696.785491448922	39
0	1817	699.587411476238	40
0	1821	699.94984007156	41
0	1828	700.979418637372	41
0	1830	701.2918602181	42
0	1833	701.877845501813	42
0	1835	701.88002758659	43
0	1837	702.009101323294	44
0	1840	702.221539345796	44
0	1848	705.824563074037	45
0	1850	707.270282924727	46
0	1863	709.3557259059	47
0	1876	716.320607760114	46
0	1878	716.708767397433	47
0	1884	717.860955113639	48
0	1888	718.794066411205	49
0	1892	719.82667464061	50
0	1894	720.279943508448	51
0	1903	721.899537494091	50
0	1917	726.860166423796	47
0	1920	728.053878592304	48
0	1924	730.708813690566	49
0	1936	732.564231332537	47
0	1938	732.67936009644	48
0	1942	733.990007497752	49
0	1945	735.148794525017	50
0	1947	735.52029165199	51
0	1961	737.294471990467	46
0	1963	737.786813019386	47
0	1979	745.487095811109	46
0	1991	748.069923133083	46
0	1994	748.798507533742	46
0	1996	748.858605985097	47
0	2002	751.49098235575	47
0	2007	753.458605880263	48
0	2009	753.632265102826	49
0	2014	754.55343920606	50
0	2021	756.594441585914	49
0	2023	758.53910715669	50
0	2027	763.359658365936	49
0	2030	764.321545970572	49
0	2032	765.894518910779	50
0	2043	767.277943295306	50
0	2045	767.598568020764	51
0	2052	769.797691984502	51
0	2068	774.389462000771	50
0	2076	777.299778329473	49
0	2082	778.46666866144	50
0	2086	779.08502594116	51
0	2091	779.738258255072	52
0	2100	782.65823072079	51
0	2102	783.72191130329	52
0	2104	784.764195385679	53
0	2106	785.674688236706	54
0	2108	785.824873340023	55
0	2110	787.702690531688	56
0	2112	788.117499324092	57
0	2116	788.823822876372	56
0	2118	790.074608183769	57
0	2120	790.694277633903	58
0	2124	793.436889348787	57
0	2134	796.176467820878	55
0	2137	797.686744452458	56
0	2140	799.955430210979	56
0	2142	800.434957426303	57
0	2146	801.135075088853	58
0	2149	801.961413703425	59
0	2157	803.823539446875	57
0	2161	805.191744563919	56
0	2166	805.96801973913	57
0	2169	807.982253853646	57
0	2171	808.006548722606	58
0	2179	808.597321236927	59
0	2184	811.971053050119	60
0	2187	812.640013372075	60
0	2196	816.268959310114	60
0	2200	818.644115019904	59
0	2202	819.228297588925	60
0	2206	821.986893189908	61
0	2230	828.243740666467	62
0	2232	828.337739539112	63
0	2242	829.941926574855	61
0	2246	831.301446109228	61
0	2249	831.505795210114	61
0	2251	831.991860603751	62
0	2257	832.806151160522	63
0	2264	833.931174120819	64
0	2266	834.921338204925	65
0	2268	835.16477793259	66
0	2270	837.075792993497	67
0	2272	838.169121795608	68
0	2274	838.328974377605	69
0	2278	840.451437060828	68
0	2280	841.200347351387	69
0	2282	841.769041843741	70
0	2284	842.670817696021	71
0	2292	845.212013824752	72
0	2297	847.418901742463	73
0	2300	848.257033674688	73
0	2302	849.15604118038	74
0	2307	850.482784895793	75
0	2309	850.646151964083	76
0	2311	851.688259952914	77
0	2314	852.187932678608	77
0	2318	853.457085661035	78
0	2322	853.845285011508	78
0	2334	859.83401632642	72
0	2338	862.288094397654	71
0	2343	863.961141295618	69
0	2349	866.450582801119	69
0	2351	866.628546037219	70
0	2353	866.786448828264	71
0	2360	870.231447752512	69
0	2370	873.100911404179	69
0	2372	873.277214087043	70
0	2374	877.449298772937	71
0	2385	882.709554721529	68
0	2387	882.978929254046	69
0	2391	883.058130815672	69
0	2405	885.533306483243	68
0	2407	885.891811384014	69
0	2412	886.508389831872	70
0	2423	890.8487498297	70
0	2431	893.239101985848	68
0	2433	893.600599138455	69
0	2438	895.203802987178	67
0	2447	898.338535510004	66
0	2449	898.495195814135	67
0	2452	899.750714923182	68
0	2454	900.519499701742	69
0	2460	902.011631290721	66
0	2467	902.881106499046	65
0	2470	904.427626777521	65
0	2476	910.075146448229	65
0	2480	910.989056106115	64
0	2484	911.586755659967	63
0	2486	911.808248289232	64
0	2488	914.006248585171	65
0	2493	914.404914528008	65
0	2495	914.894239647055	66
0	2504	917.567858295602	64
0	2507	918.160139844619	64
0	2516	920.541099533179	64
0	2518	921.218234918277	65
0	2523	923.802938279441	66
0	2525	924.414142738587	67
0	2540	928.418948387167	67
0	2548	931.151954751748	68
0	2555	934.069242709206	67
0	2561	936.6924830379	67
0	2575	941.561666914156	65
0	2581	942.676317033787	65
0	2583	943.018846374684	66
0	2588	944.520275318131	67
0	2595	952.688718331044	63
0	2597	952.939592087802	64
0	2606	954.61995890675	64
0	2613	958.441883273146	64
0	2622	963.004457774067	63
0	2627	966.119224225806	63
0	2629	966.22862478227	64
0	2633	967.051248573768	64
0	2640	970.420549940524	65
0	2647	974.970907182791	62
0	2652	976.794924595517	62
0	2657	978.805149528674	61
0	2661	979.677302155666	60
0	2665	980.572526822116	59
0	2667	981.131959332246	60
0	2682	986.415127333862	60
0	2684	986.465049597812	61
0	2687	986.851892157763	61
0	2696	991.956471794723	58
0	2701	992.603964141949	59
0	2703	993.161301943467	60
0	2710	996.135866421864	59
0	2722	1001.94556491165	59
0	2724	1002.424092473812	60
0	2730	1006.504692764602	57
0	2733	1007.171764066066	57
0	2737	1009.468162483341	56
0	2745	1014.220737149567	54
0	2753	1019.181529062283	55
0	2755	1020.053299067683	56
0	2757	1020.35778740309	57
0	2777	1026.705151980258	56
0	2779	1026.850712541702	57
0	2783	1029.167230479743	58
0	2785	1029.23105822923	59
0	2793	1031.032129489982	59
0	2795	1031.673142448882	60
0	2801	1036.900157853952	61
0	2803	1036.960034713357	62
0	2814	1040.925300446403	61
0	2826	1044.734455606275	60
0	2828	1045.641013896601	61
0	2831	1047.22343154395	61
0	2833	1047.877130875335	62
0	2835	1048.044545210028	63
0	2837	1048.72412339904	64
0	2840	1049.552000101624	64
0	2842	1049.565778294632	65
0	2850	1053.193126402357	60
0	2855	1056.086467197489	58
0	2880	1062.313263087967	54
0	2892	1065.816180860902	53
0	2902	1069.547228720708	54
0	2909	1070.943352640124	55
0	2915	1076.002250675912	55
0	2917	1076.416661865795	56
0	2925	1078.917044875502	54
0	2928	1080.719501436779	54
0	2931	1081.152852375052	54
0	2936	1082.189273144724	55
0	2945	1083.564329907429	56
0	2949	1083.793590330244	57
0	2951	1083.987799495437	58
0	2953	1084.759140094631	59
0	2958	1087.056343727867	57
0	2962	1087.858916958873	56
0	2964	1087.942352827835	57
0	2978	1093.610018253502	55
0	2981	1094.64174635387	55
0	2987	1095.49875374119	55
0	2990	1095.679073471638	55
0	2997	1099.534404288323	54
0	3005	1103.045983005679	52
0	3007	1103.164847976474	53
0	3009	1104.569690021962	54
0	3013	1105.209614737846	55
0	3020	1109.349386387453	52
0	3022	1110.660624080272	53
0	3036	1112.745226134134	54
0	3040	1113.724616893428	55
0	3042	1113.799741066836	56
0	3048	1115.76337114838	57
0	3050	1115.988055345854	58
0	3056	1118.66539516466	58
0	3058	1119.829431497908	59
0	3063	1123.838101993582	60
0	3068	1125.03800057416	61
0	3088	1128.406396882435	61
0	3091	1129.925296096163	62
0	3095	1131.276050214194	63
0	3110	1139.885142022068	63
0	3113	1140.367765267047	64
0	3128	1144.135508190522	63
0	3147	1151.360686121973	63
0	3154	1154.865981693627	62
0	3158	1157.919230686625	61
0	3170	1160.817979789119	61
0	3176	1161.717171927774	61
0	3179	1161.883892565592	61
0	3181	1163.088266351829	62
0	3183	1163.242600248237	63
0	3185	1163.790034812336	64
0	3211	1175.794062011439	56
0	3213	1176.159291372144	57
0	3229	1180.403367977728	58
0	3237	1181.287237823345	57
0	3243	1182.782311890415	58
0	3247	1183.290332035707	59
0	3249	1183.334980759729	60
0	3259	1188.257164766343	59
0	3265	1193.077012933627	56
0	3272	1195.233834085457	55
0	3274	1195.768039779583	56
0	3276	1195.968341424251	57
0	3279	1196.534765070558	57
0	3285	1198.484834597511	57
0	3296	1203.360032677397	55
0	3301	1203.826157164317	56
0	3308	1208.669861589623	55
0	3311	1209.272724899436	55
0	3314	1209.346340820876	55
0	3316	1209.494543291284	56
0	3324	1211.555366077638	57
0	3328	1214.311769512839	56
0	3330	1216.018727491377	57
0	3332	1216.38272676182	58
0	3337	1217.765137908695	59
0	3339	1218.051093442079	60
0	3351	1221.501294624759	56
0	3355	1223.62220172486	56
0	3357	1224.964447356328	57
0	3366	1225.735749344739	58
0	3371	1226.890871945712	59
0	3375	1229.335430521503	60
0	3401	1238.235034269546	57
0	3403	1238.376576390545	58
0	3406	1238.589799493451	59
0	3408	1239.420500676871	60
0	3413	1248.019210186071	58
0	3418	1248.649629039855	59
0	3420	1248.990987961677	60
0	3444	1260.4825260306	54
0	3450	1262.65424087193	54
0	3455	1265.015046913005	54
0	3457	1265.339775672175	55
0	3464	1269.039438960787	55
0	3469	1270.090991627902	56
0	3471	1270.360846091083	57
0	3477	1272.237774573141	57
0	3479	1272.383261423839	58
0	3482	1273.288975278742	58
0	3494	1277.525877355004	58
0	3496	1278.003891480264	59
0	3498	1278.953544613469	60
0	3505	1285.704731052672	56
0	3507	1287.58466416448	57
0	3513	1290.977048018306	57
0	3515	1291.201941971147	58
0	3517	1291.85282637554	59
0	3519	1293.545878225489	60
0	3521	1293.584077804998	61
0	3523	1295.600376766637	62
0	3525	1296.058312497816	63
0	3527	1297.850003890907	64
0	3530	1297.991708925866	64
0	3533	1298.193189258868	64
0	3539	1301.360770034509	63
0	3546	1303.568012179181	62
0	3569	1311.086427581885	63
0	3576	1312.747857872926	60
0	3579	1314.024945036934	60
0	3587	1315.132023776648	60
0	3590	1316.314947934923	61
0	3593	1319.558883634295	61
0	3600	1321.371470893147	61
0	3602	1322.416950374639	62
0	3612	1324.47014557632	63
0	3615	1326.375310261322	63
0	3627	1329.884863860278	60
0	3629	1330.193310569045	61
0	3632	1330.820786597878	61
0	3656	1339.597922164542	58
0	3658	1339.83208634665	59
0	3683	1345.167528880844	55
0	3691	1347.457660960519	55
0	3697	1348.637221907631	55
0	3700	1349.875491308839	56
0	3703	1352.517812160166	56
0	3705	1352.815849522706	57
0	3715	1354.790782405591	56
0	3723	1358.498043016736	54
0	3726	1359.958698878968	54
0	3729	1363.606033136848	54
0	3734	1364.937249485466	55
0	3746	1367.949286816666	52
0	3752	1370.880505289564	49
0	3755	1372.195439168488	49
0	3764	1374.412517067456	49
0	3766	1374.573478247733	50
0	3768	1376.100962368306	51
0	3771	1376.229705626596	51
0	3773	1376.486242564718	52
0	3786	1382.576861679924	51
0	3792	1384.465982377277	51
0	3804	1388.856467103817	51
0	3813	1392.67455771368	51
0	3820	1394.66661683405	52
0	3824	1395.95289033946	53
0	3834	1397.13765453121	54
0	3848	1400.207510046513	55
0	3850	1400.424757550066	56
0	3855	1402.187325428009	56
0	3858	1403.171723806811	57
0	3861	1403.396661464235	57
0	3885	1412.459524695003	51
0	3894	1415.543904749255	51
0	3901	1417.630338896112	52
0	3907	1419.348929333425	53
0	3917	1426.378927780831	54
0	3926	1429.779976125815	49
0	3930	1431.831183165285	48
0	3932	1432.096745669494	49
0	3935	1432.218214810184	49
0	3946	1436.651841404358	47
0	3949	1437.651547734401	47
0	3954	1438.648740070532	48
0	3959	1439.90110265861	49
0	3965	1440.565098166741	49
0	3977	1446.635461953987	46
0	3979	1447.091723268944	47
0	3983	1449.690357853107	46
0	3991	1456.394296482655	46
0	3994	1456.844925260963	47
0	3998	1458.561101224898	46
0	4000	1458.563044708928	47
0	4005	1461.302480708616	47
0	4013	1464.178824794061	46
0	4037	1472.009269832045	46
0	4042	1472.375301196874	47
0	4044	1472.788522172749	48
0	4049	1475.391078127137	49
0	4051	1475.568805059012	50
0	4056	1478.657451805436	48
0	4062	1479.224105407107	49
0	4073	1485.826814368694	49
0	4075	1487.073197912826	50
0	4090	1494.472120152105	47
0	4092	1495.324224720946	48
0	4094	1497.033278049742	49
0	4097	1498.917758174077	49
0	4099	1499.0604960689	50
0	4107	1501.645795967384	48
0	4112	1504.378602368281	49
0	4116	1505.57516578738	50
0	4124	1507.58479896075	49
0	4126	1508.210118756632	50
0	4128	1508.53787274432	51
0	4139	1513.982249530581	51
0	4150	1519.746657788028	50
0	4158	1522.84874361029	48
0	4162	1523.081065480085	49
0	4166	1523.523582357127	50
0	4172	1525.394312453564	51
0	4179	1528.144217021489	51
0	4184	1529.43754244164	52
0	4195	1534.023271021835	50
0	4197	1534.044087569875	51
0	4199	1534.742696454488	52
0	4212	1536.422902615758	53
0	4215	1537.1533843112	54
0	4217	1537.212102967688	55
0	4219	1537.310000481683	56
0	4221	1537.506586884307	57
0	4223	1538.282181097462	58
0	4228	1539.894072582713	59
0	4230	1540.754305433382	60
0	4233	1542.274036636409	60
0	4240	1544.303206696014	61
0	4243	1546.648260864429	62
0	4248	1549.081298824663	63
0	4252	1552.692840070876	62
0	4258	1553.439349101987	62
0	4264	1557.007403043955	61
0	4266	1557.069357936206	62
0	4271	1557.98260028368	63
0	4274	1559.455013339157	64
0	4280	1560.317156323139	64
0	4283	1560.694962565963	64
0	4293	1564.012412845247	63
0	4304	1566.894446884589	61
0	4307	1569.781400613173	61
0	4309	1570.547864909485	62
0	4313	1571.573972712091	63
0	4322	1574.216502695283	63
0	4326	1576.88244792217	63
0	4330	1577.882119717472	64
0	4335	1581.464752895179	63
0	4338	1582.360407320146	63
0	4341	1584.2996869559	63
0	4346	1585.581799464097	64
0	4348	1587.402173324544	65
0	4351	1589.594686594283	65
0	4357	1590.21839960825	66
0	4364	1592.468085649004	64
0	4370	1595.836050915022	63
0	4375	1597.715945358476	62
0	4378	1600.394262575229	62
0	4389	1603.021527831977	63
0	4392	1604.272540334906	63
0	4394	1604.298991584133	64
0	4402	1606.132036409388	65
0	4410	1611.737500546477	63
0	4412	1611.765600757919	64
0	4421	1616.052142478204	64
0	4427	1620.363440717534	64
0	4431	1623.20368425612	63
0	4433	1623.435358384412	64
0	4437	1624.368235762675	63
0	4450	1630.020324135356	62
0	4455	1631.427028352154	60
0	4457	1631.486196080716	61
0	4462	1633.579055746875	61
0	4471	1636.109324325248	62
0	4479	1640.262680336828	63
0	4484	1643.217410784043	64
0	4486	1644.076888573388	65
0	4489	1645.061126165193	65
0	4491	1645.767101247399	66
0	4494	1646.988876460007	66
0	4497	1647.521854957328	66
0	4500	1649.022106151025	66
0	4508	1650.634792295689	67
0	4512	1651.893160722132	68
0	4514	1652.196947763129	69
0	4517	1652.527280730725	70
0	4519	1653.108801976379	71
0	4523	1656.669786525387	70
0	4525	1657.300300359892	71
0	4537	1661.589586675476	71
0	4541	1664.534517719687	70
0	4550	1669.923835334863	71
0	4552	1669.968747563674	72
0	4566	1673.445504769971	72
0	4568	1673.96937148024	73
0	4589	1679.442400227573	73
0	4591	1679.918382994261	74
0	4599	1681.516653490494	75
0	4601	1681.758607213953	76
0	4606	1684.123517714362	77
0	4613	1688.93944593987	76
0	4617	1690.455874105791	77
0	4624	1692.89312473319	77
0	4628	1693.079750504066	78
0	4631	1694.512978579668	79
0	4636	1695.086983113126	80
0	4639	1696.969757388954	80
0	4642	1697.791685449359	80
0	4647	1698.55979289534	81
0	4654	1700.732745892804	80
0	4667	1704.475699277287	79
0	4672	1707.654957898785	79
0	4680	1711.848889887147	78
0	4690	1716.674693581612	76
0	4695	1720.504841018147	75
0	4700	1722.405985912716	76
0	4702	1722.860394510557	77
0	4708	1724.295787241299	77
0	4711	1724.867682473531	77
0	4719	1728.982864117518	75
0	4721	1728.998991054201	76
0	4728	1735.850429306903	75
0	4732	1740.016743503472	74
0	4740	1744.103729396829	74
0	4742	1744.211725990063	75
0	4745	1745.13611744035	76
0	4747	1745.575166398005	77
0	4750	1747.029199324533	77
0	4752	1747.868907268791	78
0	4754	1748.295084840509	79
0	4756	1748.316625285906	80
0	4759	1749.303113354725	80
0	4764	1750.434850503899	81
0	4768	1752.877019075826	80
0	4770	1753.362827434846	81
0	4779	1756.364193990502	80
0	4784	1758.171930039287	81
0	4788	1758.85035814445	81
0	4793	1761.695777590968	82
0	4795	1761.748006654644	83
0	4800	1766.590626330745	84
0	4802	1767.393167835236	85
0	4806	1768.293605319699	84
0	4811	1768.961154237102	85
0	4814	1770.915492069268	85
0	4816	1771.075846527731	86
0	4819	1771.584640452912	86
0	4821	1771.916266542155	87
0	4827	1772.748969195289	87
0	4833	1773.729152260632	87
0	4835	1774.629125832062	88
0	4839	1775.5932087084	89
0	4848	1777.499595458805	90
0	4851	1780.645084840406	90
0	4859	1785.759194330387	88
0	4864	1786.624290072895	89
0	4869	1789.576354228735	90
0	4871	1790.388793915329	91
0	4875	1790.986442484287	90
0	4877	1791.542414982348	91
0	4880	1794.094762595806	91
0	4884	1794.975992105311	90
0	4886	1795.113205493767	91
0	4890	1797.241656773368	90
0	4898	1803.104619450726	88
0	4902	1804.214830425596	87
0	4909	1807.789155827477	86
0	4913	1808.591184258933	87
0	4916	1809.223058783651	88
0	4918	1809.372235678621	89
0	4920	1811.259040858229	90
0	4922	1811.327815449299	91
0	4926	1814.028966712712	92
0	4929	1815.279921781568	93
0	4933	1815.578369221214	94
0	4935	1816.335387765881	95
0	4942	1818.159168592587	95
0	4944	1818.182947856263	96
0	4951	1818.836475534461	95
0	4957	1822.322772482549	95
0	4964	1824.680090165992	94
0	4969	1826.506460896204	95
0	4971	1826.775114381121	96
0	4977	1828.955215580192	96
0	4979	1829.558395596417	97
0	4981	1830.510245324304	98
0	4983	1830.551012358132	99
0	4988	1832.378508420856	100
0	4990	1832.88546208838	101
0	4995	1834.059079806408	102
0	5001	1835.013419520234	102
0	5006	1836.074045737559	102
0	5011	1840.21284078633	101
0	5014	1841.122566663616	101
0	5025	1844.577298517423	98
0	5032	1845.091540514213	99
0	5049	1855.487206445195	99
0	5052	1856.628655691513	99
0	5054	1856.64995238422	100
0	5062	1860.31868549198	101
0	5064	1860.334477358354	102
0	5070	1860.813342819551	101
0	5072	1861.444717810772	102
0	5091	1866.749344161744	102
0	5095	1869.130087351	103
0	5106	1874.696105465085	102
0	5110	1877.099031483081	103
0	5113	1877.899740830553	104
0	5116	1878.916582794291	104
0	5123	1883.458988945907	103
0	5128	1884.924012452014	104
0	5137	1888.183742214053	101
0	5148	1891.757021572128	99
0	5151	1892.616436214555	99
0	5156	1894.296366039813	100
0	5160	1896.586385991772	99
0	5162	1897.153417077066	100
0	5164	1898.671341295068	101
0	5166	1899.859568070156	102
0	5169	1900.250470870791	102
0	5177	1903.812575665065	100
0	5183	1904.196192283086	101
0	5185	1904.246511813379	102
0	5191	1905.66218302547	101
0	5193	1905.850632164882	102
0	5197	1906.512346862991	101
0	5207	1908.917741207491	100
0	5218	1914.123971115624	98
0	5222	1914.273465475547	99
0	5226	1914.650216225701	100
0	5238	1917.416266306452	98
0	5243	1917.831092455851	99
0	5247	1919.764644830582	99
0	5256	1923.069717988111	99
0	5259	1924.50312400476	99
0	5273	1931.285418600735	94
0	5276	1932.463737285614	94
0	5278	1932.813910016825	95
0	5282	1933.580117753438	96
0	5285	1933.72724618141	97
0	5299	1942.049910123286	92
0	5301	1944.463153870603	93
0	5303	1945.476147598903	94
0	5306	1947.503823832503	94
0	5308	1947.844344693883	95
0	5310	1949.542429720889	96
0	5316	1952.491682916748	93
0	5322	1955.793759262946	93
0	5328	1957.505789616702	93
0	5330	1958.546267746429	94
0	5332	1960.134089953951	95
0	5335	1962.312324595005	95
0	5338	1963.134094288848	95
0	5347	1966.534859596518	92
0	5353	1969.154568749377	92
0	5359	1970.528549264693	92
0	5364	1971.342448258554	93
0	5366	1971.519803482957	94
0	5370	1971.739083950763	95
0	5372	1971.859853328291	96
0	5378	1974.59738130079	96
0	5380	1974.725437258803	97
0	5385	1975.852776515873	96
0	5390	1980.689134110856	94
0	5392	1982.855239609893	95
0	5394	1985.345209327198	96
0	5396	1986.25807741203	97
0	5398	1988.259772024883	98
0	5400	1988.679850784291	99
0	5405	1990.136564685218	99
0	5407	1990.827626654531	100
0	5409	1991.304942403882	101
0	5411	1992.154001011162	102
0	5417	1994.130120149265	103
0	5420	1995.643238088226	103
0	5424	1996.246372814438	104
0	5429	1997.300436393124	105
0	5432	1998.79459771627	106
0	5438	1999.73285735176	106
1	0	0	0
1	5	2.08569898215	0
1	6	3.124502999202	0
1	8	3.959597714419	0
1	14	5.374697257644	1
1	20	7.566582092173	1
1	21	8.010026710103	0
1	23	10.143763354669	0
1	25	11.646762980154	1
1	26	11.844236317409	1
1	27	12.292048822883	0
1	29	13.76027159076	0
1	30	14.266952275197	0
1	38	18.292492495864	0
1	39	18.445411533161	0
1	41	20.854370495065	0
1	42	22.365338875464	0
1	47	23.262257365754	0
1	49	23.788639697443	1
1	56	26.208198354943	1
1	58	26.294245350483	1
1	60	26.573064425455	2
1	61	26.615443237679	2
1	62	26.639622184915	1
1	63	27.241298612297	0
1	71	29.100074009779	0
1	72	29.348439224061	0
1	77	32.91446463429	0
1	81	33.418629823324	1
1	86	35.465290165272	1
1	96	40.325646494289	1
1	99	40.710764919816	2
1	101	41.082155516623	3
1	105	42.217954876995	3
1	107	42.302863672195	3
1	108	42.375783596491	3
1	112	44.242646186911	3
1	117	46.363864177967	3
1	125	49.525442528374	3
1	127	49.940448969781	4
1	129	49.960319122352	5
1	131	50.667488962035	6
1	133	50.855939321784	7
1	137	51.69549854306	7
1	142	53.056690595803	7
1	149	54.703559564005	7
1	153	55.115062252896	6
1	154	55.884288564891	5
1	155	55.896216799769	4
1	162	56.853602648428	4
1	165	57.556919672228	5
1	166	57.835587468443	5
1	168	58.88650976063	5
1	170	59.317480213072	6
1	171	60.557699237522	6
1	172	61.271907591927	5
1	174	63.505950428796	5
1	184	67.632676081383	5
1	185	67.793863730176	4
1	190	71.422054752346	4
1	191	71.884611948031	4
1	193	72.156469312651	4
1	195	72.18015730476	5
1	199	72.855142263976	5
1	201	73.162090713672	5
1	203	73.482579957274	6
1	207	74.36385709895	6
1	211	75.224477454375	6
1	214	76.925511961022	7
1	216	77.166882605564	8
1	218	77.315378563438	9
1	219	77.990579142559	9
1	223	78.76172839098	8
1	224	79.608592380258	7
1	228	80.23638170496	7
1	230	81.592931187067	7
1	232	83.264341628625	7
1	236	84.013920652666	8
1	238	85.142893949572	8
1	239	85.340107964044	7
1	240	86.03933415349	6
1	242	86.505713851375	6
1	243	86.941977757386	6
1	245	88.582689675289	6
1	247	88.960626025883	7
1	249	89.027116983333	8
1	251	89.880297949398	9
1	252	90.10183693228	9
1	254	90.244290555591	9
1	256	90.91529769351	10
1	257	91.431176092719	10
1	259	92.040599091875	10
1	261	92.927737375856	11
1	266	93.444777509395	12
1	267	94.375493131753	12
1	268	94.473258797662	11
1	269	95.244244356211	10
1	277	96.966214761716	10
1	281	99.572253046239	10
1	291	103.304157526637	9
1	292	103.710693884074	8
1	294	103.747172816722	8
1	296	105.833885889909	9
1	300	107.091509982718	9
1	301	107.692190025794	8
1	303	110.540367532439	8
1	304	111.016320895719	8
1	305	111.171678602927	7
1	307	111.5647996397	7
1	311	114.049895047532	7
1	312	114.323250271665	6
1	313	115.470977245576	5
1	315	115.579605753223	5
1	316	116.200410397145	5
1	318	116.620173238122	5
1	320	116.685555977301	6
1	325	118.403648618886	7
1	336	121.617508231521	8
1	343	123.706707804419	9
1	345	124.826856092537	9
1	346	125.960396113241	8
1	347	126.60069165226	7
1	349	128.438940293236	7
1	350	128.671898567815	7
1	351	130.0918828641	6
1	358	133.489960878507	5
1	359	135.771886821392	4
1	361	136.595830164836	4
1	362	136.987160756523	4
1	363	137.409486418683	3
1	364	137.702512773562	2
1	366	139.030171414057	2
1	368	139.793495660969	3
1	370	140.315478433313	4
1	371	141.91425002526	4
1	372	141.976760560666	3
1	373	142.141530745032	2
1	375	142.638398760765	2
1	379	143.480097191094	2
1	380	143.635881560143	1
1	382	143.698536607554	1
1	384	144.512809621664	2
1	388	145.811349227421	2
1	389	147.934723688497	1
1	390	148.561530883564	0
1	395	152.205651133082	0
1	397	152.297581806419	1
1	398	152.617143121471	1
1	400	153.095691082561	1
1	404	153.464026203186	2
1	406	154.794571828091	2
1	408	155.274377023481	2
1	418	159.575238584394	2
1	422	160.641465542358	1
1	424	160.826588331393	1
1	425	161.930579428601	1
1	429	162.361667587048	1
1	432	163.491056185757	2
1	433	164.30915995666	2
1	435	164.727491691305	2
1	437	166.301678788981	3
1	439	166.81352800307	4
1	441	168.675557873068	5
1	445	173.583325697664	5
1	447	173.740887326148	5
1	448	174.156350159176	5
1	455	175.708950210707	5
1	458	177.596391449488	6
1	460	177.679692146607	7
1	462	178.176850577064	8
1	463	178.575346804996	8
1	464	178.581512370662	7
1	468	180.370678668892	7
1	470	180.450832798634	8
1	473	183.029834489826	9
1	475	184.617492158657	10
1	476	184.67444461959	10
1	477	185.105830086025	9
1	478	185.178078021398	8
1	480	185.384022803386	8
1	481	185.464451519483	8
1	483	185.573054581167	8
1	485	186.196607691232	9
1	486	186.699286494667	9
1	494	189.604855316075	9
1	495	189.991958005339	9
1	499	190.958325910547	8
1	500	191.745932204875	7
1	504	193.923781999817	6
1	506	194.160073580788	6
1	511	196.461377395853	7
1	513	196.706090504941	8
1	514	196.84510773383	8
1	515	199.750381121615	7
1	516	202.092129325703	6
1	518	202.198466810727	6
1	519	202.581105053864	6
1	523	204.035558190182	5
1	525	204.262743045535	5
1	527	204.451168941375	6
1	528	204.763706648133	6
1	529	206.057099807436	5
1	531	206.23087860092	5
1	533	206.257773853489	6
1	535	206.645011299724	7
1	537	207.131990689703	8
1	539	207.710364641168	9
1	540	208.194087513061	9
1	542	208.678431547311	9
1	543	208.70533561871	9
1	545	209.083850719469	9
1	547	211.759115713989	10
1	549	211.808577433229	11
1	551	212.397465249544	12
1	553	212.54829827359	13
1	554	212.733302109198	13
1	556	213.138110501594	13
1	557	213.520663174047	13
1	558	213.622464261865	12
1	559	216.705952328748	11
1	563	217.641330116992	11
1	568	218.187390568232	12
1	570	220.308377524489	12
1	580	223.992221458183	11
1	581	225.426498886911	10
1	585	227.611826956386	9
1	587	228.09511091345	9
1	588	228.226395839759	9
1	590	228.320375819171	9
1	591	228.677707064128	9
1	592	228.68764050976	8
1	596	229.307232721668	7
1	602	231.498856789233	7
1	605	231.901316613146	8
1	607	231.917539640971	9
1	612	234.79131550158	9
1	613	235.406356546407	8
1	614	235.598571795019	7
1	615	235.750091617493	6
1	617	236.386128179202	6
1	619	236.430581259176	7
1	621	236.553773428988	8
1	626	236.993919844502	9
1	628	237.356876119474	10
1	634	238.428673320207	11
1	636	238.504102992535	12
1	639	239.733739246691	12
1	640	241.293315219873	11
1	644	242.361145653519	11
1	647	244.774789018556	12
1	649	244.948887736203	13
1	653	247.049631507199	13
1	660	251.343506300707	12
1	664	255.369429150226	11
1	666	256.346278759941	11
1	668	257.762053355762	12
1	670	257.997430626051	13
1	672	258.05057023661	14
1	673	258.39165438805	14
1	674	258.822600171549	13
1	680	260.629320007127	13
1	683	261.9037671642	13
1	684	262.285620150152	12
1	686	262.454616962171	12
1	690	263.277824951532	13
1	692	264.058738730071	13
1	693	264.838479256956	12
1	697	268.213522055635	11
1	702	269.370159882371	11
1	704	269.759339251117	12
1	705	269.966533454442	12
1	706	270.277348684396	11
1	710	271.267436378175	11
1	721	275.799110833084	11
1	722	276.135252566516	10
1	727	276.957510067842	10
1	731	278.078772046864	10
1	732	278.502548171257	9
1	734	278.691127668173	9
1	735	283.15800805197	9
1	739	285.793213726721	8
1	741	286.14507832139	8
1	745	287.515587543487	8
1	747	290.407832099139	8
1	748	292.534773052369	8
1	756	293.302179881014	8
1	764	298.383243031272	9
1	765	298.489670281713	9
1	766	299.31107958191	8
1	768	299.413395715575	8
1	770	300.844350897473	9
1	772	301.926961012325	10
1	774	302.034298866105	11
1	782	304.105446941464	12
1	784	304.992891624185	13
1	786	305.065564032547	14
1	787	305.245878445401	14
1	792	308.365901618291	14
1	794	308.655216770961	15
1	795	309.571429308217	15
1	800	312.117119568864	15
1	801	312.716390634414	15
1	803	314.131601519887	15
1	804	314.182788211285	15
1	805	315.261008537863	14
1	806	315.740065590119	13
1	807	316.255862158908	12
1	808	317.076999203247	11
1	809	317.896342229182	10
1	813	319.085069742447	9
1	815	319.164849249583	9
1	816	319.22954744968	9
1	817	319.779114847918	8
1	824	323.046413236262	7
1	829	324.499177851376	7
1	831	324.728550298193	8
1	832	324.736135833177	8
1	836	326.55840563172	7
1	843	328.78511065093	6
1	844	330.029086159789	5
1	848	330.736988889143	5
1	850	333.027329777525	5
1	852	333.814851919902	5
1	854	335.472051441942	6
1	855	337.048145278826	6
1	856	337.704636356361	5
1	861	339.234591838972	5
1	863	339.711185213519	6
1	865	340.210795954288	7
1	866	340.992329984557	7
1	870	341.767866480269	7
1	874	344.211613458717	8
1	877	344.592320690958	9
1	879	345.423691958203	9
1	881	345.427557505066	9
1	883	345.746719513784	10
1	885	346.018747118366	11
1	886	346.077251450277	11
1	887	347.835617505405	10
1	888	347.840976718248	9
1	890	348.611618098511	9
1	897	351.862265261303	9
1	899	352.678775735249	9
1	901	353.149633875233	10
1	902	353.19190089515	10
1	903	354.305098932053	9
1	905	355.158679686622	9
1	907	355.20335510703	10
1	912	357.855411875581	11
1	913	358.690704642036	11
1	914	358.893851507006	10
1	915	359.208753706969	9
1	916	359.609132741493	8
1	917	359.746492882264	7
1	922	359.822242071889	7
1	924	360.111883728041	8
1	925	362.610665038656	8
1	926	363.010452667816	7
1	927	363.936751646204	6
1	933	366.141001278896	6
1	936	366.402181989435	7
1	941	368.722309154579	7
1	942	369.212577546586	6
1	947	370.883273530289	6
1	948	371.027892002235	6
1	952	372.445917336633	6
1	955	373.367652034794	7
1	957	374.81057934825	8
1	967	380.091917941274	9
1	970	381.06455743086	10
1	972	382.511278360668	11
1	981	384.606870365552	12
1	987	387.594722611207	12
1	1002	390.361354322447	12
1	1009	392.373250440405	13
1	1014	394.0587320683	14
1	1016	394.721555189734	15
1	1018	394.74833150012	16
1	1031	397.893979979398	17
1	1036	398.719795999111	18
1	1039	399.183813012004	19
1	1041	399.436403381214	20
1	1042	400.21317016875	20
1	1043	403.550991830815	19
1	1047	404.867815142481	19
1	1050	405.700753480036	20
1	1061	408.56894332465	21
1	1062	409.437699857613	21
1	1064	409.474116545435	21
1	1065	409.867580823527	21
1	1066	409.934087143685	20
1	1073	411.135279966907	20
1	1075	412.581843936032	20
1	1076	412.706538232553	19
1	1078	413.262169601733	19
1	1080	413.355875579898	20
1	1096	418.853696064148	21
1	1098	418.862394450223	22
1	1101	419.307368947953	23
1	1105	422.8989699249	23
1	1109	424.628860863619	22
1	1111	426.284725532329	22
1	1113	428.239999875887	23
1	1115	429.267065299344	24
1	1117	429.609050248906	25
1	1118	429.673189155434	25
1	1119	430.164582024029	24
1	1121	430.227200361371	24
1	1123	430.39953927503	25
1	1124	431.141434384875	25
1	1125	431.271615419277	24
1	1127	432.804740529661	24
1	1128	434.794732625938	24
1	1133	435.167188542777	24
1	1134	435.34496163585	24
1	1139	436.65073286213	24
1	1141	437.290347872015	25
1	1143	438.054238271679	26
1	1145	439.092366349117	27
1	1152	444.162383258411	27
1	1161	444.837626951469	27
1	1170	449.737696324157	27
1	1171	450.170109449351	26
1	1172	451.279240327505	25
1	1183	456.576016542605	25
1	1184	456.692941170197	25
1	1185	456.943714854217	24
1	1186	457.323730422764	23
1	1187	457.383876865159	22
1	1195	459.7139946307	22
1	1196	460.485220026967	22
1	1198	461.116801773007	22
1	1199	461.376420404098	22
1	1200	462.378460997782	21
1	1201	463.225696121696	20
1	1205	463.946067155412	19
1	1210	465.514824051635	19
1	1220	468.161919813302	19
1	1224	469.557255126308	18
1	1226	471.076996848131	18
1	1227	472.00883230321	18
1	1228	472.29508356545	17
1	1232	474.080763959792	16
1	1233	474.378604580907	15
1	1234	474.829061189688	14
1	1236	474.871063194005	14
1	1238	475.753689939576	15
1	1239	475.770130879317	15
1	1241	476.365886471336	15
1	1243	477.073520086702	16
1	1250	479.721704866738	17
1	1253	479.967272615169	18
1	1254	480.363658057178	18
1	1256	480.441447546881	18
1	1260	481.608550790189	18
1	1262	481.644406744261	18
1	1263	482.186687014112	18
1	1265	483.603558754976	18
1	1277	491.230786173892	19
1	1281	492.732632144583	20
1	1283	493.991127679434	21
1	1285	494.30510953008	22
1	1287	494.371070058431	23
1	1292	496.231722192474	24
1	1296	497.642820404166	24
1	1298	498.364834446918	24
1	1306	500.423176408287	25
1	1308	500.481114807558	26
1	1310	501.826630645722	27
1	1312	502.544863241345	28
1	1314	502.922356629493	29
1	1315	506.512933800817	29
1	1316	507.675051922526	28
1	1317	509.024848100267	27
1	1322	510.564604369624	27
1	1324	511.870295166973	28
1	1328	512.031310781549	29
1	1331	512.705527576332	30
1	1332	512.942963527211	30
1	1334	513.549063966476	30
1	1336	514.070625354452	31
1	1338	514.075053667216	32
1	1339	516.555242103875	32
1	1341	516.585275883014	32
1	1346	518.910839198461	33
1	1348	518.975651120018	34
1	1350	519.044881191791	35
1	1351	519.668864555444	35
1	1355	520.716911054317	35
1	1358	521.364478715033	36
1	1360	521.773035740839	37
1	1362	521.809405542102	38
1	1363	522.669963534521	38
1	1367	522.811554947703	38
1	1369	523.002826077036	39
1	1375	524.41989704571	40
1	1379	529.091453087048	40
1	1380	530.181081443433	39
1	1381	530.191832149121	38
1	1385	530.746413771786	38
1	1390	531.666291640622	38
1	1391	532.381520927841	37
1	1392	532.765513088952	36
1	1393	532.970939663012	35
1	1397	534.386657667751	34
1	1402	536.73208851475	34
1	1403	536.933824118694	34
1	1404	537.591335691805	33
1	1405	539.836539977837	32
1	1409	540.502007116502	31
1	1413	541.11198953711	31
1	1419	543.86499548282	32
1	1427	546.004893971805	33
1	1429	547.820072837475	34
1	1433	549.00267019381	34
1	1434	550.051935243149	33
1	1438	553.718853936887	32
1	1443	555.619364775185	32
1	1447	557.616507177143	32
1	1449	560.613804525179	32
1	1450	561.393137677217	32
1	1452	561.848819876118	32
1	1454	562.009174935986	33
1	1456	562.165852903574	34
1	1458	562.428289059398	35
1	1462	564.412108744596	35
1	1469	565.694615571017	35
1	1473	565.91670559313	36
1	1477	567.942014909922	37
1	1487	571.107906035326	37
1	1488	571.248702632293	36
1	1490	572.622216232501	36
1	1491	574.156857210683	36
1	1498	575.058281239262	36
1	1500	575.296637949006	36
1	1513	582.082792524553	35
1	1517	583.506461295244	34
1	1530	586.908671558627	33
1	1531	588.028731769887	32
1	1538	591.84844790947	32
1	1549	595.251545862477	32
1	1556	599.165690004009	32
1	1562	599.834247326344	33
1	1563	601.269211648356	33
1	1565	601.963767301572	33
1	1566	602.100501274608	33
1	1567	602.374716292589	32
1	1569	602.853357141984	32
1	1574	605.131084033033	33
1	1576	605.49738897378	34
1	1580	606.313925490623	35
1	1582	607.182609531589	35
1	1583	607.604781653091	34
1	1585	607.650386466386	34
1	1589	608.488172171877	34
1	1590	608.81034439656	33
1	1598	610.833740993026	33
1	1600	611.218211659363	34
1	1604	611.956126319468	35
1	1606	614.1897861124	35
1	1608	614.98418114583	35
1	1610	614.989002705173	36
1	1615	616.36715060787	37
1	1616	617.270375049059	37
1	1620	619.129021096642	36
1	1621	619.70099885425	35
1	1622	620.196976881483	34
1	1630	623.42459262162	34
1	1632	624.624561967337	35
1	1633	625.114289871482	35
1	1635	625.254472535847	35
1	1636	625.336715965012	35
1	1640	626.841138736328	35
1	1652	630.888760707207	36
1	1656	631.646188289656	36
1	1658	631.939843782961	36
1	1659	632.423603293672	36
1	1661	633.270183163201	36
1	1663	633.959299663263	37
1	1664	634.360593255733	37
1	1676	638.980363362234	37
1	1678	639.025186209637	38
1	1685	640.894146929168	39
1	1687	641.887777882737	40
1	1688	642.037386898998	40
1	1692	644.056778613238	39
1	1699	646.747670434554	38
1	1703	647.408927407153	38
1	1705	647.520213232807	39
1	1708	648.510995791809	40
1	1715	651.453011202468	41
1	1726	655.463290924892	41
1	1731	659.125006317289	41
1	1735	660.116583578147	41
1	1736	661.420316771146	40
1	1738	661.945407176081	40
1	1739	662.956555262402	40
1	1744	665.531295328554	40
1	1752	668.784418805989	41
1	1757	674.50893205539	42
1	1758	676.261269526169	42
1	1774	682.630734456619	41
1	1778	684.803705639971	40
1	1779	685.447789521701	39
1	1781	685.611821779881	39
1	1782	685.839720575034	39
1	1783	687.183665884939	38
1	1791	691.553701599021	38
1	1792	691.740019285239	38
1	1794	692.490845680624	38
1	1798	694.21152122571	38
1	1799	694.467697078369	37
1	1801	694.754823958637	37
1	1803	694.807346591716	38
1	1804	694.871906904668	38
1	1806	695.718220493808	38
1	1807	695.827922125732	38
1	1809	696.001548269725	38
1	1810	696.113333321694	38
1	1812	696.785491448922	38
1	1817	699.587411476238	39
1	1821	699.94984007156	40
1	1823	700.466563633747	40
1	1828	700.979418637372	40
1	1830	701.2918602181	41
1	1831	701.788148741626	41
1	1833	701.877845501813	41
1	1835	701.88002758659	42
1	1837	702.009101323294	43
1	1838	702.054403735781	43
1	1840	702.221539345796	43
1	1848	705.824563074037	44
1	1850	707.270282924727	45
1	1863	709.3557259059	46
1	1865	710.275617855012	46
1	1869	714.671170755368	45
1	1876	716.320607760114	45
1	1878	716.708767397433	46
1	1884	717.860955113639	47
1	1888	718.794066411205	48
1	1892	719.82667464061	49
1	1894	720.279943508448	50
1	1897	720.497574790941	50
1	1901	721.568618595639	49
1	1903	721.899537494091	49
1	1907	723.480052937039	49
1	1908	723.866334191222	48
1	1909	724.049169481584	47
1	1910	724.091142606815	46
1	1917	726.860166423796	46
1	1920	728.053878592304	47
1	1924	730.708813690566	48
1	1932	731.624980167604	48
1	1933	731.792438337414	47
1	1934	732.164202995017	46
1	1936	732.564231332537	46
1	1938	732.67936009644	47
1	1942	733.990007497752	48
1	1945	735.148794525017	49
1	1947	735.52029165199	50
1	1948	735.736614442829	50
1	1949	735.755245610133	49
1	1950	736.010990221598	48
1	1951	736.103604695627	47
1	1952	736.298338379582	46
1	1953	736.563588271165	45
1	1961	737.294471990467	45
1	1963	737.786813019386	46
1	1964	738.113102553381	46
1	1971	741.245639444207	45
1	1979	745.487095811109	45
1	1989	746.916535904867	45
1	1991	748.069923133083	45
1	1992	748.411192473185	45
1	1994	748.798507533742	45
1	1996	748.858605985097	46
1	2000	751.48809876203	46
1	2002	751.49098235575	46
1	2007	753.458605880263	47
1	2009	753.632265102826	48
1	2014	754.55343920606	49
1	2015	754.673030568508	49
1	2019	756.545042193115	48
1	2021	756.594441585914	48
1	2023	758.53910715669	49
1	2024	759.481747415323	49
1	2025	762.826559536726	48
1	2027	763.359658365936	48
1	2028	763.808548878998	48
1	2030	764.321545970572	48
1	2032	765.894518910779	49
1	2033	766.243606073588	49
1	2043	767.277943295306	49
1	2045	767.598568020764	50
1	2047	768.615060923972	50
1	2052	769.797691984502	50
1	2062	772.320680360211	50
1	2063	772.325288501015	49
1	2068	774.389462000771	49
1	2069	774.522878198659	49
1	2070	776.340387492557	48
1	2076	777.299778329473	48
1	2082	778.46666866144	49
1	2086	779.08502594116	50
1	2091	779.738258255072	51
1	2097	781.130107083933	51
1	2098	781.554150100034	50
1	2100	782.65823072079	50
1	2102	783.72191130329	51
1	2104	784.764195385679	52
1	2106	785.674688236706	53
1	2108	785.824873340023	54
1	2110	787.702690531688	55
1	2112	788.117499324092	56
1	2113	788.389335824837	56
1	2114	788.398929438268	55
1	2116	788.823822876372	55
1	2118	790.074608183769	56
1	2120	790.694277633903	57
1	2121	791.766026331647	57
1	2122	793.041232478099	56
1	2124	793.436889348787	56
1	2125	794.166110523517	56
1	2126	794.345257886989	55
1	2130	795.902722264974	54
1	2134	796.176467820878	54
1	2137	797.686744452458	55
1	2138	799.89229618453	55
1	2140	799.955430210979	55
1	2142	800.434957426303	56
1	2146	801.135075088853	57
1	2149	801.961413703425	58
1	2150	802.081081647118	58
1	2151	802.119637885346	57
1	2152	802.12970403179	56
1	2157	803.823539446875	56
1	2158	805.017354126623	56
1	2159	805.162756032839	55
1	2161	805.191744563919	55
1	2166	805.96801973913	56
1	2167	807.543111241807	56
1	2169	807.982253853646	56
1	2171	808.006548722606	57
1	2179	808.597321236927	58
1	2184	811.971053050119	59
1	2185	812.141454120902	59
1	2187	812.640013372075	59
1	2188	812.790270740671	59
1	2196	816.268959310114	59
1	2197	816.401781205747	59
1	2198	817.41579332039	58
1	2200	818.644115019904	58
1	2202	819.228297588925	59
1	2206	821.986893189908	60
1	2230	828.243740666467	61
1	2232	828.337739539112	62
1	2233	828.447766885502	62
1	2234	828.640508819411	61
1	2235	828.735886088763	60
1	2242	829.941926574855	60
1	2244	831.116723611593	60
1	2246	831.301446109228	60
1	2247	831.323167288699	60
1	2249	831.505795210114	60
1	2251	831.991860603751	61
1	2257	832.806151160522	62
1	2264	833.931174120819	63
1	2266	834.921338204925	64
1	2268	835.16477793259	65
1	2270	837.075792993497	66
1	2272	838.169121795608	67
1	2274	838.328974377605	68
1	2275	838.760908595501	68
1	2276	838.866322248429	67
1	2278	840.451437060828	67
1	2280	841.200347351387	68
1	2282	841.769041843741	69
1	2284	842.670817696021	70
1	2292	845.212013824752	71
1	2297	847.418901742463	72
1	2298	847.767238806406	72
1	2300	848.257033674688	72
1	2302	849.15604118038	73
1	2307	850.482784895793	74
1	2309	850.646151964083	75
1	2311	851.688259952914	76
1	2312	852.142889191097	76
1	2314	852.187932678608	76
1	2318	853.457085661035	77
1	2320	853.736436870356	77
1	2322	853.845285011508	77
1	2323	855.103134355794	77
1	2324	855.498229758448	76
1	2325	857.028509097155	75
1	2329	858.453554427906	74
1	2330	858.607786295026	73
1	2331	858.810192990833	72
1	2332	859.463953478894	71
1	2334	859.83401632642	71
1	2335	861.350377371868	71
1	2336	861.865207064384	70
1	2338	862.288094397654	70
1	2339	862.455234767119	70
1	2340	863.391317471338	69
1	2341	863.769738919259	68
1	2343	863.961141295618	68
1	2344	864.091738073687	68
1	2349	866.450582801119	68
1	2351	866.628546037219	69
1	2353	866.786448828264	70
1	2354	867.579798514202	70
1	2355	868.4725090703	69
1	2356	869.372561830998	68
1	2360	870.231447752512	68
1	2368	872.903730851534	68
1	2370	873.100911404179	68
1	2372	873.277214087043	69
1	2374	877.449298772937	70
1	2375	877.84129895884	70
1	2376	877.949715820352	69
1	2380	880.58725389773	68
1	2381	882.154425009822	67
1	2385	882.709554721529	67
1	2387	882.978929254046	68
1	2389	883.049883666123	68
1	2391	883.058130815672	68
1	2392	883.25852580131	68
1	2393	883.452762136455	67
1	2405	885.533306483243	67
1	2407	885.891811384014	68
1	2412	886.508389831872	69
1	2421	890.184220529746	69
1	2423	890.8487498297	69
1	2424	891.25511313882	69
1	2425	891.28404605554	68
1	2426	892.317456042466	67
1	2431	893.239101985848	67
1	2433	893.600599138455	68
1	2434	894.784858330592	68
1	2435	894.859155695849	67
1	2436	895.02249811276	66
1	2438	895.203802987178	66
1	2439	896.589814649106	66
1	2443	898.063050280424	65
1	2447	898.338535510004	65
1	2449	898.495195814135	66
1	2452	899.750714923182	67
1	2454	900.519499701742	68
1	2455	900.850800007263	68
1	2456	901.34575091471	67
1	2457	901.757523422803	66
1	2458	901.918209994874	65
1	2460	902.011631290721	65
1	2461	902.347131305159	65
1	2462	902.431723254201	64
1	2467	902.881106499046	64
1	2468	904.355328584412	64
1	2470	904.427626777521	64
1	2471	905.096408615391	64
1	2476	910.075146448229	64
1	2477	910.288145558607	64
1	2478	910.474400596361	63
1	2480	910.989056106115	63
1	2481	911.144859527651	63
1	2482	911.325616540267	62
1	2484	911.586755659967	62
1	2486	911.808248289232	63
1	2488	914.006248585171	64
1	2489	914.111539495755	64
1	2493	914.404914528008	64
1	2495	914.894239647055	65
1	2497	915.489467618502	65
1	2498	916.237148643583	64
1	2502	916.881961937933	63
1	2504	917.567858295602	63
1	2505	917.691526863712	63
1	2507	918.160139844619	63
1	2508	918.806650509389	63
1	2516	920.541099533179	63
1	2518	921.218234918277	64
1	2523	923.802938279441	65
1	2525	924.414142738587	66
1	2526	926.639741493232	66
1	2540	928.418948387167	66
1	2548	931.151954751748	67
1	2549	932.773779568153	67
1	2550	932.861517250932	66
1	2555	934.069242709206	66
1	2556	935.452097188289	66
1	2561	936.6924830379	66
1	2562	936.717040307762	66
1	2569	940.563439721697	65
1	2573	941.33262430469	64
1	2575	941.561666914156	64
1	2576	941.798558093219	64
1	2581	942.676317033787	64
1	2583	943.018846374684	65
1	2588	944.520275318131	66
1	2589	946.031172531686	66
1	2590	948.699747619768	65
1	2591	949.7951631426	64
1	2592	951.706063419835	63
1	2593	951.808747542575	62
1	2595	952.688718331044	62
1	2597	952.939592087802	63
1	2598	953.844908486586	63
1	2606	954.61995890675	63
1	2607	954.999825902141	63
1	2613	958.441883273146	63
1	2616	960.828374240129	63
1	2620	962.50080424045	62
1	2622	963.004457774067	62
1	2623	964.073007999586	62
1	2627	966.119224225806	62
1	2629	966.22862478227	63
1	2631	966.707912424681	63
1	2633	967.051248573768	63
1	2640	970.420549940524	64
1	2642	971.042164577747	64
1	2643	972.964235658161	63
1	2644	974.090391153821	62
1	2645	974.532547905682	61
1	2647	974.970907182791	61
1	2648	975.522256536859	61
1	2652	976.794924595517	61
1	2654	978.222520694928	61
1	2655	978.642952673606	60
1	2657	978.805149528674	60
1	2658	979.331809666632	60
1	2659	979.544057870328	59
1	2661	979.677302155666	59
1	2662	979.998464944523	59
1	2663	980.25820182336	58
1	2665	980.572526822116	58
1	2667	981.131959332246	59
1	2680	984.477461268115	59
1	2682	986.415127333862	59
1	2684	986.465049597812	60
1	2685	986.708653910134	60
1	2687	986.851892157763	60
1	2691	988.482079528863	60
1	2692	988.538255279897	59
1	2693	990.410890035964	58
1	2694	991.727624205236	57
1	2696	991.956471794723	57
1	2701	992.603964141949	58
1	2703	993.161301943467	59
1	2707	994.458388615522	59
1	2708	994.710901288409	58
1	2710	996.135866421864	58
1	2714	997.21123174133	58
1	2722	1001.94556491165	58
1	2724	1002.424092473812	59
1	2725	1003.307781716365	59
1	2726	1004.281260466548	58
1	2727	1004.758585592907	57
1	2728	1005.456791770423	56
1	2730	1006.504692764602	56
1	2731	1006.860498540383	56
1	2733	1007.171764066066	56
1	2734	1008.649177221016	56
1	2735	1009.257336315744	55
1	2737	1009.468162483341	55
1	2738	1010.671297413942	55
1	2739	1010.683491737569	54
1	2743	1013.358898244322	53
1	2745	1014.220737149567	53
1	2753	1019.181529062283	54
1	2755	1020.053299067683	55
1	2757	1020.35778740309	56
1	2761	1022.767116014084	56
1	2765	1023.476718868838	55
1	2777	1026.705151980258	55
1	2779	1026.850712541702	56
1	2783	1029.167230479743	57
1	2785	1029.23105822923	58
1	2786	1029.500605663069	58
1	2793	1031.032129489982	58
1	2795	1031.673142448882	59
1	2801	1036.900157853952	60
1	2803	1036.960034713357	61
1	2804	1037.019797592971	61
1	2808	1038.417506870379	60
1	2814	1040.925300446403	60
1	2820	1042.342698432724	60
1	2821	1042.740950543276	59
1	2826	1044.734455606275	59
1	2828	1045.641013896601	60
1	2829	1045.766743294059	60
1	2831	1047.22343154395	60
1	2833	1047.877130875335	61
1	2835	1048.044545210028	62
1	2837	1048.72412339904	63
1	2838	1049.083337533349	63
1	2840	1049.552000101624	63
1	2842	1049.565778294632	64
1	2843	1049.584808904722	64
1	2844	1049.617693548548	63
1	2845	1050.330161227783	62
1	2846	1050.778648557463	61
1	2847	1051.528095277977	60
1	2848	1051.76458994116	59
1	2850	1053.193126402357	59
1	2851	1053.457110970203	59
1	2852	1053.910972025108	58
1	2853	1054.76346406719	57
1	2855	1056.086467197489	57
1	2856	1056.548759400757	57
1	2857	1057.160432233558	56
1	2861	1058.869566241001	55
1	2871	1061.321770386018	54
1	2872	1061.438180337892	53
1	2880	1062.313263087967	53
1	2881	1062.433078368331	53
1	2885	1063.836823397382	52
1	2892	1065.816180860902	52
1	2902	1069.547228720708	53
1	2909	1070.943352640124	54
1	2910	1070.997960045786	54
1	2915	1076.002250675912	54
1	2917	1076.416661865795	55
1	2921	1077.997657396251	55
1	2922	1078.05844728806	54
1	2923	1078.371648051106	53
1	2925	1078.917044875502	53
1	2926	1079.112504175826	53
1	2928	1080.719501436779	53
1	2929	1080.87583813151	53
1	2931	1081.152852375052	53
1	2936	1082.189273144724	54
1	2945	1083.564329907429	55
1	2949	1083.793590330244	56
1	2951	1083.987799495437	57
1	2953	1084.759140094631	58
1	2954	1084.863258212938	58
1	2955	1085.922664169773	57
1	2956	1086.517761753648	56
1	2958	1087.056343727867	56
1	2959	1087.305390639093	56
1	2960	1087.684001177483	55
1	2962	1087.858916958873	55
1	2964	1087.942352827835	56
1	2971	1089.414919825584	56
1	2972	1091.433824246457	55
1	2973	1093.001927442742	54
1	2978	1093.610018253502	54
1	2979	1094.419635197769	54
1	2981	1094.64174635387	54
1	2982	1094.694009116193	54
1	2987	1095.49875374119	54
1	2988	1095.652683789306	54
1	2990	1095.679073471638	54
1	2991	1095.694627795907	54
1	2995	1098.340412605967	53
1	2997	1099.534404288323	53
1	2998	1101.070569287224	53
1	3002	1103.020228590173	52
1	3003	1103.031909600918	51
1	3005	1103.045983005679	51
1	3007	1103.164847976474	52
1	3009	1104.569690021962	53
1	3013	1105.209614737846	54
1	3015	1105.593076097157	54
1	3016	1105.970463123882	53
1	3017	1106.45979227192	52
1	3018	1109.300546135714	51
1	3020	1109.349386387453	51
1	3022	1110.660624080272	52
1	3036	1112.745226134134	53
1	3040	1113.724616893428	54
1	3042	1113.799741066836	55
1	3048	1115.76337114838	56
1	3050	1115.988055345854	57
1	3054	1118.353205362159	57
1	3056	1118.66539516466	57
1	3058	1119.829431497908	58
1	3063	1123.838101993582	59
1	3068	1125.03800057416	60
1	3084	1127.695294425325	60
1	3088	1128.406396882435	60
1	3091	1129.925296096163	61
1	3095	1131.276050214194	62
1	3100	1134.553882777587	62
1	3110	1139.885142022068	62
1	3113	1140.367765267047	63
1	3117	1142.016216936436	63
1	3118	1142.987621488522	62
1	3128	1144.135508190522	62
1	3139	1148.691837879352	62
1	3147	1151.360686121973	62
1	3148	1151.450710101909	62
1	3152	1154.07623264304	61
1	3154	1154.865981693627	61
1	3155	1155.807255386009	61
1	3156	1157.596324142481	60
1	3158	1157.919230686625	60
1	3165	1159.996820187639	60
1	3170	1160.817979789119	60
1	3171	1161.18459013131	60
1	3176	1161.717171927774	60
1	3177	1161.78995474859	60
1	3179	1161.883892565592	60
1	3181	1163.088266351829	61
1	3183	1163.242600248237	62
1	3185	1163.790034812336	63
1	3186	1164.670850984306	63
1	3190	1165.188393684145	62
1	3194	1167.300156644668	61
1	3201	1168.606365463323	60
1	3202	1170.550858009567	59
1	3203	1171.031575290392	58
1	3204	1172.14260284315	57
1	3208	1174.716009312613	56
1	3209	1174.960648700838	55
1	3211	1175.794062011439	55
1	3213	1176.159291372144	56
1	3229	1180.403367977728	57
1	3231	1181.002829556866	57
1	3232	1181.073281415226	56
1	3237	1181.287237823345	56
1	3243	1182.782311890415	57
1	3247	1183.290332035707	58
1	3249	1183.334980759729	59
1	3250	1184.405443039129	59
1	3257	1187.385251784578	58
1	3259	1188.257164766343	58
1	3260	1188.920966021017	58
1	3261	1189.035938296271	57
1	3262	1189.43322410711	56
1	3263	1190.464605912583	55
1	3265	1193.077012933627	55
1	3266	1193.600585270969	55
1	3270	1195.152932030478	54
1	3272	1195.233834085457	54
1	3274	1195.768039779583	55
1	3276	1195.968341424251	56
1	3277	1196.150461588343	56
1	3279	1196.534765070558	56
1	3283	1197.916829841056	56
1	3285	1198.484834597511	56
1	3292	1201.115687290151	56
1	3293	1202.738780570038	55
1	3294	1202.9459126766	54
1	3296	1203.360032677397	54
1	3301	1203.826157164317	55
1	3305	1207.956637172206	55
1	3306	1208.377598359875	54
1	3308	1208.669861589623	54
1	3309	1208.711370576967	54
1	3311	1209.272724899436	54
1	3312	1209.310239481177	54
1	3314	1209.346340820876	54
1	3316	1209.494543291284	55
1	3324	1211.555366077638	56
1	3325	1211.886590840356	56
1	3326	1212.665251274804	55
1	3328	1214.311769512839	55
1	3330	1216.018727491377	56
1	3332	1216.38272676182	57
1	3337	1217.765137908695	58
1	3339	1218.051093442079	59
1	3340	1219.102351045478	59
1	3341	1220.728524161112	58
1	3342	1220.90733480919	57
1	3343	1221.136319061373	56
1	3344	1221.228206330425	55
1	3351	1221.501294624759	55
1	3353	1221.980582338318	55
1	3355	1223.62220172486	55
1	3357	1224.964447356328	56
1	3366	1225.735749344739	57
1	3371	1226.890871945712	58
1	3375	1229.335430521503	59
1	3379	1231.438161431299	59
1	3380	1232.872077898123	58
1	3381	1232.880585826475	57
1	3391	1236.623153182476	56
1	3401	1238.235034269546	56
1	3403	1238.376576390545	57
1	3406	1238.589799493451	58
1	3408	1239.420500676871	59
1	3409	1241.167095001564	59
1	3410	1243.477911577574	58
1	3411	1246.09762642109	57
1	3413	1248.019210186071	57
1	3418	1248.649629039855	58
1	3420	1248.990987961677	59
1	3421	1249.755865869373	59
1	3422	1252.093962540714	58
1	3423	1253.145313655818	57
1	3427	1255.468665103017	56
1	3428	1255.744203768413	55
1	3429	1255.826724750439	54
1	3430	1255.970752521941	53
1	3444	1260.4825260306	53
1	3448	1262.478930023794	53
1	3450	1262.65424087193	53
1	3451	1263.333797264227	53
1	3455	1265.015046913005	53
1	3457	1265.339775672175	54
1	3459	1266.215395408343	54
1	3464	1269.039438960787	54
1	3469	1270.090991627902	55
1	3471	1270.360846091083	56
1	3472	1270.521261187386	56
1	3477	1272.237774573141	56
1	3479	1272.383261423839	57
1	3480	1272.568930827956	57
1	3482	1273.288975278742	57
1	3492	1276.133419600187	57
1	3494	1277.525877355004	57
1	3496	1278.003891480264	58
1	3498	1278.953544613469	59
1	3499	1280.97026723751	59
1	3500	1281.1367460093	58
1	3501	1283.670956548615	57
1	3502	1284.768412615178	56
1	3503	1285.236238797051	55
1	3505	1285.704731052672	55
1	3507	1287.58466416448	56
1	3511	1290.763451603526	56
1	3513	1290.977048018306	56
1	3515	1291.201941971147	57
1	3517	1291.85282637554	58
1	3519	1293.545878225489	59
1	3521	1293.584077804998	60
1	3523	1295.600376766637	61
1	3525	1296.058312497816	62
1	3527	1297.850003890907	63
1	3528	1297.90057758523	63
1	3530	1297.991708925866	63
1	3531	1298.008174055353	63
1	3533	1298.193189258868	63
1	3534	1298.871115387102	63
1	3535	1300.431052595517	62
1	3539	1301.360770034509	62
1	3541	1302.842407645072	62
1	3542	1302.892094867364	61
1	3546	1303.568012179181	61
1	3569	1311.086427581885	62
1	3571	1311.763484345457	62
1	3572	1311.992586280585	61
1	3573	1312.235822691086	60
1	3574	1312.477049819897	59
1	3576	1312.747857872926	59
1	3577	1313.976743511302	59
1	3579	1314.024945036934	59
1	3580	1314.121454215718	59
1	3587	1315.132023776648	59
1	3590	1316.314947934923	60
1	3591	1316.925962102635	60
1	3593	1319.558883634295	60
1	3594	1320.167092288942	60
1	3600	1321.371470893147	60
1	3602	1322.416950374639	61
1	3612	1324.47014557632	62
1	3613	1325.147451917609	62
1	3615	1326.375310261322	62
1	3616	1326.899760108137	62
1	3620	1328.115957125801	61
1	3621	1328.577958425521	60
1	3622	1329.126793511025	59
1	3627	1329.884863860278	59
1	3629	1330.193310569045	60
1	3630	1330.382663939953	60
1	3632	1330.820786597878	60
1	3642	1333.963836644211	60
1	3643	1334.421553058323	59
1	3644	1335.802712421016	58
1	3648	1336.54323484218	57
1	3656	1339.597922164542	57
1	3658	1339.83208634665	58
1	3659	1339.88175380278	58
1	3663	1341.774087394067	57
1	3664	1341.812548149707	56
1	3665	1342.280249491304	55
1	3666	1342.280393420376	54
1	3683	1345.167528880844	54
1	3687	1347.356363438418	54
1	3691	1347.457660960519	54
1	3693	1347.992081313905	54
1	3697	1348.637221907631	54
1	3700	1349.875491308839	55
1	3701	1351.949166055346	55
1	3703	1352.517812160166	55
1	3705	1352.815849522706	56
1	3706	1352.832249349298	56
1	3707	1353.55845872584	55
1	3715	1354.790782405591	55
1	3716	1355.264328876803	55
1	3720	1355.976367298098	54
1	3721	1357.230106326367	53
1	3723	1358.498043016736	53
1	3724	1359.580730427834	53
1	3726	1359.958698878968	53
1	3727	1362.840024751059	53
1	3729	1363.606033136848	53
1	3734	1364.937249485466	54
1	3735	1365.121643264325	54
1	3736	1365.184364146481	53
1	3743	1367.127686950996	52
1	3744	1367.814711164281	51
1	3746	1367.949286816666	51
1	3747	1368.161933269819	51
1	3748	1368.30670335244	50
1	3749	1370.397667893614	49
1	3750	1370.871303724449	48
1	3752	1370.880505289564	48
1	3753	1371.456513291148	48
1	3755	1372.195439168488	48
1	3759	1373.084652256678	48
1	3764	1374.412517067456	48
1	3766	1374.573478247733	49
1	3768	1376.100962368306	50
1	3769	1376.120028118067	50
1	3771	1376.229705626596	50
1	3773	1376.486242564718	51
1	3774	1376.820783033188	51
1	3775	1377.508615161437	50
1	3786	1382.576861679924	50
1	3787	1383.256963662722	50
1	3792	1384.465982377277	50
1	3796	1386.567174619296	50
1	3804	1388.856467103817	50
1	3805	1389.566983106238	50
1	3813	1392.67455771368	50
1	3820	1394.66661683405	51
1	3824	1395.95289033946	52
1	3834	1397.13765453121	53
1	3848	1400.207510046513	54
1	3850	1400.424757550066	55
1	3851	1400.892509167912	55
1	3855	1402.187325428009	55
1	3858	1403.171723806811	56
1	3859	1403.23278311267	56
1	3861	1403.396661464235	56
1	3862	1403.982403615892	56
1	3863	1405.50400949889	55
1	3864	1405.975795197412	54
1	3871	1409.519331162111	53
1	3872	1409.842303053749	52
1	3873	1410.037672760449	51
1	3877	1410.676233375575	50
1	3885	1412.459524695003	50
1	3886	1412.579721928268	50
1	3894	1415.543904749255	50
1	3901	1417.630338896112	51
1	3907	1419.348929333425	52
1	3917	1426.378927780831	53
1	3919	1426.657796440932	53
1	3920	1427.204267745517	52
1	3921	1427.951031860169	51
1	3922	1428.106703003077	50
1	3923	1428.442682585981	49
1	3924	1428.640238972942	48
1	3926	1429.779976125815	48
1	3927	1429.833867262187	48
1	3928	1430.898734759552	47
1	3930	1431.831183165285	47
1	3932	1432.096745669494	48
1	3933	1432.196441162496	48
1	3935	1432.218214810184	48
1	3942	1433.750624151712	48
1	3943	1435.409796426074	47
1	3944	1436.562369848775	46
1	3946	1436.651841404358	46
1	3947	1437.501121749096	46
1	3949	1437.651547734401	46
1	3954	1438.648740070532	47
1	3959	1439.90110265861	48
1	3963	1440.235445728586	48
1	3965	1440.565098166741	48
1	3966	1440.843622067164	48
1	3967	1443.759806599749	47
1	3968	1443.848295921553	46
1	3975	1445.405332201289	45
1	3977	1446.635461953987	45
1	3979	1447.091723268944	46
1	3980	1448.170003074434	46
1	3981	1448.516833211282	45
1	3983	1449.690357853107	45
1	3984	1453.955026608462	45
1	3991	1456.394296482655	45
1	3994	1456.844925260963	46
1	3995	1456.922527683139	46
1	3996	1457.351380141252	45
1	3998	1458.561101224898	45
1	4000	1458.563044708928	46
1	4001	1458.884236918573	46
1	4005	1461.302480708616	46
1	4010	1463.99979627366	46
1	4011	1464.153147393594	45
1	4013	1464.178824794061	45
1	4014	1464.513955203065	45
1	4037	1472.009269832045	45
1	4042	1472.375301196874	46
1	4044	1472.788522172749	47
1	4049	1475.391078127137	48
1	4051	1475.568805059012	49
1	4052	1475.863194614339	49
1	4053	1476.136638875893	48
1	4054	1477.405967959501	47
1	4056	1478.657451805436	47
1	4062	1479.224105407107	48
1	4071	1485.271143187646	48
1	4073	1485.826814368694	48
1	4075	1487.073197912826	49
1	4076	1487.380387054203	49
1	4086	1493.370438573661	48
1	4087	1493.56124310005	47
1	4088	1493.966818460363	46
1	4090	1494.472120152105	46
1	4092	1495.324224720946	47
1	4094	1497.033278049742	48
1	4095	1497.072487817142	48
1	4097	1498.917758174077	48
1	4099	1499.0604960689	49
1	4100	1499.555657310777	49
1	4101	1499.975757242467	48
1	4105	1501.641673001805	47
1	4107	1501.645795967384	47
1	4112	1504.378602368281	48
1	4116	1505.57516578738	49
1	4118	1506.709157020436	49
1	4122	1507.07835170586	48
1	4124	1507.58479896075	48
1	4126	1508.210118756632	49
1	4128	1508.53787274432	50
1	4129	1509.962418042085	50
1	4139	1513.982249530581	50
1	4141	1514.594487144096	50
1	4142	1516.328154375694	49
1	4150	1519.746657788028	49
1	4151	1520.279368580154	49
1	4152	1521.462113250744	48
1	4156	1522.487269313129	47
1	4158	1522.84874361029	47
1	4162	1523.081065480085	48
1	4166	1523.523582357127	49
1	4172	1525.394312453564	50
1	4177	1528.036477294269	50
1	4179	1528.144217021489	50
1	4184	1529.43754244164	51
1	4191	1530.771315881803	51
1	4192	1533.643353116269	50
1	4193	1533.815379033134	49
1	4195	1534.023271021835	49
1	4197	1534.044087569875	50
1	4199	1534.742696454488	51
1	4212	1536.422902615758	52
1	4215	1537.1533843112	53
1	4217	1537.212102967688	54
1	4219	1537.310000481683	55
1	4221	1537.506586884307	56
1	4223	1538.282181097462	57
1	4228	1539.894072582713	58
1	4230	1540.754305433382	59
1	4231	1542.162548963184	59
1	4233	1542.274036636409	59
1	4240	1544.303206696014	60
1	4243	1546.648260864429	61
1	4248	1549.081298824663	62
1	4249	1549.09212616635	62
1	4250	1552.322616147325	61
1	4252	1552.692840070876	61
1	4253	1552.841183450848	61
1	4258	1553.439349101987	61
1	4259	1556.06363601047	61
1	4260	1556.152108037263	60
1	4264	1557.007403043955	60
1	4266	1557.069357936206	61
1	4271	1557.98260028368	62
1	4274	1559.455013339157	63
1	4278	1559.931728983391	63
1	4280	1560.317156323139	63
1	4281	1560.629518286134	63
1	4283	1560.694962565963	63
1	4290	1562.835229150228	63
1	4291	1563.042155029949	62
1	4293	1564.012412845247	62
1	4294	1564.192350710591	62
1	4298	1566.016968321454	61
1	4299	1566.142635354873	60
1	4304	1566.894446884589	60
1	4305	1568.109818315465	60
1	4307	1569.781400613173	60
1	4309	1570.547864909485	61
1	4313	1571.573972712091	62
1	4315	1572.822485540614	62
1	4322	1574.216502695283	62
1	4324	1576.712846604911	62
1	4326	1576.88244792217	62
1	4330	1577.882119717472	63
1	4332	1579.1947516929	63
1	4333	1580.948780894699	62
1	4335	1581.464752895179	62
1	4336	1581.472164013322	62
1	4338	1582.360407320146	62
1	4339	1583.488510857353	62
1	4341	1584.2996869559	62
1	4346	1585.581799464097	63
1	4348	1587.402173324544	64
1	4349	1589.198867095668	64
1	4351	1589.594686594283	64
1	4357	1590.21839960825	65
1	4360	1591.279011560293	65
1	4361	1591.704419951883	64
1	4362	1591.988302767552	63
1	4364	1592.468085649004	63
1	4365	1592.473258159711	63
1	4366	1593.758828507941	62
1	4370	1595.836050915022	62
1	4372	1597.208571893104	62
1	4373	1597.262496455972	61
1	4375	1597.715945358476	61
1	4376	1597.885304961472	61
1	4378	1600.394262575229	61
1	4389	1603.021527831977	62
1	4390	1603.876170676987	62
1	4392	1604.272540334906	62
1	4394	1604.298991584133	63
1	4402	1606.132036409388	64
1	4406	1609.704128770762	64
1	4407	1609.879006230544	63
1	4408	1610.094727922437	62
1	4410	1611.737500546477	62
1	4412	1611.765600757919	63
1	4413	1612.205350266791	63
1	4421	1616.052142478204	63
1	4422	1617.628859151303	63
1	4427	1620.363440717534	63
1	4428	1620.604822608006	63
1	4429	1622.090588857251	62
1	4431	1623.20368425612	62
1	4433	1623.435358384412	63
1	4434	1623.86362816813	63
1	4435	1624.229356539439	62
1	4437	1624.368235762675	62
1	4444	1627.445045063163	62
1	4448	1628.833072284455	61
1	4450	1630.020324135356	61
1	4451	1630.395904403626	61
1	4452	1630.499708862708	60
1	4453	1630.831317931292	59
1	4455	1631.427028352154	59
1	4457	1631.486196080716	60
1	4458	1631.715413778317	60
1	4462	1633.579055746875	60
1	4471	1636.109324325248	61
1	4479	1640.262680336828	62
1	4484	1643.217410784043	63
1	4486	1644.076888573388	64
1	4487	1644.278756535847	64
1	4489	1645.061126165193	64
1	4491	1645.767101247399	65
1	4492	1646.216899080822	65
1	4494	1646.988876460007	65
1	4495	1647.28637833717	65
1	4497	1647.521854957328	65
1	4498	1648.136073455452	65
1	4500	1649.022106151025	65
1	4508	1650.634792295689	66
1	4512	1651.893160722132	67
1	4514	1652.196947763129	68
1	4517	1652.527280730725	69
1	4519	1653.108801976379	70
1	4520	1654.854576212027	70
1	4521	1654.929355142422	69
1	4523	1656.669786525387	69
1	4525	1657.300300359892	70
1	4526	1658.13942137765	70
1	4537	1661.589586675476	70
1	4538	1662.783798934472	70
1	4539	1663.539884076498	69
1	4541	1664.534517719687	69
1	4550	1669.923835334863	70
1	4552	1669.968747563674	71
1	4561	1672.138371595352	71
1	4566	1673.445504769971	71
1	4568	1673.96937148024	72
1	4587	1679.204764448606	72
1	4589	1679.442400227573	72
1	4591	1679.918382994261	73
1	4599	1681.516653490494	74
1	4601	1681.758607213953	75
1	4606	1684.123517714362	76
1	4610	1687.501631086075	76
1	4611	1688.494347135165	75
1	4613	1688.93944593987	75
1	4617	1690.455874105791	76
1	4619	1692.031787292224	76
1	4624	1692.89312473319	76
1	4628	1693.079750504066	77
1	4631	1694.512978579668	78
1	4636	1695.086983113126	79
1	4637	1696.106211140302	79
1	4639	1696.969757388954	79
1	4640	1697.069483213348	79
1	4642	1697.791685449359	79
1	4647	1698.55979289534	80
1	4648	1699.514942632515	80
1	4652	1700.686403790671	79
1	4654	1700.732745892804	79
1	4664	1703.272626169313	79
1	4665	1704.245373003176	78
1	4667	1704.475699277287	78
1	4668	1706.684934933668	78
1	4672	1707.654957898785	78
1	4674	1707.879348832889	78
1	4675	1710.539403026121	77
1	4680	1711.848889887147	77
1	4681	1712.414677887704	77
1	4682	1712.591136993272	76
1	4683	1713.06146199025	75
1	4690	1716.674693581612	75
1	4692	1717.875379685302	75
1	4693	1718.116605517497	74
1	4695	1720.504841018147	74
1	4700	1722.405985912716	75
1	4702	1722.860394510557	76
1	4706	1723.0204628504	76
1	4708	1724.295787241299	76
1	4709	1724.478999306498	76
1	4711	1724.867682473531	76
1	4712	1724.903636325162	76
1	4713	1726.232714948834	75
1	4714	1727.414326560942	74
1	4719	1728.982864117518	74
1	4721	1728.998991054201	75
1	4722	1730.675921997936	75
1	4726	1735.629726403728	74
1	4728	1735.850429306903	74
1	4729	1737.791375600665	74
1	4730	1738.216120448268	73
1	4732	1740.016743503472	73
1	4733	1742.442248015558	73
1	4740	1744.103729396829	73
1	4742	1744.211725990063	74
1	4745	1745.13611744035	75
1	4747	1745.575166398005	76
1	4748	1746.853678795963	76
1	4750	1747.029199324533	76
1	4752	1747.868907268791	77
1	4754	1748.295084840509	78
1	4756	1748.316625285906	79
1	4757	1749.288743113437	79
1	4759	1749.303113354725	79
1	4764	1750.434850503899	80
1	4765	1750.920511942571	80
1	4766	1752.652350131033	79
1	4768	1752.877019075826	79
1	4770	1753.362827434846	80
1	4771	1755.012109087438	80
1	4772	1755.132845214407	79
1	4779	1756.364193990502	79
1	4784	1758.171930039287	80
1	4786	1758.588763824991	80
1	4788	1758.85035814445	80
1	4793	1761.695777590968	81
1	4795	1761.748006654644	82
1	4800	1766.590626330745	83
1	4802	1767.393167835236	84
1	4803	1767.833625669914	84
1	4804	1767.999606385047	83
1	4806	1768.293605319699	83
1	4811	1768.961154237102	84
1	4812	1769.937846067431	84
1	4814	1770.915492069268	84
1	4816	1771.075846527731	85
1	4817	1771.533929945678	85
1	4819	1771.584640452912	85
1	4821	1771.916266542155	86
1	4822	1772.261712301807	86
1	4827	1772.748969195289	86
1	4828	1773.098379374508	86
1	4833	1773.729152260632	86
1	4835	1774.629125832062	87
1	4839	1775.5932087084	88
1	4848	1777.499595458805	89
1	4849	1778.689837007994	89
1	4851	1780.645084840406	89
1	4852	1782.663933045591	89
1	4853	1783.878473831654	88
1	4854	1784.296306272427	87
1	4859	1785.759194330387	87
1	4864	1786.624290072895	88
1	4869	1789.576354228735	89
1	4871	1790.388793915329	90
1	4872	1790.451839363084	90
1	4873	1790.962507719052	89
1	4875	1790.986442484287	89
1	4877	1791.542414982348	90
1	4878	1792.939961555684	90
1	4880	1794.094762595806	90
1	4881	1794.1176281232	90
1	4882	1794.168129693985	89
1	4884	1794.975992105311	89
1	4886	1795.113205493767	90
1	4887	1795.75151197612	90
1	4888	1796.077790426091	89
1	4890	1797.241656773368	89
1	4891	1798.768757833072	89
1	4892	1801.336741291339	88
1	4896	1803.097146526687	87
1	4898	1803.104619450726	87
1	4899	1803.766957711331	87
1	4900	1803.884454657976	86
1	4902	1804.214830425596	86
1	4903	1804.937606032096	86
1	4907	1806.462440027463	85
1	4909	1807.789155827477	85
1	4913	1808.591184258933	86
1	4916	1809.223058783651	87
1	4918	1809.372235678621	88
1	4920	1811.259040858229	89
1	4922	1811.327815449299	90
1	4926	1814.028966712712	91
1	4929	1815.279921781568	92
1	4933	1815.578369221214	93
1	4935	1816.335387765881	94
1	4940	1817.747538732732	94
1	4942	1818.159168592587	94
1	4944	1818.182947856263	95
1	4945	1818.25617707471	95
1	4949	1818.816542077163	94
1	4951	1818.836475534461	94
1	4952	1819.164729272422	94
1	4957	1822.322772482549	94
1	4961	1822.829335132874	94
1	4962	1824.623842853297	93
1	4964	1824.680090165992	93
1	4969	1826.506460896204	94
1	4971	1826.775114381121	95
1	4975	1827.8270798848	95
1	4977	1828.955215580192	95
1	4979	1829.558395596417	96
1	4981	1830.510245324304	97
1	4983	1830.551012358132	98
1	4988	1832.378508420856	99
1	4990	1832.88546208838	100
1	4995	1834.059079806408	101
1	4996	1834.401911547108	101
1	5001	1835.013419520234	101
1	5002	1835.255180986997	101
1	5006	1836.074045737559	101
1	5008	1839.10521893193	101
1	5009	1839.175754526619	100
1	5011	1840.21284078633	100
1	5012	1841.058931891885	100
1	5014	1841.122566663616	100
1	5015	1841.189804351072	100
1	5016	1842.192374698011	99
1	5020	1843.631481560658	98
1	5021	1844.333355675323	97
1	5025	1844.577298517423	97
1	5032	1845.091540514213	98
1	5047	1854.597086296778	98
1	5049	1855.487206445195	98
1	5050	1855.754507021368	98
1	5052	1856.628655691513	98
1	5054	1856.64995238422	99
1	5062	1860.31868549198	100
1	5064	1860.334477358354	101
1	5065	1860.372986765124	101
1	5066	1860.772957641384	100
1	5070	1860.813342819551	100
1	5072	1861.444717810772	101
1	5086	1865.335635381255	101
1	5091	1866.749344161744	101
1	5095	1869.130087351	102
1	5097	1871.277528076762	102
1	5104	1873.842837347361	101
1	5106	1874.696105465085	101
1	5110	1877.099031483081	102
1	5113	1877.899740830553	103
1	5114	1878.84797022058	103
1	5116	1878.916582794291	103
1	5117	1881.16679498588	103
1	5118	1882.638622397531	102
1	5123	1883.458988945907	102
1	5128	1884.924012452014	103
1	5129	1885.614678980675	103
1	5133	1886.44962068911	102
1	5134	1886.884337289911	101
1	5135	1887.249620183948	100
1	5137	1888.183742214053	100
1	5141	1888.879390730415	100
1	5145	1890.398839776382	99
1	5146	1890.621819916718	98
1	5148	1891.757021572128	98
1	5149	1892.071650966471	98
1	5151	1892.616436214555	98
1	5156	1894.296366039813	99
1	5157	1895.038452357731	99
1	5158	1896.300601778899	98
1	5160	1896.586385991772	98
1	5162	1897.153417077066	99
1	5164	1898.671341295068	100
1	5166	1899.859568070156	101
1	5167	1899.874241071296	101
1	5169	1900.250470870791	101
1	5170	1900.629015018593	101
1	5174	1901.308723044625	100
1	5175	1901.515737569691	99
1	5177	1903.812575665065	99
1	5183	1904.196192283086	100
1	5185	1904.246511813379	101
1	5188	1904.923111342516	101
1	5189	1905.071253599251	100
1	5191	1905.66218302547	100
1	5193	1905.850632164882	101
1	5194	1905.999769682624	101
1	5195	1906.446686303144	100
1	5197	1906.512346862991	100
1	5201	1906.678388706957	100
1	5202	1906.755742381629	99
1	5207	1908.917741207491	99
1	5208	1910.179597621341	99
1	5209	1912.031619130465	98
1	5213	1912.721156035451	97
1	5218	1914.123971115624	97
1	5222	1914.273465475547	98
1	5226	1914.650216225701	99
1	5229	1915.756717322315	99
1	5230	1916.20104719994	98
1	5231	1916.368737936758	97
1	5238	1917.416266306452	97
1	5243	1917.831092455851	98
1	5245	1918.600009693387	98
1	5247	1919.764644830582	98
1	5251	1921.054777814777	98
1	5256	1923.069717988111	98
1	5257	1924.306642880665	98
1	5259	1924.50312400476	98
1	5260	1925.515042406036	98
1	5261	1926.032916132768	97
1	5262	1926.800049627203	96
1	5263	1927.368008476091	95
1	5264	1927.591709356413	94
1	5271	1930.623613994592	93
1	5273	1931.285418600735	93
1	5274	1931.866164862943	93
1	5276	1932.463737285614	93
1	5278	1932.813910016825	94
1	5282	1933.580117753438	95
1	5285	1933.72724618141	96
1	5286	1933.864651367634	96
1	5290	1935.896593297981	95
1	5291	1936.155398599554	94
1	5292	1939.443167620412	93
1	5293	1940.881125607872	92
1	5297	1942.008647743158	91
1	5299	1942.049910123286	91
1	5301	1944.463153870603	92
1	5303	1945.476147598903	93
1	5304	1947.403857122887	93
1	5306	1947.503823832503	93
1	5308	1947.844344693883	94
1	5310	1949.542429720889	95
1	5311	1950.199073962899	95
1	5312	1950.524013829849	94
1	5313	1951.662992409043	93
1	5314	1951.882972782335	92
1	5316	1952.491682916748	92
1	5320	1954.878955304944	92
1	5322	1955.793759262946	92
1	5326	1957.435054585823	92
1	5328	1957.505789616702	92
1	5330	1958.546267746429	93
1	5332	1960.134089953951	94
1	5333	1961.163015886995	94
1	5335	1962.312324595005	94
1	5336	1962.378819769444	94
1	5338	1963.134094288848	94
1	5342	1964.617959323626	94
1	5343	1964.744131111453	93
1	5344	1966.02790690633	92
1	5345	1966.381547727016	91
1	5347	1966.534859596518	91
[...]
10	2642	971.042164577747	80.193414748047
10	2643	972.964235658161	79.879480025069
10	2644	974.090391153821	80.851289167973
10	2645	974.532547905682	80.931948767227
10	2648	975.522256536859	80.318453549681
10	2654	978.222520694928	80.126094532632
10	2655	978.642952673606	80.304417163602
10	2658	979.331809666632	80.836613852497
10	2659	979.544057870328	79.793342947146
10	2662	979.998464944523	79.478965242781
10	2663	980.25820182336	78.246570532639
10	2680	984.477461268115	79.140118061097
10	2685	986.708653910134	76.633507461905
10	2691	988.482079528863	76.895323868896
10	2692	988.538255279897	76.730006990665
10	2693	990.410890035964	76.404641450793
10	2694	991.727624205236	77.560829123223
10	2707	994.458388615522	78.21441162399
10	2708	994.710901288409	77.143042992807
10	2714	997.21123174133	77.86316455241
10	2725	1003.307781716365	80.99489826526
10	2726	1004.281260466548	80.478322187107
10	2727	1004.758585592907	80.34444285432
10	2728	1005.456791770423	78.458627931372
10	2731	1006.860498540383	79.261891061898
10	2734	1008.649177221016	80.230228833849
10	2735	1009.257336315744	78.105381563996
10	2738	1010.671297413942	77.467305363029
10	2739	1010.683491737569	76.614249028363
10	2743	1013.358898244322	76.666415206422
10	2761	1022.767116014084	81.205449099928
10	2765	1023.476718868838	80.800401835051
10	2786	1029.500605663069	85.467537910259
10	2804	1037.019797592971	84.331079261927
10	2808	1038.417506870379	84.461543747895
10	2820	1042.342698432724	84.150231443385
10	2821	1042.740950543276	84.29906727013
10	2829	1045.766743294059	82.762285519992
10	2838	1049.083337533349	83.921512975394
10	2843	1049.584808904722	83.465584678916
10	2844	1049.617693548548	83.389068766278
10	2845	1050.330161227783	83.278912654015
10	2846	1050.778648557463	82.602659036945
10	2847	1051.528095277977	81.525071377634
10	2848	1051.76458994116	81.344040000636
10	2851	1053.457110970203	78.486203787412
10	2852	1053.910972025108	77.282004582618
10	2853	1054.76346406719	77.968539471673
10	2856	1056.548759400757	77.743609872083
10	2857	1057.160432233558	77.483130077892
10	2861	1058.869566241001	77.737606908755
10	2871	1061.321770386018	74.906643052156
10	2872	1061.438180337892	74.97313074008
10	2881	1062.433078368331	70.476606573608
10	2885	1063.836823397382	71.232859255433
10	2910	1070.997960045786	74.212821352335
10	2921	1077.997657396251	76.052092484601
10	2922	1078.05844728806	75.634354814248
10	2923	1078.371648051106	71.866955286504
10	2926	1079.112504175826	71.94074010976
10	2929	1080.87583813151	71.407675648169
10	2954	1084.863258212938	66.408212701278
10	2955	1085.922664169773	66.74113510749
10	2956	1086.517761753648	66.464462685965
10	2959	1087.305390639093	66.947603236003
10	2960	1087.684001177483	65.914446091278
10	2971	1089.414919825584	62.709767845326
10	2972	1091.433824246457	64.583111704755
10	2973	1093.001927442742	63.834696962999
10	2979	1094.419635197769	64.655740193841
10	2982	1094.694009116193	63.661879626211
10	2988	1095.652683789306	58.752525935354
10	2991	1095.694627795907	58.73459308255
10	2995	1098.340412605967	59.106407082193
10	2998	1101.070569287224	60.145268840821
10	3002	1103.020228590173	58.285772983898
10	3003	1103.031909600918	57.390895704317
10	3015	1105.593076097157	57.715945221822
10	3016	1105.970463123882	57.925917913854
10	3017	1106.45979227192	57.73566887288
10	3018	1109.300546135714	59.74854603409
10	3054	1118.353205362159	57.696258902113
10	3084	1127.695294425325	64.216335829815
10	3100	1134.553882777587	66.047554373444
10	3117	1142.016216936436	65.599555070641
10	3118	1142.987621488522	66.460762265273
10	3139	1148.691837879352	66.502564734628
10	3148	1151.450710101909	67.88638019448
10	3152	1154.07623264304	70.088433147603
10	3155	1155.807255386009	71.048115291378
10	3156	1157.596324142481	70.539980414614
10	3165	1159.996820187639	72.054467359804
10	3171	1161.18459013131	72.587474504746
10	3177	1161.78995474859	68.179936495088
10	3186	1164.670850984306	70.029104630436
10	3190	1165.188393684145	69.689639942955
10	3194	1167.300156644668	69.868163213017
10	3201	1168.606365463323	65.560382457644
10	3202	1170.550858009567	67.386010033093
10	3203	1171.031575290392	66.46188526843
10	3204	1172.14260284315	67.248420767816
10	3208	1174.716009312613	65.36662292516
10	3209	1174.960648700838	64.300024620566
10	3231	1181.002829556866	68.647164358691
10	3232	1181.073281415226	68.328055281092
10	3250	1184.405443039129	70.605701972293
10	3257	1187.385251784578	71.397196438724
10	3260	1188.920966021017	71.713863706561
10	3261	1189.035938296271	70.370543131611
10	3262	1189.43322410711	69.603792609202
10	3263	1190.464605912583	69.046997129062
10	3266	1193.600585270969	69.762483277387
10	3270	1195.152932030478	70.114931456318
10	3277	1196.150461588343	70.928319789231
10	3283	1197.916829841056	69.510432958621
10	3292	1201.115687290151	70.681656014339
10	3293	1202.738780570038	71.462730355844
10	3294	1202.9459126766	69.164496354963
10	3305	1207.956637172206	68.136016117389
10	3306	1208.377598359875	68.492456337807
10	3309	1208.711370576967	68.34360530992
10	3312	1209.310239481177	68.132547528915
10	3325	1211.886590840356	67.808465750513
10	3326	1212.665251274804	68.529743084282
10	3340	1219.102351045478	72.922421363059
10	3341	1220.728524161112	70.868990170212
10	3342	1220.90733480919	70.625673919867
10	3343	1221.136319061373	69.7756329394
10	3344	1221.228206330425	69.006190634428
10	3353	1221.980582338318	63.137012897164
10	3379	1231.438161431299	69.720989503525
10	3380	1232.872077898123	70.988185332531
10	3381	1232.880585826475	69.792319474646
10	3391	1236.623153182476	71.416743240517
10	3409	1241.167095001564	65.373032990125
10	3410	1243.477911577574	67.31862020543
10	3411	1246.09762642109	69.459796445858
10	3421	1249.755865869373	69.352497891645
10	3422	1252.093962540714	70.89040813194
10	3423	1253.145313655818	71.858075832473
10	3427	1255.468665103017	72.686353212602
10	3428	1255.744203768413	72.453871732706
10	3429	1255.826724750439	72.49174399071
10	3430	1255.970752521941	70.627316140069
10	3448	1262.478930023794	69.401917090167
10	3451	1263.333797264227	69.61908132818
10	3459	1266.215395408343	70.44735562876
10	3472	1270.521261187386	73.268496237061
10	3480	1272.568930827956	72.365891479519
10	3492	1276.133419600187	72.30726243587
10	3499	1280.97026723751	74.076932260864
10	3500	1281.1367460093	72.466884419677
10	3501	1283.670956548615	74.398231649179
10	3502	1284.768412615178	75.422071794302
10	3503	1285.236238797051	75.741695505767
10	3511	1290.763451603526	79.208085525888
10	3528	1297.90057758523	83.588808072391
10	3531	1298.008174055353	81.989446563976
10	3534	1298.871115387102	82.488388625282
10	3535	1300.431052595517	83.819201931522
10	3541	1302.842407645072	84.791314202993
10	3542	1302.892094867364	81.656367848197
10	3571	1311.763484345457	86.027735000718
10	3572	1311.992586280585	85.101714334873
10	3573	1312.235822691086	82.900392169583
10	3574	1312.477049819897	82.78110547477
10	3577	1313.976743511302	80.883056032925
10	3580	1314.121454215718	80.378427372595
10	3591	1316.925962102635	79.815054226598
10	3594	1320.167092288942	82.474177765374
10	3613	1325.147451917609	86.770875527064
10	3616	1326.899760108137	88.309960614686
10	3620	1328.115957125801	80.09674693973
10	3621	1328.577958425521	80.373441339589
10	3622	1329.126793511025	80.47716447117
10	3630	1330.382663939953	75.414747824969
10	3642	1333.963836644211	73.481310613611
10	3643	1334.421553058323	72.965309034207
10	3644	1335.802712421016	73.148471549086
10	3648	1336.54323484218	71.528187929175
10	3659	1339.88175380278	70.842314841993
10	3663	1341.774087394067	71.683095766165
10	3664	1341.812548149707	71.451702058624
10	3665	1342.280249491304	71.742564695244
10	3666	1342.280393420376	70.042618847235
10	3687	1347.356363438418	74.067388159676
10	3693	1347.992081313905	72.060709259554
10	3701	1351.949166055346	73.945274575082
10	3706	1352.832249349298	73.878704735829
10	3707	1353.55845872584	67.853727673168
10	3716	1355.264328876803	64.287280858497
10	3720	1355.976367298098	64.123540922558
10	3721	1357.230106326367	63.684228100878
10	3724	1359.580730427834	65.996652622836
10	3727	1362.840024751059	67.239647984422
10	3735	1365.121643264325	67.271639373418
10	3736	1365.184364146481	67.192655220615
10	3743	1367.127686950996	65.766916916487
10	3744	1367.814711164281	64.281396993102
10	3747	1368.161933269819	64.593921090638
10	3748	1368.30670335244	62.663070491732
10	3749	1370.397667893614	63.907296456265
10	3750	1370.871303724449	63.700604439768
10	3753	1371.456513291148	63.053695326945
10	3759	1373.084652256678	61.998224674793
10	3769	1376.120028118067	62.095083081133
10	3774	1376.820783033188	62.452301009641
10	3775	1377.508615161437	62.376591384789
10	3787	1383.256963662722	62.142716399837
10	3796	1386.567174619296	62.624113192977
10	3805	1389.566983106238	62.256888702598
10	3851	1400.892509167912	70.071722570034
10	3859	1403.23278311267	66.976913609267
10	3862	1403.982403615892	66.878877853308
10	3863	1405.50400949889	67.325518949557
10	3864	1405.975795197412	66.37787303287
10	3871	1409.519331162111	66.812383077836
10	3872	1409.842303053749	64.674774172905
10	3873	1410.037672760449	62.587985086393
10	3877	1410.676233375575	62.462315719067
10	3886	1412.579721928268	60.061909768102
10	3919	1426.657796440932	62.820778792335
10	3920	1427.204267745517	62.267018260051
10	3921	1427.951031860169	62.716529892161
10	3922	1428.106703003077	61.814208529312
10	3923	1428.442682585981	60.493395769315
10	3924	1428.640238972942	57.759733683378
10	3927	1429.833867262187	57.638428093699
10	3928	1430.898734759552	58.554159765611
10	3933	1432.196441162496	58.382792510996
10	3942	1433.750624151712	59.177145903979
10	3943	1435.409796426074	59.308834057768
10	3944	1436.562369848775	60.332664222179
10	3947	1437.501121749096	61.014879184378
10	3963	1440.235445728586	56.800409350027
10	3966	1440.843622067164	56.377639689887
10	3967	1443.759806599749	59.173943545723
10	3968	1443.848295921553	56.322665048136
10	3975	1445.405332201289	56.548865097472
10	3980	1448.170003074434	56.693690854345
10	3981	1448.516833211282	55.842275497602
10	3984	1453.955026608462	60.86594981085
10	3995	1456.922527683139	60.969637343679
10	3996	1457.351380141252	60.213725610042
10	4001	1458.884236918573	58.67672687206
10	4010	1463.99979627366	61.812470845651
10	4011	1464.153147393594	60.981423586783
10	4014	1464.513955203065	61.11729373883
10	4052	1475.863194614339	64.872171413724
10	4053	1476.136638875893	64.380227846782
10	4054	1477.405967959501	64.946443264498
10	4071	1485.271143187646	69.727238438391
10	4076	1487.380387054203	71.35004041805
10	4086	1493.370438573661	74.021509240236
10	4087	1493.56124310005	72.945750215837
10	4088	1493.966818460363	68.742985062312
10	4095	1497.072487817142	70.786918751369
10	4100	1499.555657310777	73.176729529946
10	4101	1499.975757242467	70.195781116652
10	4105	1501.641673001805	69.544927332311
10	4118	1506.709157020436	70.057315616078
10	4122	1507.07835170586	68.912254077112
10	4129	1509.962418042085	71.313677971553
10	4141	1514.594487144096	74.029388977355
10	4142	1516.328154375694	71.388395268617
10	4151	1520.279368580154	73.18764531121
10	4152	1521.462113250744	71.771755397637
10	4156	1522.487269313129	67.052838627258
10	4177	1528.036477294269	69.475376069371
10	4191	1530.771315881803	69.468835173187
10	4192	1533.643353116269	71.060223735345
10	4193	1533.815379033134	69.636554239073
10	4231	1542.162548963184	69.78724776631
10	4249	1549.09212616635	70.434674360914
10	4250	1552.322616147325	73.342488408169
10	4253	1552.841183450848	73.617078043741
10	4259	1556.06363601047	70.236821641776
10	4260	1556.152108037263	69.078910124437
10	4278	1559.931728983391	65.459608831286
10	4281	1560.629518286134	65.305293565188
10	4290	1562.835229150228	63.917470976151
10	4291	1563.042155029949	63.981658961049
10	4294	1564.192350710591	64.053730650518
10	4298	1566.016968321454	63.930027554352
10	4299	1566.142635354873	61.764032986592
10	4305	1568.109818315465	62.534652528085
10	4315	1572.822485540614	65.237686579864
10	4324	1576.712846604911	66.441367578584
10	4332	1579.1947516929	65.626958602127
10	4333	1580.948780894699	66.966531364118
10	4336	1581.472164013322	65.081194737344
10	4339	1583.488510857353	63.741853069325
10	4349	1589.198867095668	66.350123485378
10	4360	1591.279011560293	68.197946080208
10	4361	1591.704419951883	68.180837594756
10	4362	1591.988302767552	67.235160301746
10	4365	1592.473258159711	67.078945706147
10	4366	1593.758828507941	65.614611486452
10	4372	1597.208571893104	67.771029451464
10	4373	1597.262496455972	67.47502118191
10	4376	1597.885304961472	63.862033939637
10	4390	1603.876170676987	69.133474222499
10	4406	1609.704128770762	73.281226155004
10	4407	1609.879006230544	72.725621919344
10	4408	1610.094727922437	72.882624954749
10	4413	1612.205350266791	74.895349785108
10	4422	1617.628859151303	78.000280565058
10	4428	1620.604822608006	79.850517174624
10	4429	1622.090588857251	79.816552220842
10	4434	1623.86362816813	80.600481224999
10	4435	1624.229356539439	79.968031706941
10	4444	1627.445045063163	80.294429464747
10	4448	1628.833072284455	76.140232213579
10	4451	1630.395904403626	77.453221477072
10	4452	1630.499708862708	77.060359760721
10	4453	1630.831317931292	74.431184312742
10	4458	1631.715413778317	74.708010734362
10	4487	1644.278756535847	84.82374319669
10	4492	1646.216899080822	86.51793673594
10	4495	1647.28637833717	86.969222014031
10	4498	1648.136073455452	87.441110889489
10	4520	1654.854576212027	90.315130338866
10	4521	1654.929355142422	88.478719985703
10	4526	1658.13942137765	91.244974493061
10	4538	1662.783798934472	92.235934024987
10	4539	1663.539884076498	92.380060148171
10	4561	1672.138371595352	98.074837049204
10	4587	1679.204764448606	96.84435712846
10	4610	1687.501631086075	101.91983162198
10	4611	1688.494347135165	101.09217381062
10	4619	1692.031787292224	102.39965616212
10	4637	1696.106211140302	100.27016022528
10	4640	1697.069483213348	99.353537854872
10	4648	1699.514942632515	99.062961257501
10	4652	1700.686403790671	96.413863455765
10	4664	1703.272626169313	97.897230681791
10	4665	1704.245373003176	98.113336593788
10	4668	1706.684934933668	99.487543438207
10	4674	1707.879348832889	96.11374807497
10	4675	1710.539403026121	97.75207416413
10	4681	1712.414677887704	96.3625354095
10	4682	1712.591136993272	93.093481253497
10	4683	1713.06146199025	92.698021272716
10	4692	1717.875379685302	93.507143922627
10	4693	1718.116605517497	93.682702724389
10	4706	1723.0204628504	93.000138715044
10	4709	1724.478999306498	93.051970954344
10	4712	1724.903636325162	93.417440244446
10	4713	1726.232714948834	93.243730056171
10	4714	1727.414326560942	93.835270814067
10	4722	1730.675921997936	94.205766211836
10	4726	1735.629726403728	95.230153694832
10	4729	1737.791375600665	94.573964816622
10	4730	1738.216120448268	94.13923187488
10	4733	1742.442248015558	97.381121850365
10	4748	1746.853678795963	99.331823838635
10	4757	1749.288743113437	100.26663696241
10	4765	1750.920511942571	100.28571964688
10	4766	1752.652350131033	101.29076231668
10	4771	1755.012109087438	103.11894836531
10	4772	1755.132845214407	102.93589745128
10	4786	1758.588763824991	101.2884634651
10	4803	1767.833625669914	103.29910795023
10	4804	1767.999606385047	100.79678720922
10	4812	1769.937846067431	100.01401073257
10	4817	1771.533929945678	101.565182382
10	4822	1772.261712301807	100.05829359166
10	4828	1773.098379374508	99.129007894268
10	4849	1778.689837007994	100.47564792484
10	4852	1782.663933045591	103.22153281802
10	4853	1783.878473831654	103.96009083739
10	4854	1784.296306272427	103.60581020911
10	4872	1790.451839363084	106.11524117557
10	4873	1790.962507719052	102.02306177918
10	4878	1792.939961555684	102.78675085892
10	4881	1794.1176281232	103.66175401741
10	4882	1794.168129693985	101.6465430825
10	4887	1795.75151197612	102.85838724293
10	4888	1796.077790426091	103.14595017463
10	4891	1798.768757833072	105.68900732901
10	4892	1801.336741291339	106.82376271167
10	4896	1803.097146526687	108.01016341356
10	4899	1803.766957711331	106.79720032238
10	4900	1803.884454657976	106.09276920862
10	4903	1804.937606032096	107.13912917543
10	4907	1806.462440027463	106.477059971
10	4940	1817.747538732732	110.11673580226
10	4945	1818.25617707471	110.60121917592
10	4949	1818.816542077163	106.96765219002
10	4952	1819.164729272422	104.51823646616
10	4961	1822.829335132874	102.32449411473
10	4962	1824.623842853297	102.7011535165
10	4975	1827.8270798848	104.95716421748
10	4996	1834.401911547108	106.21300700954
10	5002	1835.255180986997	106.2561899328
10	5008	1839.10521893193	103.25478962503
10	5009	1839.175754526619	99.159011023147
10	5012	1841.058931891885	97.696064358113
10	5015	1841.189804351072	97.137092258792
10	5016	1842.192374698011	98.088645301182
10	5020	1843.631481560658	98.495364120308
10	5021	1844.333355675323	98.758189277318
10	5047	1854.597086296778	106.30200145627
10	5050	1855.754507021368	107.43788173546
10	5065	1860.372986765124	109.93813626122
10	5066	1860.772957641384	107.89593856556
10	5086	1865.335635381255	109.28803702796
10	5097	1871.277528076762	113.10559803747
10	5104	1873.842837347361	112.14705975639
10	5114	1878.84797022058	114.07505639967
10	5117	1881.16679498588	114.57616865513
10	5118	1882.638622397531	115.24545456229
10	5129	1885.614678980675	116.65352474357
10	5133	1886.44962068911	115.37377416138
10	5134	1886.884337289911	115.299696837
10	5135	1887.249620183948	115.33335364179
10	5141	1888.879390730415	116.13042153513
10	5145	1890.398839776382	116.66968751575
10	5146	1890.621819916718	115.99269408466
10	5149	1892.071650966471	116.86147965135
10	5157	1895.038452357731	119.04152879021
10	5158	1896.300601778899	118.80100632009
10	5167	1899.874241071296	119.22915623089
10	5170	1900.629015018593	115.40393856698
10	5174	1901.308723044625	115.33414553191
10	5175	1901.515737569691	114.8914474968
10	5188	1904.923111342516	115.34675711378
10	5189	1905.071253599251	114.68245968392
10	5194	1905.999769682624	115.01332719834
10	5195	1906.446686303144	114.9042713208
10	5201	1906.678388706957	111.70239660165
10	5202	1906.755742381629	111.64253688786
10	5208	1910.179597621341	108.58438980617
10	5209	1912.031619130465	108.92699967974
10	5213	1912.721156035451	107.45064507614
10	5229	1915.756717322315	107.16553306338
10	5230	1916.20104719994	106.97798841629
10	5231	1916.368737936758	106.99650225814
10	5245	1918.600009693387	104.91810909743
10	5251	1921.054777814777	105.77485603321
10	5257	1924.306642880665	108.72827365945
10	5260	1925.515042406036	109.17965464015
10	5261	1926.032916132768	108.32071067373
10	5262	1926.800049627203	108.64088103462
10	5263	1927.368008476091	109.18506061983
10	5264	1927.591709356413	109.01580174225
10	5271	1930.623613994592	108.30084151204
10	5274	1931.866164862943	109.43285418016
10	5286	1933.864651367634	108.77315820204
10	5290	1935.896593297981	109.12147891686
10	5291	1936.155398599554	109.02962740531
10	5292	1939.443167620412	110.48795204022
10	5293	1940.881125607872	111.32273001145
10	5297	1942.008647743158	111.45763538503
10	5304	1947.403857122887	115.95505915095
10	5311	1950.199073962899	117.82056554204
10	5312	1950.524013829849	117.63855174147
10	5313	1951.662992409043	118.55682697616
10	5314	1951.882972782335	117.82389297593
10	5320	1954.878955304944	119.86553578471
10	5326	1957.435054585823	121.36100884826
10	5333	1961.163015886995	120.95017510066
10	5336	1962.378819769444	121.25625310583
10	5342	1964.617959323626	120.16892132632
10	5343	1964.744131111453	120.16683259403
10	5344	1966.02790690633	120.93636639212
10	5345	1966.381547727016	116.56182485061
10	5348	1967.011513639305	111.52430719411
10	5357	1969.89207472948	113.15185844873
10	5374	1973.32491555457	112.99043819622
10	5382	1975.2088176069	114.39547478735
10	5383	1975.738725388893	114.29400757812
10	5386	1977.911809217328	114.5013366964
10	5387	1979.371792063279	113.3709640602
10	5388	1980.066421261935	113.31707710019
10	5401	1988.683610267655	120.21512919467
10	5418	1995.07503525708	123.10843063515
10	5436	1999.613861869521	122.51483038644
11	5439	2000	0.452
12	5439	2000	0.419

