file 353737 1671470923                                          
version 2
run Monotonicity_test_recover_rate-445-20221219-18:28:43-16714
attr configname Monotonicity_test_recover_rate
attr datetime 20221219-18:28:43
attr experiment Monotonicity_test_recover_rate
attr inifile omnetpp.ini
attr iterationvars $0=100
attr iterationvarsf 100-
attr measurement $0=100
attr network Network
attr processid 16714
attr repetition 45
attr replication #45
attr resultdir results
attr runnumber 445
attr seedset 45
param *.minion.arrival_mean 2
param *.minion.service_mean 1.5
param *.boss.arrival_mean 2.5
param *.boss.service_mean 0.5
param *.player.recover_rate_x 100
param **.minion.arrival_distribution 0
param **.minion.service_distribution 0
param **.boss.arrival_distribution 0
param **.boss.service_distribution 0

vector 0 Network.player minion_jobs_number_stat:vector ETV
attr source signal_minion_jobs_number
vector 1 Network.player minion_jobs_queue_number_stat:vector ETV
attr source signal_minion_jobs_queue_number
vector 2 Network.player minion_recovered_stat:vector ETV
attr source signal_minion_recovered
vector 3 Network.player minion_defeated_stat:vector ETV
attr source signal_minion_defeated
vector 4 Network.player boss_jobs_number_stat:vector ETV
attr source signal_boss_jobs_number
vector 5 Network.player boss_jobs_queue_number_stat:vector ETV
attr source signal_boss_jobs_queue_number
vector 6 Network.player boss_defeated_stat:vector ETV
attr source signal_boss_defeated
vector 7 Network.player minion_waiting_time_stat:vector ETV
attr source signal_minion_waiting_time
vector 8 Network.player minion_response_time_stat:vector ETV
attr source signal_minion_response_time
vector 9 Network.player boss_waiting_time_stat:vector ETV
attr source signal_boss_waiting_time
vector 10 Network.player boss_response_time_stat:vector ETV
attr source signal_boss_response_time
vector 11 Network.player minion_throughput:vector ETV
attr source signal_minion_throughput
vector 12 Network.player boss_throughput:vector ETV
attr source signal_boss_throughput
0	1994 26923 0 5212 0 1999.530144225275 987 0 133 68520 5975944
1	28917 50300 0 5213 0 1999.648891744786 1843 0 132 126683 10955875
2	79217 17500 0 5215 0 1999.773033264564 626 0 625 195625 81575625
3	96717 23990 0 5213 0 1999.648891744786 857 0 856 366796 209440516
4	120707 20830 0 5215 0 1999.773033264564 797 0 4 1011 1565
5	141537 41640 0 5216 0 1999.778063723541 1593 0 3 430 678
6	183177 22302 0 5216 0 1999.778063723541 797 0 796 317206 168436386
7	205479 59212 2 5216 1.654377277088 1999.778063723541 1482 0 164.85061022645 126934.55921091 13570472.033386
8	264691 34237 3 5213 2.767956257169 1999.648891744786 856 0.030589266044 166.82619187302 74241.213591693 8037240.8630188
9	298928 22899 5 5215 5.230145983736 1999.773033264564 796 0 5.8176275855 115.43962912559 197.45040454988
10	321827 31871 6 5216 6.096947943285 1999.778063723541 796 0.000266328126 7.121096090588 524.61565528411 777.80779970043
11	353698 19 5217 5217 2000 2000 1 0.428 0.428 0.428 0.183184
12	353717 19 5217 5217 2000 2000 1 0.398 0.398 0.398 0.158404

