file 362330 1671470861                                          
version 2
run Monotonicity_test_recover_rate-142-20221219-18:27:41-15179
attr configname Monotonicity_test_recover_rate
attr datetime 20221219-18:27:41
attr experiment Monotonicity_test_recover_rate
attr inifile omnetpp.ini
attr iterationvars $0=25
attr iterationvarsf 25-
attr measurement $0=25
attr network Network
attr processid 15179
attr repetition 42
attr replication #42
attr resultdir results
attr runnumber 142
attr seedset 42
param *.minion.arrival_mean 2
param *.minion.service_mean 1.5
param *.boss.arrival_mean 2.5
param *.boss.service_mean 0.5
param *.player.recover_rate_x 25
param **.minion.arrival_distribution 0
param **.minion.service_distribution 0
param **.boss.arrival_distribution 0
param **.boss.service_distribution 0

vector 0 Network.player minion_jobs_number_stat:vector ETV
attr source signal_minion_jobs_number
vector 1 Network.player minion_jobs_queue_number_stat:vector ETV
attr source signal_minion_jobs_queue_number
vector 2 Network.player minion_recovered_stat:vector ETV
attr source signal_minion_recovered
vector 3 Network.player minion_defeated_stat:vector ETV
attr source signal_minion_defeated
vector 4 Network.player boss_jobs_number_stat:vector ETV
attr source signal_boss_jobs_number
vector 5 Network.player boss_jobs_queue_number_stat:vector ETV
attr source signal_boss_jobs_queue_number
vector 6 Network.player boss_defeated_stat:vector ETV
attr source signal_boss_defeated
vector 7 Network.player boss_waiting_time_stat:vector ETV
attr source signal_boss_waiting_time
vector 8 Network.player boss_response_time_stat:vector ETV
attr source signal_boss_response_time
vector 9 Network.player minion_waiting_time_stat:vector ETV
attr source signal_minion_waiting_time
vector 10 Network.player minion_response_time_stat:vector ETV
attr source signal_minion_response_time
vector 11 Network.player minion_throughput:vector ETV
attr source signal_minion_throughput
vector 12 Network.player boss_throughput:vector ETV
attr source signal_boss_throughput
0	1990 25488 0 5311 0 1997.812881421668 963 0 35 9607 158165
1	27478 50866 0 5315 0 1999.277111928831 1921 0 34 17284 279812
2	78344 16625 0 5313 0 1998.191149629797 594 0 593 176121 69685209
3	94969 26894 0 5315 0 1999.277111928831 959 0 958 459361 293531679
4	121863 21205 0 5313 0 1998.191149629797 812 0 5 1009 1501
5	143068 42397 0 5314 0 1998.313203890266 1623 0 4 396 588
6	185465 22714 0 5314 0 1998.313203890266 812 0 811 329266 178132906
7	208179 23238 2 5313 0.135204581401 1998.191149629797 811 0 3.308744190004 106.61809882659 137.79254726579
8	231417 31646 3 5314 0.671305908406 1998.313203890266 811 0.000130923491 4.137033854933 505.81618982001 648.39314698983
9	263063 60420 23 5315 3.674501483056 1999.277111928831 1552 0 39.321757117111 16694.58455925 316745.50751444
10	323483 38807 26 5315 5.335636478327 1999.277111928831 958 0.020664730502 39.632526821711 11069.092829603 210991.59722169
11	362290 19 5316 5316 2000 2000 1 0.479 0.479 0.479 0.229441
12	362309 20 5316 5316 2000 2000 1 0.4055 0.4055 0.4055 0.16443025

