version 2
run Monotonicity_test_recover_rate-214-20221219-18:27:56-15548
attr configname Monotonicity_test_recover_rate
attr datetime 20221219-18:27:56
attr experiment Monotonicity_test_recover_rate
attr inifile omnetpp.ini
attr iterationvars $0=50
attr iterationvarsf 50-
attr measurement $0=50
attr network Network
attr processid 15548
attr repetition 14
attr replication #14
attr resultdir results
attr runnumber 214
attr seedset 14
param *.minion.arrival_mean 2
param *.minion.service_mean 1.5
param *.boss.arrival_mean 2.5
param *.boss.service_mean 0.5
param *.player.recover_rate_x 50
param **.minion.arrival_distribution 0
param **.minion.service_distribution 0
param **.boss.arrival_distribution 0
param **.boss.service_distribution 0

vector 0 Network.player minion_jobs_number_stat:vector ETV
attr source signal_minion_jobs_number
vector 1 Network.player minion_jobs_queue_number_stat:vector ETV
attr source signal_minion_jobs_queue_number
vector 2 Network.player minion_recovered_stat:vector ETV
attr source signal_minion_recovered
vector 3 Network.player minion_defeated_stat:vector ETV
attr source signal_minion_defeated
vector 4 Network.player boss_jobs_number_stat:vector ETV
attr source signal_boss_jobs_number
vector 5 Network.player boss_jobs_queue_number_stat:vector ETV
attr source signal_boss_jobs_queue_number
vector 6 Network.player boss_defeated_stat:vector ETV
attr source signal_boss_defeated
vector 7 Network.player boss_waiting_time_stat:vector ETV
attr source signal_boss_waiting_time
vector 8 Network.player boss_response_time_stat:vector ETV
attr source signal_boss_response_time
vector 9 Network.player minion_waiting_time_stat:vector ETV
attr source signal_minion_waiting_time
vector 10 Network.player minion_response_time_stat:vector ETV
attr source signal_minion_response_time
vector 11 Network.player minion_throughput:vector ETV
attr source signal_minion_throughput
vector 12 Network.player boss_throughput:vector ETV
attr source signal_boss_throughput
0	0	0	0
0	11	8.294459895118	1
0	14	8.496179492771	1
0	16	9.307346512935	2
0	22	12.87276821931	1
0	27	15.112654312226	2
0	31	16.17811659321	2
0	33	16.615400039744	3
0	36	18.445510913928	3
0	38	19.320805187964	4
0	40	19.721981226348	5
0	48	23.079192359047	4
0	50	23.704920102565	5
0	52	24.274557912504	6
0	59	30.619300722837	4
0	64	31.846536383115	5
0	66	32.04881769398	6
0	77	36.244866707302	7
0	84	37.907431198754	7
0	88	38.901468823753	8
0	92	42.221518533455	7
0	97	43.010964800677	8
0	106	45.447700557621	8
0	108	45.636530966607	9
0	110	45.638188667657	10
0	119	49.232348898797	7
0	121	49.339254207327	8
0	125	49.541574262282	9
0	127	49.587196477642	10
0	130	51.672861564276	11
0	133	54.05873233855	11
0	136	55.653544431266	11
0	141	59.39000747696	12
0	151	63.180790989096	8
0	162	68.284084741382	3
0	164	68.900717938416	4
0	175	71.00678910714	2
0	177	72.169529652891	3
0	179	73.163805579873	4
0	188	77.419143748404	3
0	192	79.617611614698	3
0	197	82.28393569003	1
0	201	82.618685477107	2
0	207	85.112724692	3
0	212	87.533291823893	4
0	214	87.60593933687	5
0	221	89.563015624601	4
0	223	89.602872597318	5
0	226	92.143894961579	5
0	228	92.9382843774	6
0	230	93.662750739297	7
0	235	95.318471034391	8
0	240	96.199992421475	9
0	247	98.93860772018	8
0	255	102.118265813848	8
0	268	104.733734213483	8
0	270	105.519658818752	9
0	286	114.768593979075	4
0	291	115.691087505597	5
0	304	122.311082736887	2
0	306	123.187870542995	3
0	308	124.785754252302	4
0	322	128.134795075895	1
0	329	137.024587175698	1
0	331	137.422192280854	2
0	335	138.845851984562	1
0	338	140.288951755409	1
0	341	141.149817506292	1
0	359	145.044338781365	1
0	365	150.400925021864	1
0	367	151.097187014692	2
0	372	151.553956926207	2
0	394	160.028816999079	1
0	399	161.054360382713	2
0	402	161.564019899022	3
0	404	162.842082830844	4
0	408	163.32867934404	5
0	410	163.62527887597	6
0	417	166.863366852101	6
0	422	169.446810095222	6
0	425	170.357292162439	7
0	431	172.119799364362	8
0	450	178.989600281082	8
0	455	179.330051994392	9
0	469	186.963991812624	8
0	473	190.048260979615	7
0	476	191.612526565543	7
0	478	191.973983846017	8
0	489	195.355165504505	8
0	493	198.082960120565	8
0	499	200.491979429971	8
0	504	201.092173787945	9
0	506	201.290217242716	10
0	512	204.080831755337	10
0	518	206.174426805441	7
0	520	206.450479318132	8
0	522	206.610657503625	9
0	524	206.662156846322	10
0	526	206.72212011764	11
0	528	207.110700690726	12
0	532	208.248009780086	11
0	543	215.098755885849	8
0	549	216.423002808322	9
0	552	217.086448434669	9
0	556	218.402853001608	10
0	568	221.903712184066	10
0	571	222.937787598073	11
0	573	223.868717416142	12
0	575	224.86295586437	13
0	580	226.128872494324	14
0	589	228.756332123179	14
0	591	229.173799078482	15
0	597	230.746096460956	14
0	599	231.077581334494	15
0	602	232.146839860073	16
0	604	232.150127444797	17
0	606	232.279249816918	18
0	611	233.506520484542	18
0	613	233.519610570079	19
0	615	233.598783098487	20
0	619	234.640287152978	20
0	624	237.283749513501	21
0	627	237.98944563632	21
0	629	240.263968200396	22
0	637	243.304133987528	23
0	639	243.620001067115	24
0	648	245.340625712295	23
0	653	246.873237398831	22
0	656	247.323119692334	22
0	664	253.872582098947	20
0	667	256.610984898965	20
0	673	259.288235128606	20
0	675	259.413863292787	21
0	680	264.929478363623	19
0	699	274.811331559591	15
0	702	275.604521323689	15
0	708	279.786705174168	12
0	713	283.563766836072	13
0	715	283.746374874475	14
0	720	287.877789673934	14
0	726	289.501816399944	15
0	728	289.828582909702	16
0	730	291.245054276721	17
0	732	291.280188327064	18
0	736	292.393010734509	19
0	741	293.534206201727	20
0	744	294.903161571057	21
0	751	295.935567127913	22
0	772	310.871789702531	14
0	774	311.684139198096	15
0	778	312.492989329655	14
0	780	312.565618014964	15
0	791	314.438875719894	14
0	793	314.941026190516	15
0	810	318.835387374389	15
0	814	319.74166300426	16
0	821	322.780654609882	13
0	829	324.280732962945	13
0	832	326.048326157677	14
0	841	328.852017295962	13
0	852	333.966418902791	12
0	857	336.322214232371	10
0	865	342.694597258641	10
0	867	342.928129370245	11
0	870	344.261720636129	12
0	885	353.245376434542	9
0	891	355.997074661615	9
0	902	361.564793054999	7
0	908	363.921260092155	7
0	910	365.309795855287	8
0	912	365.330375448781	9
0	914	367.626993243128	10
0	922	369.458603095475	10
0	926	370.795247651722	10
0	929	371.021350309146	10
0	932	371.526315697179	10
0	934	372.121337050391	11
0	938	373.13826810305	10
0	947	376.162917098425	10
0	951	377.586314490389	11
0	965	380.699451900309	10
0	974	387.489192076638	7
0	976	387.771939705842	8
0	980	388.235265972881	9
0	983	388.707224927453	10
0	986	390.156946497158	10
0	992	393.558878912036	9
0	997	395.257433357883	10
0	1000	397.179454140775	11
0	1011	401.543899797768	9
0	1014	402.035453791966	9
0	1016	404.380342350905	10
0	1020	406.260685138798	9
0	1024	407.427235921623	8
0	1027	408.161906102166	8
0	1032	410.734827503441	9
0	1037	411.963323822965	10
0	1039	412.089755500707	11
0	1045	412.611719155512	12
0	1048	412.678837834849	13
0	1054	414.41532796449	14
0	1056	414.551847834789	15
0	1060	416.655106842561	14
0	1070	424.432267828129	12
0	1079	428.156147610859	13
0	1087	432.667466250696	11
0	1092	435.549725217515	12
0	1095	437.926762382014	12
0	1097	438.754039954683	13
0	1099	438.963836355265	14
0	1101	439.093182998578	15
0	1108	442.262353339076	14
0	1111	443.060877216735	14
0	1115	445.200843901421	13
0	1126	450.244955784099	11
0	1128	450.899491223318	12
0	1131	451.369573960604	12
0	1133	451.542899382405	13
0	1142	454.64038509653	13
0	1145	456.03858205858	13
0	1147	456.94430941224	14
0	1149	457.51509838523	15
0	1151	457.573626238385	16
0	1156	459.323572522282	17
0	1172	465.194840717374	15
0	1175	466.862181214951	16
0	1177	466.876965168617	17
0	1188	468.73149270212	15
0	1197	473.104520674939	15
0	1205	475.551004237518	16
0	1212	479.681259947011	17
0	1216	482.112868424931	17
0	1218	482.125309251077	18
0	1220	482.709971841603	19
0	1222	483.771545026855	20
0	1252	491.789226602813	17
0	1254	491.862449603602	18
0	1258	492.63523018654	19
0	1261	493.813942994595	20
0	1269	495.696833411467	21
0	1275	498.236885956018	21
0	1277	498.600112700112	22
0	1280	500.151420682702	22
0	1282	500.882070522725	23
0	1284	501.280636412027	24
0	1294	503.304812569734	23
0	1298	504.12337294746	24
0	1301	504.539988689202	25
0	1303	504.556485324535	26
0	1306	508.701246510159	26
0	1320	515.348305395644	27
0	1322	515.50440110481	28
0	1326	517.076816318593	27
0	1334	519.007031122147	28
0	1339	521.26248801174	26
0	1348	523.639234579622	25
0	1359	531.054809976844	23
0	1370	534.046591853325	22
0	1372	534.340251030187	23
0	1385	536.411413028639	21
0	1389	538.06669720375	21
0	1393	539.574582500186	20
0	1398	542.500156457404	21
0	1430	553.598708621342	16
0	1439	556.074667309179	16
0	1452	561.51419033551	15
0	1454	562.199187155308	16
0	1459	562.904423505964	17
0	1466	569.60124076322	16
0	1468	569.858041610029	17
0	1474	572.829344893433	17
0	1479	573.158093239892	18
0	1490	577.198820047967	16
0	1493	579.313515827612	16
0	1498	582.503683348599	14
0	1504	584.795572298927	14
0	1506	585.467444888496	15
0	1529	594.900908004589	7
0	1534	596.349448310285	7
0	1544	600.991098714885	1
0	1546	601.962252459894	2
0	1548	602.157669431664	3
0	1551	602.84323994717	3
0	1562	607.478291230947	1
0	1565	608.391923819205	1
0	1568	612.491700695911	1
0	1571	615.969444144566	1
0	1574	616.949056471356	1
0	1577	618.924353671939	1
0	1579	620.72739097878	2
0	1581	621.937513668933	3
0	1589	626.16702247806	1
0	1591	626.256065164082	2
0	1593	627.833295510255	3
0	1601	633.262472245358	1
0	1604	635.534797765259	1
0	1612	637.501306561309	2
0	1616	638.341353217539	3
0	1624	640.0853284916	4
0	1626	640.769430833106	5
0	1633	641.556290853387	6
0	1635	642.086775558115	7
0	1644	647.574416817049	5
0	1661	654.653012412941	3
0	1665	657.719062277451	3
0	1667	658.631643992538	4
0	1673	660.463967717032	4
0	1680	664.329311241384	3
0	1688	670.504229074384	1
0	1697	673.629397145121	2
0	1702	675.202129326981	2
0	1704	675.263205081224	3
0	1715	679.515168806542	3
0	1718	680.625703364192	4
0	1720	680.840225954335	5
0	1723	683.662567166583	5
0	1727	687.027909522387	4
0	1736	691.011617318946	4
0	1740	692.333775383715	3
0	1747	692.739364653747	4
0	1749	692.970925504457	5
0	1751	693.318186518804	6
0	1757	694.043067669416	7
0	1762	694.715767541924	8
0	1767	697.980512462204	6
0	1769	698.276140260793	7
0	1771	699.652324435182	8
0	1774	699.991259249526	8
0	1780	702.794302320766	8
0	1783	703.522651879602	8
0	1800	710.370513356963	6
0	1805	713.732176463596	4
0	1810	715.742023902979	5
0	1812	716.66829490177	6
0	1814	716.939037359901	7
0	1816	717.153226160752	8
0	1820	717.738078337978	9
0	1823	718.285510687493	10
0	1829	719.000477343563	10
0	1833	719.963917153176	11
0	1835	720.207717045427	12
0	1838	720.331630671143	13
0	1840	720.400395405342	14
0	1842	720.963810658564	15
0	1845	722.502067766059	15
0	1847	723.06900462648	16
0	1849	723.204908080855	17
0	1853	723.949269455925	16
0	1856	726.440864344388	16
0	1860	727.974211859854	15
0	1862	728.906996169951	16
0	1865	729.743513884113	16
0	1874	731.580977835044	15
0	1884	734.750430549978	14
0	1890	737.083182786272	15
0	1895	738.060293341071	16
0	1902	739.363158228314	15
0	1904	740.484891467942	16
0	1911	741.53304712305	15
0	1922	744.263931057554	14
0	1924	745.557228745766	15
0	1927	746.073173964946	16
0	1937	749.929734637088	16
0	1939	750.704025780775	17
0	1943	755.619127283081	16
0	1949	757.644589088627	15
0	1959	760.400336550135	15
0	1967	762.604668923631	10
0	1976	766.381057309596	7
0	1978	766.800195027677	8
0	1983	768.237847914121	9
0	1989	770.863645988031	8
0	1994	771.671257466464	9
0	1997	772.499753902783	10
0	1999	772.675654956615	11
0	2001	774.307021466479	12
0	2003	774.600044700512	13
0	2005	774.718895218699	14
0	2007	775.548947359161	15
0	2015	779.491491685217	13
0	2021	780.385367403109	10
0	2023	780.621784386916	11
0	2030	785.917730062172	10
0	2033	786.331002551152	10
0	2038	787.572906066113	10
0	2041	789.098886464782	11
0	2047	790.364506074733	10
0	2050	791.652535713532	11
0	2052	792.027627912801	12
0	2070	796.840835714111	9
0	2080	801.301956146607	8
0	2092	808.958320926782	5
0	2094	809.698290272772	6
0	2096	809.794276640194	7
0	2098	810.22227233521	8
0	2100	810.305993379206	9
0	2102	810.877347008016	10
0	2113	818.841902979124	10
0	2121	822.380729675291	9
0	2126	823.640307002502	10
0	2129	823.68642872006	10
0	2131	823.807280122529	11
0	2135	825.598636430413	10
0	2137	826.257401062261	11
0	2145	830.342019687878	9
0	2151	831.693478260251	9
0	2160	834.609241677807	6
0	2162	834.791629094641	7
0	2164	836.008488464083	8
0	2171	839.727843360745	7
0	2184	844.239055403477	3
0	2187	844.979354935869	3
0	2189	846.325860118261	4
0	2191	847.010886471935	5
0	2195	849.729962637649	4
0	2203	852.363316763337	4
0	2210	855.277159670321	4
0	2214	859.529184182117	3
0	2216	859.554845728535	4
0	2224	861.529516611735	4
0	2228	862.894165958419	4
0	2230	862.964085741769	5
0	2236	865.13900238425	5
0	2238	866.16461789288	6
0	2244	867.112147343559	6
0	2246	868.272233319159	7
0	2254	869.723487675058	7
0	2262	872.590924062446	8
0	2264	872.882087255682	9
0	2266	872.994868339207	10
0	2269	874.019550717843	11
0	2271	874.611544290343	12
0	2278	876.698015794134	13
0	2282	878.866718934781	13
0	2286	880.147590206861	14
0	2289	881.18099809948	15
0	2291	881.904012643982	16
0	2293	882.191457251725	17
0	2295	883.139191708098	18
0	2307	887.800542946517	18
0	2314	889.96048418431	17
0	2329	893.350430565897	17
0	2331	893.620031300181	18
0	2334	895.944496103152	18
0	2343	898.796020136113	18
0	2345	898.87589862089	19
0	2347	899.574548430165	20
0	2355	902.322227743739	20
0	2359	902.901775882538	20
0	2364	904.346273693669	21
0	2368	906.805015995948	22
0	2374	910.689700339375	23
0	2386	914.48646869159	23
0	2388	915.783991905848	24
0	2417	920.744289264531	24
0	2420	921.830489961218	25
0	2426	924.206910534062	25
0	2428	924.532897422014	26
0	2443	931.993365591718	20
0	2445	932.643119995306	21
0	2452	938.209534824407	17
0	2454	938.381000704427	18
0	2458	940.369855724058	17
0	2462	941.269572000006	16
0	2465	941.351477883992	16
0	2476	947.026172460387	16
0	2482	950.59456105635	17
0	2489	951.920154841699	17
0	2499	957.821783409451	18
0	2501	958.275023536259	19
0	2503	958.565624024478	20
0	2505	958.871184213117	21
0	2513	960.683717700549	21
0	2515	960.725258968431	22
0	2517	961.214627074418	23
0	2519	961.375885371565	24
0	2523	961.898424208484	24
0	2525	962.776227735189	25
0	2530	965.427256469838	26
0	2537	970.03126658117	27
0	2543	970.580486343356	28
0	2545	971.375038951577	29
0	2554	973.284862388747	29
0	2556	973.586254933578	30
0	2559	976.632344493116	30
0	2563	977.415724402925	29
0	2566	979.338244836848	29
0	2568	980.236638374075	30
0	2570	980.287507845727	31
0	2572	980.838182407919	32
0	2574	981.905615888519	33
0	2576	982.965675496105	34
0	2587	985.63227335014	35
0	2589	985.994567055262	36
0	2591	986.068375188738	37
0	2605	988.938836373516	37
0	2608	989.759970820373	38
0	2612	992.418623513207	37
0	2614	993.145171198349	38
0	2634	1002.05636676667	36
0	2645	1005.469100675174	31
0	2647	1006.487989657639	32
0	2649	1006.867693717407	33
0	2656	1010.03662377281	31
0	2661	1011.739898010375	32
0	2665	1014.546075475039	32
0	2667	1014.75714936407	33
0	2677	1017.020983285526	32
0	2682	1018.786863745922	33
0	2684	1018.834858960923	34
0	2694	1022.261059221063	30
0	2700	1023.385738006925	29
0	2703	1024.502060522598	30
0	2719	1032.415954916141	25
0	2723	1033.383843195667	25
0	2734	1036.245585759952	26
0	2745	1042.536284243379	21
0	2753	1044.25550391002	19
0	2763	1050.05554868538	18
0	2766	1051.562165622234	18
0	2768	1051.647759031616	19
0	2771	1052.27648213223	19
0	2773	1052.376015967031	20
0	2780	1052.791646883298	21
0	2788	1056.888498936894	20
0	2790	1056.949813555143	21
0	2801	1060.718506141392	19
0	2811	1063.406756529606	20
0	2816	1064.403436418008	19
0	2822	1065.891211354317	20
0	2829	1067.885947048395	21
0	2831	1068.876064530313	22
0	2845	1076.098758570456	17
0	2847	1077.456040800645	18
0	2849	1078.111422015291	19
0	2851	1078.130439695031	20
0	2857	1081.180798493842	20
0	2862	1082.486408923318	21
0	2864	1083.954673213538	22
0	2866	1084.307908395557	23
0	2879	1088.295874870339	19
0	2881	1088.933799817956	20
0	2889	1091.298393848909	20
0	2896	1094.183128625918	20
0	2903	1095.659522226045	21
0	2906	1096.509958673047	22
0	2911	1097.907237473239	23
0	2929	1102.538109805446	23
0	2932	1103.554002060254	23
0	2946	1107.527110190997	20
0	2953	1110.52617961693	20
0	2955	1110.828096622724	21
0	2957	1111.001444666887	22
0	2969	1115.123977878044	22
0	2974	1115.909888064889	20
0	2976	1117.359280651714	21
0	2978	1118.062575062433	22
0	2986	1120.215885177043	23
0	2990	1124.001575553511	22
0	3010	1129.911701382182	22
0	3016	1131.225447434091	23
0	3030	1132.887034422351	24
0	3032	1133.572329405443	25
0	3036	1134.268331030468	26
0	3038	1134.485374633426	27
0	3053	1138.672245801262	22
0	3063	1141.850170217564	21
0	3065	1142.39576746866	22
0	3077	1145.116414562576	23
0	3084	1147.3239532748	24
0	3091	1150.226738157374	20
0	3098	1153.584484692193	19
0	3105	1158.442806050887	18
0	3117	1162.275312879734	17
0	3120	1162.777286319667	18
0	3122	1162.981825429311	19
0	3127	1164.256372217686	19
0	3153	1169.458281793068	15
0	3158	1170.87046185717	16
0	3160	1171.762910082781	17
0	3162	1172.299876937193	18
0	3165	1173.444508288733	18
0	3167	1174.280109337037	19
0	3180	1178.876877048368	18
0	3184	1180.349002731872	19
0	3186	1181.072366575469	20
0	3188	1181.106909927313	21
0	3191	1181.366234766103	22
0	3193	1182.175503277863	23
0	3195	1182.682402542017	24
0	3199	1186.568692938441	23
0	3205	1186.751129821512	24
0	3209	1187.350211795096	25
0	3215	1189.330758149853	25
0	3226	1192.00724347507	26
0	3230	1194.874700665109	25
0	3232	1194.985922167526	26
0	3237	1198.577797203377	26
0	3239	1198.628298854561	27
0	3245	1200.761114000464	28
0	3249	1202.638867412378	27
0	3251	1203.481490110085	28
0	3253	1203.842182706533	29
0	3264	1208.015390119734	27
0	3272	1210.019013155173	27
0	3280	1212.644532485883	26
0	3284	1213.925599251286	27
0	3289	1214.800586807014	28
0	3294	1215.935068700279	29
0	3297	1217.447014301065	30
0	3300	1217.833389615559	30
0	3305	1219.293224564598	28
0	3308	1220.110188045201	28
0	3312	1221.699362423915	27
0	3315	1222.301251894022	27
0	3317	1224.753694838368	28
0	3320	1225.960417052838	28
0	3324	1229.522980089873	27
0	3329	1230.755729843372	28
0	3333	1230.972549918815	29
0	3339	1233.977009744675	30
0	3348	1236.304511540487	29
0	3351	1237.364836941697	30
0	3370	1245.158294978542	31
0	3373	1245.905037733893	32
0	3386	1249.845299792937	33
0	3396	1251.983652852575	32
0	3409	1258.032298645133	29
0	3413	1259.973085397428	28
0	3421	1261.636394154238	29
0	3424	1262.541876512799	30
0	3427	1263.387399728953	31
0	3438	1267.196004198601	29
0	3442	1267.540202386307	29
0	3447	1268.382606947813	30
0	3450	1271.442625525132	30
0	3485	1285.153754777877	27
0	3491	1286.306009461028	28
0	3499	1290.914439750495	26
0	3501	1292.863996654201	27
0	3506	1293.289534382289	28
0	3508	1294.231198104848	29
0	3510	1294.505919227726	30
0	3513	1295.096108432868	30
0	3521	1297.728531970089	31
0	3523	1298.205093805724	32
0	3530	1301.637411148718	33
0	3532	1301.772898041849	34
0	3555	1309.867567836235	33
0	3565	1313.609964829862	32
0	3572	1314.650605726377	33
0	3574	1315.215915370328	34
0	3579	1319.299817434249	33
0	3581	1320.669921146508	34
0	3586	1322.484367589255	35
0	3588	1323.268492625065	36
0	3593	1324.427600802997	37
0	3598	1327.25676577397	38
0	3600	1327.28437337924	39
0	3604	1329.177458542988	38
0	3606	1329.320287366822	39
0	3614	1331.758142531396	40
0	3620	1333.553868204386	40
0	3627	1335.100258174282	39
0	3630	1335.687657857426	39
0	3633	1335.943217921073	39
0	3638	1337.688922784702	37
0	3647	1340.83357786881	36
0	3649	1340.835704033128	37
0	3652	1341.75998521793	38
0	3657	1345.840229886605	39
0	3671	1350.515176304515	39
0	3677	1352.730546834253	40
0	3684	1354.93925886525	36
0	3688	1356.862327505917	35
0	3694	1361.58453933563	32
0	3710	1366.287358960408	28
0	3712	1366.320259126586	29
0	3715	1367.385336351219	29
0	3727	1371.680449795183	29
0	3733	1374.046801332092	29
0	3735	1374.174282694886	30
0	3737	1374.383423453067	31
0	3741	1378.105224689723	30
0	3744	1378.961695646879	30
0	3746	1379.460749556414	31
0	3749	1380.946212912092	31
0	3752	1382.71493562504	31
0	3756	1383.970463710835	30
0	3761	1384.905759208128	30
0	3764	1385.530237200379	31
0	3770	1386.411912937177	32
0	3774	1386.853540994435	33
0	3778	1389.782351205948	34
0	3781	1391.116775530314	35
0	3784	1391.238208499035	35
0	3788	1391.857190134787	36
0	3796	1394.234460664517	35
0	3798	1394.677887549861	36
0	3806	1396.856551533319	33
0	3809	1397.055987806456	34
0	3819	1399.626453002629	30
0	3821	1399.632623758386	31
0	3827	1400.969147392283	30
0	3829	1400.988846236335	31
0	3833	1401.156693012156	31
0	3835	1402.665363018929	32
0	3841	1405.798859520831	29
0	3845	1406.496429571685	28
0	3858	1411.209215409797	28
0	3866	1414.212621533177	28
0	3868	1414.29431436591	29
0	3870	1415.375385167471	30
0	3873	1416.193390911254	30
0	3875	1416.344800628048	31
0	3877	1416.535630281738	32
0	3890	1423.168512720016	33
0	3897	1425.828454334456	33
0	3900	1426.037804791246	33
0	3902	1426.080649856349	34
0	3912	1430.24872521602	33
0	3918	1435.171883793422	32
0	3922	1435.388487534755	33
0	3924	1435.593754591122	34
0	3928	1437.745354399968	35
0	3931	1438.304454925302	36
0	3933	1439.296325037721	37
0	3942	1442.49445678213	36
0	3950	1446.491968987116	36
0	3957	1449.126648777879	36
0	3959	1450.425797680999	37
0	3961	1451.114669665979	38
0	3967	1452.85696429946	37
0	3970	1453.166644901387	38
0	3975	1454.671745561677	39
0	3977	1455.601122173342	40
0	3986	1460.648711502757	37
0	3988	1461.454875957591	38
0	3992	1461.970864214731	37
0	4014	1468.191408501081	36
0	4025	1469.676817396707	37
0	4028	1470.907196537384	37
0	4030	1471.122960687122	38
0	4034	1472.217769313926	37
0	4037	1474.05847201164	37
0	4042	1476.07286612109	38
0	4044	1477.287353495445	39
0	4051	1481.411160884909	38
0	4056	1484.184611754341	36
0	4060	1484.532269857009	35
0	4074	1491.524878831828	30
0	4077	1492.877252456723	30
0	4079	1492.904141200896	31
0	4082	1495.617267901314	31
0	4085	1496.794360663664	31
0	4087	1497.233924920796	32
0	4093	1499.242905183	32
0	4098	1499.738490678113	33
0	4110	1508.576102631514	33
0	4113	1510.313940049269	33
0	4116	1511.502407470341	33
0	4118	1512.037000727407	34
0	4138	1525.92865668829	29
0	4140	1526.01199109207	30
0	4143	1527.329994827684	30
0	4145	1527.81762498665	31
0	4150	1530.113810825012	32
0	4153	1532.58049946269	32
0	4159	1534.750777094932	32
0	4163	1536.121776099833	33
0	4169	1536.611081870955	34
0	4177	1540.455353589286	35
0	4179	1540.607153496852	36
0	4181	1541.191932938206	37
0	4185	1543.097648412538	36
0	4197	1548.478398153235	33
0	4199	1548.854544156774	34
0	4201	1549.019537573675	35
0	4205	1550.20506139001	36
0	4220	1554.628227553127	36
0	4222	1555.250239202534	37
0	4228	1556.610910516678	38
0	4245	1562.068800068483	35
0	4248	1563.746807338227	36
0	4253	1565.008891100129	36
0	4262	1566.761601431781	37
0	4272	1568.237432700108	38
0	4274	1568.275909011025	39
0	4277	1568.845538183208	40
0	4279	1570.554782329879	41
0	4281	1572.872740192203	42
0	4293	1578.123248052838	41
0	4296	1579.109494952383	42
0	4299	1580.028078976878	42
0	4302	1580.687585322562	42
0	4304	1581.177307057626	43
0	4307	1581.402239537482	43
0	4311	1581.795600765488	44
0	4322	1590.27167833921	40
0	4328	1591.007218690157	41
0	4331	1591.345165442397	42
0	4340	1597.351588738813	37
0	4354	1601.68163417456	35
0	4358	1603.217831202415	36
0	4360	1603.345110824189	37
0	4369	1607.503182700133	32
0	4376	1610.220193478035	28
0	4378	1610.404421248585	29
0	4380	1611.471228183126	30
0	4383	1612.085405759435	30
0	4386	1612.889260617864	30
0	4388	1613.844163349369	31
0	4390	1613.849235965777	32
0	4393	1614.328058058173	32
0	4395	1614.751422772311	33
0	4407	1620.4059011958	33
0	4409	1623.19663498561	34
0	4411	1624.212289518409	35
0	4413	1625.518635847108	36
0	4417	1626.034746965851	37
0	4420	1627.145985830172	38
0	4426	1628.444752209642	38
0	4428	1630.909863914139	39
0	4432	1632.698609168921	38
0	4434	1632.753775094952	39
0	4441	1635.290797870055	38
0	4444	1637.87695950854	38
0	4446	1638.309620017841	39
0	4449	1641.197165111482	39
0	4451	1641.478204171152	40
0	4457	1643.230755275063	40
0	4461	1644.106202205584	41
0	4463	1644.245188486595	42
0	4475	1648.316440869944	42
0	4481	1649.930261459382	43
0	4486	1651.797926626922	44
0	4488	1652.841579794322	45
0	4490	1653.572325196447	46
0	4493	1657.087871382415	46
0	4501	1660.615681640588	47
0	4503	1660.900139018342	48
0	4505	1661.035019559051	49
0	4511	1664.601175445098	46
0	4516	1666.016491193882	47
0	4518	1666.589115038837	48
0	4523	1669.424491761377	46
0	4528	1675.246056189447	44
0	4531	1676.065405580323	44
0	4538	1679.292793715515	40
0	4541	1680.832491456293	40
0	4543	1681.092090008966	41
0	4547	1683.605919377262	40
0	4551	1683.840991404033	41
0	4554	1684.242291971004	42
0	4562	1686.359284320349	43
0	4565	1688.335100314997	43
0	4572	1692.567006284334	42
0	4574	1692.681629081676	43
0	4590	1695.882737949456	42
0	4592	1696.241248014376	43
0	4595	1697.253298712574	43
0	4597	1697.371240803904	44
0	4599	1699.257097378998	45
0	4603	1700.916352376473	44
0	4615	1703.188401480734	44
0	4619	1704.40411722551	43
0	4621	1704.482359753669	44
0	4623	1705.113699555969	45
0	4625	1705.403473226736	46
0	4631	1707.328462781665	43
0	4635	1709.652948327473	44
0	4644	1711.824343218296	42
0	4649	1712.897333224307	43
0	4659	1714.996517605297	42
0	4661	1715.068968162306	43
0	4663	1715.156909942534	44
0	4665	1715.390432974271	45
0	4675	1719.3959886786	41
0	4679	1723.540432042428	40
0	4681	1725.06274397019	41
0	4684	1725.742203223351	41
0	4695	1731.29763105415	39
0	4697	1731.81527273762	40
0	4702	1732.183368414272	41
0	4707	1733.256509399476	42
0	4715	1734.736449440673	42
0	4725	1738.271088333672	42
0	4742	1746.825174366042	40
0	4751	1750.167908535923	39
0	4755	1750.546951716263	40
0	4770	1757.74654005418	39
0	4774	1761.133626722537	38
0	4779	1762.075558884628	39
0	4783	1765.652523709967	38
0	4786	1767.918955380258	38
0	4790	1768.912155865676	39
0	4793	1769.859988334801	40
0	4802	1773.732468325502	37
0	4809	1775.861480614157	37
0	4815	1780.363984879627	36
0	4823	1783.725778682423	36
0	4827	1785.210696514163	36
0	4829	1785.299114615847	37
0	4831	1785.30648056034	38
0	4835	1786.004322802845	39
0	4837	1786.451754628684	40
0	4849	1787.845453040108	41
0	4854	1788.635083683031	41
0	4856	1789.284982783888	42
0	4859	1789.499128336756	43
0	4864	1790.827998901023	44
0	4867	1791.99994683541	44
0	4871	1792.321413423615	45
0	4889	1799.384521615184	43
0	4892	1799.556232753764	43
0	4897	1800.648265032966	43
0	4900	1800.751069501428	44
0	4902	1801.026198182548	45
0	4907	1805.684533294666	43
0	4910	1806.392940363166	43
0	4916	1808.95418172412	43
0	4918	1809.525062027248	44
0	4921	1810.64869406276	44
0	4930	1812.280000086849	44
0	4939	1814.564325186572	44
0	4941	1814.851804757057	45
0	4943	1815.331322485935	46
0	4945	1815.784098165195	47
0	4948	1817.953621010265	47
0	4953	1818.124434360682	48
0	4958	1820.200104594907	48
0	4961	1821.956495088076	49
0	4968	1824.527890096418	50
0	4972	1825.099493465442	50
0	4974	1825.315940551368	51
0	4976	1825.594985087146	52
0	4979	1826.891851373134	52
0	4982	1828.170173264091	52
0	4986	1829.522466257574	51
0	4990	1829.925708654301	52
0	4996	1830.556331933481	53
0	5002	1832.92602105319	53
0	5006	1834.803788750534	52
0	5010	1835.985223017739	53
0	5016	1838.456173418294	54
0	5021	1841.184370671525	52
0	5033	1846.016151054587	49
0	5038	1847.352597677621	50
0	5047	1849.040584885511	50
0	5061	1851.980740350084	51
0	5063	1852.026337719616	52
0	5068	1852.359780356436	53
0	5070	1852.502427531917	54
0	5072	1854.014884793871	55
0	5074	1855.588049993308	56
0	5077	1856.812007767892	56
0	5079	1857.008012567339	57
0	5081	1857.947569821159	58
0	5085	1858.491021659024	57
0	5088	1860.782413153537	57
0	5091	1861.70572301101	57
0	5094	1863.474398672156	57
0	5096	1864.584830400872	58
0	5103	1867.657133301544	59
0	5107	1867.81655613655	60
0	5110	1868.267598228235	61
0	5113	1868.719849738682	62
0	5118	1869.271221906882	63
0	5121	1869.890193110313	63
0	5124	1870.186408178319	63
0	5126	1871.936037095774	64
0	5130	1873.016008410477	63
0	5134	1875.97755946838	62
0	5136	1876.754386906012	63
0	5149	1882.806114294266	61
0	5152	1884.01945697582	62
0	5155	1884.56882408639	62
0	5157	1886.09756274348	63
0	5169	1895.032950884397	60
0	5187	1900.162164592915	58
0	5190	1900.638176692817	59
0	5202	1907.767161770236	54
0	5210	1908.926224907857	54
0	5212	1908.996901993848	55
0	5217	1910.922522682629	56
0	5220	1911.327725450128	57
0	5224	1913.25212022325	56
0	5226	1913.494906114991	57
0	5236	1916.706737436646	56
0	5247	1920.688424514187	56
0	5250	1922.81705230601	57
0	5252	1922.905058479674	58
0	5260	1924.831892879735	59
0	5268	1928.372385944041	57
0	5271	1929.580670913753	57
0	5274	1932.297454425266	57
0	5276	1932.906108372835	58
0	5280	1934.955439200208	57
0	5282	1935.845409981458	58
0	5284	1936.064449893986	59
0	5299	1939.164493648895	59
0	5301	1939.176483147958	60
0	5303	1939.543462493673	61
0	5315	1943.74544450079	61
0	5321	1948.63766012602	58
0	5324	1949.003654680826	58
0	5332	1951.583051786992	56
0	5335	1952.126786010758	56
0	5340	1954.590066495137	57
0	5344	1956.132644214666	58
0	5347	1956.904690935149	59
0	5355	1959.062231662167	57
0	5362	1968.458304818206	53
0	5364	1969.936248956384	54
0	5366	1970.006408160343	55
0	5370	1971.82877221495	56
0	5374	1973.405277166855	56
0	5376	1973.451161206153	57
0	5378	1973.872482573457	58
0	5386	1976.434621345304	59
0	5392	1978.841936061939	59
0	5400	1982.755807846865	57
0	5414	1989.433569535155	58
0	5419	1990.427638398067	59
0	5425	1991.948602306161	58
0	5427	1992.017582020038	59
0	5444	1997.149008475457	60
1	0	0	0
1	11	8.294459895118	0
1	12	8.431563541661	0
1	14	8.496179492771	0
1	16	9.307346512935	1
1	17	9.916077363072	1
1	18	10.309054204756	0
1	22	12.87276821931	0
1	27	15.112654312226	1
1	29	15.941333257551	1
1	31	16.17811659321	1
1	33	16.615400039744	2
1	34	16.735482427034	2
1	36	18.445510913928	2
1	38	19.320805187964	3
1	40	19.721981226348	4
1	41	22.015574816948	4
1	42	22.573872813052	3
1	48	23.079192359047	3
1	50	23.704920102565	4
1	52	24.274557912504	5
1	55	25.819052297422	5
1	56	28.280642298131	4
1	57	30.091904138508	3
1	59	30.619300722837	3
1	64	31.846536383115	4
1	66	32.04881769398	5
1	77	36.244866707302	6
1	78	36.390127732564	6
1	84	37.907431198754	6
1	88	38.901468823753	7
1	89	39.117035912183	7
1	90	41.914114366607	6
1	92	42.221518533455	6
1	97	43.010964800677	7
1	98	43.352469410743	7
1	106	45.447700557621	7
1	108	45.636530966607	8
1	110	45.638188667657	9
1	111	46.630644256982	9
1	112	47.459906507302	8
1	113	48.069780033584	7
1	117	49.116801454235	6
1	119	49.232348898797	6
1	121	49.339254207327	7
1	125	49.541574262282	8
1	127	49.587196477642	9
1	130	51.672861564276	10
1	131	53.635988428591	10
1	133	54.05873233855	10
1	134	55.172920514114	10
1	136	55.653544431266	10
1	141	59.39000747696	11
1	145	59.611800240929	11
1	146	60.430220449679	10
1	147	61.021330719437	9
1	148	61.738332487849	8
1	149	63.047352682453	7
1	151	63.180790989096	7
1	155	64.168062555909	7
1	156	64.211232582178	6
1	157	65.101146487127	5
1	158	65.740111973261	4
1	159	66.177686462982	3
1	160	68.216820123028	2
1	162	68.284084741382	2
1	164	68.900717938416	3
1	168	69.875788034461	3
1	172	70.644087641387	2
1	173	70.844545641186	1
1	175	71.00678910714	1
1	177	72.169529652891	2
1	179	73.163805579873	3
1	180	73.381098841032	3
1	181	74.600552790056	2
1	188	77.419143748404	2
1	190	78.542064310207	2
1	192	79.617611614698	2
1	193	80.631656707735	2
1	194	80.894950044974	1
1	195	81.891918869188	0
1	197	82.28393569003	0
1	201	82.618685477107	1
1	207	85.112724692	2
1	212	87.533291823893	3
1	214	87.60593933687	4
1	215	88.25394591994	4
1	216	88.334300357853	3
1	221	89.563015624601	3
1	223	89.602872597318	4
1	224	89.779922470953	4
1	226	92.143894961579	4
1	228	92.9382843774	5
1	230	93.662750739297	6
1	235	95.318471034391	7
1	240	96.199992421475	8
1	241	96.622644585687	8
1	242	96.789288836619	7
1	247	98.93860772018	7
1	248	98.949525090981	7
1	255	102.118265813848	7
1	257	102.580258410966	7
1	268	104.733734213483	7
1	270	105.519658818752	8
1	271	106.217905035116	8
1	272	106.246974456101	7
1	273	106.435834945373	6
1	277	110.686788507722	5
1	278	112.135962030895	4
1	279	112.278347086319	3
1	286	114.768593979075	3
1	291	115.691087505597	4
1	296	117.626224916175	4
1	300	118.038721011005	3
1	301	118.400129333008	2
1	302	120.11379686209	1
1	304	122.311082736887	1
1	306	123.187870542995	2
1	308	124.785754252302	3
1	312	125.065169152151	3
1	313	126.460165930643	2
1	314	126.5900357925	1
1	315	126.63634761203	0
1	322	128.134795075895	0
1	327	132.645640934669	0
1	329	137.024587175698	0
1	331	137.422192280854	1
1	332	137.519228951945	1
1	333	137.524875555564	0
1	335	138.845851984562	0
1	336	139.686773408945	0
1	338	140.288951755409	0
1	339	140.301798326891	0
1	341	141.149817506292	0
1	345	141.201603122748	0
1	359	145.044338781365	0
1	363	149.966136925658	0
1	365	150.400925021864	0
1	367	151.097187014692	1
1	368	151.329844462156	1
1	372	151.553956926207	1
1	380	153.715418423607	1
1	381	154.121273174605	0
1	394	160.028816999079	0
1	399	161.054360382713	1
1	402	161.564019899022	2
1	404	162.842082830844	3
1	408	163.32867934404	4
1	410	163.62527887597	5
1	415	166.175115599789	5
1	417	166.863366852101	5
1	418	167.425868962298	5
1	422	169.446810095222	5
1	425	170.357292162439	6
1	431	172.119799364362	7
1	437	173.548880260105	7
1	450	178.989600281082	7
1	455	179.330051994392	8
1	463	185.999877350071	8
1	464	186.420662878046	7
1	469	186.963991812624	7
1	470	187.132245549244	7
1	471	188.034751932438	6
1	473	190.048260979615	6
1	474	190.42452077815	6
1	476	191.612526565543	6
1	478	191.973983846017	7
1	479	192.060594597374	7
1	489	195.355165504505	7
1	491	196.704664972469	7
1	493	198.082960120565	7
1	497	199.916497341454	7
1	499	200.491979429971	7
1	504	201.092173787945	8
1	506	201.290217242716	9
1	510	201.911034285679	9
1	512	204.080831755337	9
1	513	204.704174682185	9
1	514	204.923803421474	8
1	515	205.253785110504	7
1	516	205.427168502349	6
1	518	206.174426805441	6
1	520	206.450479318132	7
1	522	206.610657503625	8
1	524	206.662156846322	9
1	526	206.72212011764	10
1	528	207.110700690726	11
1	529	207.221561296404	11
1	530	207.964779067508	10
1	532	208.248009780086	10
1	533	209.125369446642	10
1	534	210.363520174675	9
1	535	210.566191530092	8
1	536	211.627943259949	7
1	543	215.098755885849	7
1	549	216.423002808322	8
1	550	216.562418477933	8
1	552	217.086448434669	8
1	556	218.402853001608	9
1	558	219.150222014723	9
1	568	221.903712184066	9
1	571	222.937787598073	10
1	573	223.868717416142	11
1	575	224.86295586437	12
1	580	226.128872494324	13
1	584	227.823611400537	13
1	589	228.756332123179	13
1	591	229.173799078482	14
1	592	229.674708820616	14
1	593	230.123651533535	13
1	597	230.746096460956	13
1	599	231.077581334494	14
1	602	232.146839860073	15
1	604	232.150127444797	16
1	606	232.279249816918	17
1	607	233.106190374997	17
1	611	233.506520484542	17
1	613	233.519610570079	18
1	615	233.598783098487	19
1	617	234.126542752335	19
1	619	234.640287152978	19
1	624	237.283749513501	20
1	625	237.980834018542	20
1	627	237.98944563632	20
1	629	240.263968200396	21
1	637	243.304133987528	22
1	639	243.620001067115	23
1	640	243.7570675953	23
1	641	244.310641311622	22
1	648	245.340625712295	22
1	650	245.968873414234	22
1	651	246.279957573258	21
1	653	246.873237398831	21
1	654	246.971513773272	21
1	656	247.323119692334	21
1	657	249.864131296053	21
1	658	250.071864376651	20
1	659	250.574620728158	19
1	664	253.872582098947	19
1	665	256.103278494177	19
1	667	256.610984898965	19
1	671	259.179867879488	19
1	673	259.288235128606	19
1	675	259.413863292787	20
1	676	261.420832138407	20
1	677	261.532414735656	19
1	678	263.070382664461	18
1	680	264.929478363623	18
1	690	271.386353012246	18
1	694	272.49984685412	17
1	695	273.218064693317	16
1	696	273.434854946575	15
1	697	274.443046687928	14
1	699	274.811331559591	14
1	700	275.276665864232	14
1	702	275.604521323689	14
1	703	276.300460019117	14
1	704	276.505263920365	13
1	705	277.495213654819	12
1	706	279.056078004276	11
1	708	279.786705174168	11
1	713	283.563766836072	12
1	715	283.746374874475	13
1	716	283.842328742703	13
1	720	287.877789673934	13
1	726	289.501816399944	14
1	728	289.828582909702	15
1	730	291.245054276721	16
1	732	291.280188327064	17
1	736	292.393010734509	18
1	741	293.534206201727	19
1	744	294.903161571057	20
1	751	295.935567127913	21
1	753	296.32296760714	21
1	754	297.884105880381	20
1	755	298.64302725942	19
1	756	301.124717429106	18
1	763	306.331207033783	17
1	764	306.561638392288	16
1	765	307.253266575573	15
1	769	309.453808653427	14
1	770	310.124130136198	13
1	772	310.871789702531	13
1	774	311.684139198096	14
1	775	311.968362990978	14
1	776	312.356665772861	13
1	778	312.492989329655	13
1	780	312.565618014964	14
1	781	313.069211931074	14
1	785	314.050897433668	13
1	791	314.438875719894	13
1	793	314.941026190516	14
1	799	316.095452866063	14
1	810	318.835387374389	14
1	814	319.74166300426	15
1	816	320.761030858709	15
1	817	321.974586367398	14
1	818	322.49044408484	13
1	819	322.66618216053	12
1	821	322.780654609882	12
1	822	322.85654157444	12
1	829	324.280732962945	12
1	832	326.048326157677	13
1	836	326.720760683943	13
1	837	328.017345588283	12
1	841	328.852017295962	12
1	846	331.860064210245	12
1	847	331.921525202812	11
1	852	333.966418902791	11
1	853	334.250640271784	11
1	854	334.699723911174	10
1	855	336.086516693426	9
1	857	336.322214232371	9
1	861	341.279443562051	9
1	865	342.694597258641	9
1	867	342.928129370245	10
1	870	344.261720636129	11
1	871	344.694415806909	11
1	878	346.696820592328	10
1	879	348.473700735642	9
1	883	350.061228181181	8
1	885	353.245376434542	8
1	886	354.014908746367	8
1	891	355.997074661615	8
1	892	356.207327116994	8
1	896	358.619550003108	7
1	900	359.517751093654	6
1	902	361.564793054999	6
1	906	363.840148011602	6
1	908	363.921260092155	6
1	910	365.309795855287	7
1	912	365.330375448781	8
1	914	367.626993243128	9
1	915	367.893404130257	9
1	922	369.458603095475	9
1	924	370.558205754313	9
1	926	370.795247651722	9
1	927	371.008766476129	9
1	929	371.021350309146	9
1	930	371.140938421765	9
1	932	371.526315697179	9
1	934	372.121337050391	10
1	935	372.590172086152	10
1	936	372.787485752121	9
1	938	373.13826810305	9
1	945	375.055179551461	9
1	947	376.162917098425	9
1	951	377.586314490389	10
1	959	379.637662498193	10
1	960	380.185826949641	9
1	965	380.699451900309	9
1	966	381.534447815613	9
1	967	381.679475631914	8
1	968	381.717058997848	7
1	972	386.566313938885	6
1	974	387.489192076638	6
1	976	387.771939705842	7
1	980	388.235265972881	8
1	983	388.707224927453	9
1	984	389.718721908192	9
1	986	390.156946497158	9
1	987	392.584573210015	9
1	988	392.6416828043	8
1	992	393.558878912036	8
1	997	395.257433357883	9
1	1000	397.179454140775	10
1	1001	398.518900798255	10
1	1008	401.180183886924	9
1	1009	401.536405263393	8
1	1011	401.543899797768	8
1	1012	401.814732529775	8
1	1014	402.035453791966	8
1	1016	404.380342350905	9
1	1017	405.05882826442	9
1	1018	405.523961659738	8
1	1020	406.260685138798	8
1	1021	406.768809418871	8
1	1022	407.295854722723	7
1	1024	407.427235921623	7
1	1025	407.577746126637	7
1	1027	408.161906102166	7
1	1032	410.734827503441	8
1	1037	411.963323822965	9
1	1039	412.089755500707	10
1	1045	412.611719155512	11
1	1048	412.678837834849	12
1	1054	414.41532796449	13
1	1056	414.551847834789	14
1	1057	416.373472916747	14
1	1058	416.437775125556	13
1	1060	416.655106842561	13
1	1061	419.739614477566	13
1	1065	421.500835579061	12
1	1066	422.759126864615	11
1	1070	424.432267828129	11
1	1079	428.156147610859	12
1	1080	428.3858979718	12
1	1081	429.111409539926	11
1	1085	432.104734393689	10
1	1087	432.667466250696	10
1	1092	435.549725217515	11
1	1093	436.825698870834	11
1	1095	437.926762382014	11
1	1097	438.754039954683	12
1	1099	438.963836355265	13
1	1101	439.093182998578	14
1	1102	439.369677350038	14
1	1106	441.558163812347	13
1	1108	442.262353339076	13
1	1109	442.948190685254	13
1	1111	443.060877216735	13
1	1112	443.188663893606	13
1	1113	444.159281053032	12
1	1115	445.200843901421	12
1	1116	446.549475853977	12
1	1117	447.438228769964	11
1	1118	449.118888259189	10
1	1126	450.244955784099	10
1	1128	450.899491223318	11
1	1129	451.141987065874	11
1	1131	451.369573960604	11
1	1133	451.542899382405	12
1	1140	454.028189301871	12
1	1142	454.64038509653	12
1	1143	454.720189975211	12
1	1145	456.03858205858	12
1	1147	456.94430941224	13
1	1149	457.51509838523	14
1	1151	457.573626238385	15
1	1156	459.323572522282	16
1	1157	459.354948022524	16
1	1158	459.575959551245	15
1	1159	459.75991674409	14
1	1172	465.194840717374	14
1	1175	466.862181214951	15
1	1177	466.876965168617	16
1	1178	467.152695190696	16
1	1179	467.355677568543	15
1	1186	468.533888292044	14
1	1188	468.73149270212	14
1	1192	471.012966133801	14
1	1197	473.104520674939	14
1	1205	475.551004237518	15
1	1212	479.681259947011	16
1	1214	480.812797315827	16
1	1216	482.112868424931	16
1	1218	482.125309251077	17
1	1220	482.709971841603	18
1	1222	483.771545026855	19
1	1223	484.629076297811	19
1	1224	485.945534659751	18
1	1249	490.383004109556	17
1	1250	491.352384946662	16
1	1252	491.789226602813	16
1	1254	491.862449603602	17
1	1258	492.63523018654	18
1	1261	493.813942994595	19
1	1269	495.696833411467	20
1	1270	496.483259834444	20
1	1275	498.236885956018	20
1	1277	498.600112700112	21
1	1278	498.652809793837	21
1	1280	500.151420682702	21
1	1282	500.882070522725	22
1	1284	501.280636412027	23
1	1285	501.770852700016	23
1	1286	502.706444543806	22
1	1294	503.304812569734	22
1	1298	504.12337294746	23
1	1301	504.539988689202	24
1	1303	504.556485324535	25
1	1304	507.933947940136	25
1	1306	508.701246510159	25
1	1320	515.348305395644	26
1	1322	515.50440110481	27
1	1323	516.371746370378	27
1	1324	517.00813363823	26
1	1326	517.076816318593	26
1	1334	519.007031122147	27
1	1335	520.320855459689	27
1	1336	520.408781804758	26
1	1337	521.083444044369	25
1	1339	521.26248801174	25
1	1340	522.409489384283	25
1	1341	522.91876678854	24
1	1348	523.639234579622	24
1	1350	524.136468704903	24
1	1351	525.18677858299	23
1	1355	530.416450086392	22
1	1359	531.054809976844	22
1	1367	532.943015504882	22
1	1368	533.294491676097	21
1	1370	534.046591853325	21
1	1372	534.340251030187	22
1	1373	534.953882525752	22
1	1374	535.261336957687	21
1	1378	535.675437582129	20
1	1385	536.411413028639	20
1	1387	537.027880380723	20
1	1389	538.06669720375	20
1	1390	538.460154477721	20
1	1391	538.538436452714	19
1	1393	539.574582500186	19
1	1398	542.500156457404	20
1	1402	543.659033633739	20
1	1415	546.36815959886	19
1	1416	546.894576221731	18
1	1417	547.391121774025	17
1	1424	551.724858026787	16
1	1425	552.466161766301	15
1	1430	553.598708621342	15
1	1437	555.393597282261	15
1	1439	556.074667309179	15
1	1449	559.602797133151	15
1	1450	560.236190520189	14
1	1452	561.51419033551	14
1	1454	562.199187155308	15
1	1459	562.904423505964	16
1	1463	564.996381673774	16
1	1464	565.726229784314	15
1	1466	569.60124076322	15
1	1468	569.858041610029	16
1	1472	571.462111843395	16
1	1474	572.829344893433	16
1	1479	573.158093239892	17
1	1480	573.482079096925	17
1	1481	574.203458002895	16
1	1485	575.956485813345	15
1	1490	577.198820047967	15
1	1491	578.288810640664	15
1	1493	579.313515827612	15
1	1494	579.625820581299	15
1	1495	581.228313350454	14
1	1496	581.526858236964	13
1	1498	582.503683348599	13
1	1502	583.869967206784	13
1	1504	584.795572298927	13
1	1506	585.467444888496	14
1	1507	586.152112117059	14
1	1508	587.218158130955	13
1	1512	588.942931850394	12
1	1513	589.864099310227	11
1	1517	590.77632100618	10
1	1518	590.808949325479	9
1	1519	591.591557395046	8
1	1523	593.599886558252	7
1	1527	594.6133055717	6
1	1529	594.900908004589	6
1	1530	595.079194161482	6
1	1534	596.349448310285	6
1	1536	596.583013799032	6
1	1537	596.730069590432	5
1	1538	596.848075659148	4
1	1539	597.867386002058	3
1	1540	598.141235648437	2
1	1541	599.234439570525	1
1	1542	599.722123185552	0
1	1544	600.991098714885	0
1	1546	601.962252459894	1
1	1548	602.157669431664	2
1	1549	602.325942827848	2
1	1551	602.84323994717	2
1	1552	603.742186638292	2
1	1556	606.002576030827	1
1	1557	606.501435882156	0
1	1562	607.478291230947	0
1	1563	608.382612518885	0
1	1565	608.391923819205	0
1	1566	609.312110747091	0
1	1568	612.491700695911	0
1	1569	613.449242430397	0
1	1571	615.969444144566	0
1	1572	616.268605757544	0
1	1574	616.949056471356	0
1	1575	617.591684796223	0
1	1577	618.924353671939	0
1	1579	620.72739097878	1
1	1581	621.937513668933	2
1	1582	622.517050103591	2
1	1583	622.855252344314	1
1	1587	624.302969076812	0
1	1589	626.16702247806	0
1	1591	626.256065164082	1
1	1593	627.833295510255	2
1	1594	628.340732500853	2
1	1595	629.28832366347	1
1	1596	629.462575597773	0
1	1601	633.262472245358	0
1	1602	633.651884921994	0
1	1604	635.534797765259	0
1	1612	637.501306561309	1
1	1616	638.341353217539	2
1	1624	640.0853284916	3
1	1626	640.769430833106	4
1	1633	641.556290853387	5
1	1635	642.086775558115	6
1	1638	644.038793990358	6
1	1639	646.63264891182	5
1	1640	646.6786991145	4
1	1644	647.574416817049	4
1	1646	648.337150194382	4
1	1647	651.772689994327	3
1	1648	652.764979179196	2
1	1661	654.653012412941	2
1	1663	655.898137270525	2
1	1665	657.719062277451	2
1	1667	658.631643992538	3
1	1671	659.689215894007	3
1	1673	660.463967717032	3
1	1674	662.236178731976	3
1	1675	662.908972735436	2
1	1680	664.329311241384	2
1	1681	665.16957546547	2
1	1685	669.752039602909	1
1	1686	669.925559603199	0
1	1688	670.504229074384	0
1	1697	673.629397145121	1
1	1700	674.965279518824	1
1	1702	675.202129326981	1
1	1704	675.263205081224	2
1	1711	678.993694244003	2
1	1715	679.515168806542	2
1	1718	680.625703364192	3
1	1720	680.840225954335	4
1	1721	682.233637111205	4
1	1723	683.662567166583	4
1	1724	685.152842854595	4
1	1725	686.442706329435	3
1	1727	687.027909522387	3
1	1728	688.831273414006	3
1	1736	691.011617318946	3
1	1737	691.618109260888	3
1	1738	691.956554214797	2
1	1740	692.333775383715	2
1	1747	692.739364653747	3
1	1749	692.970925504457	4
1	1751	693.318186518804	5
1	1757	694.043067669416	6
1	1762	694.715767541924	7
1	1763	695.213918868543	7
1	1764	697.017899636717	6
1	1765	697.32082959264	5
1	1767	697.980512462204	5
1	1769	698.276140260793	6
1	1771	699.652324435182	7
1	1772	699.667149608942	7
1	1774	699.991259249526	7
1	1775	701.611264279174	7
1	1780	702.794302320766	7
1	1781	703.013033153989	7
1	1783	703.522651879602	7
1	1784	703.958981171509	7
1	1785	703.989786955499	6
1	1798	708.570098370689	5
1	1800	710.370513356963	5
1	1801	710.546585245106	5
1	1802	710.797438541344	4
1	1803	712.390731703032	3
1	1805	713.732176463596	3
1	1810	715.742023902979	4
1	1812	716.66829490177	5
1	1814	716.939037359901	6
1	1816	717.153226160752	7
1	1820	717.738078337978	8
1	1823	718.285510687493	9
1	1827	718.544403025417	9
1	1829	719.000477343563	9
1	1833	719.963917153176	10
1	1835	720.207717045427	11
1	1838	720.331630671143	12
1	1840	720.400395405342	13
1	1842	720.963810658564	14
1	1843	721.602949733516	14
1	1845	722.502067766059	14
1	1847	723.06900462648	15
1	1849	723.204908080855	16
1	1850	723.356557458507	16
1	1851	723.7141771831	15
1	1853	723.949269455925	15
1	1854	724.956623490339	15
1	1856	726.440864344388	15
1	1857	727.1603849251	15
1	1858	727.446136490639	14
1	1860	727.974211859854	14
1	1862	728.906996169951	15
1	1863	729.627687434193	15
1	1865	729.743513884113	15
1	1866	730.261119416498	15
1	1867	730.412755100842	14
1	1874	731.580977835044	14
1	1879	732.75063986024	14
1	1880	734.454796396595	13
1	1884	734.750430549978	13
1	1890	737.083182786272	14
1	1895	738.060293341071	15
1	1899	739.006570567269	15
1	1900	739.132678931696	14
1	1902	739.363158228314	14
1	1904	740.484891467942	15
1	1908	740.722464329768	15
1	1909	741.040011183958	14
1	1911	741.53304712305	14
1	1912	742.258273942189	14
1	1916	743.512695959406	13
1	1922	744.263931057554	13
1	1924	745.557228745766	14
1	1927	746.073173964946	15
1	1929	747.483905535591	15
1	1937	749.929734637088	15
1	1939	750.704025780775	16
1	1940	750.742965132635	16
1	1941	753.730227959984	15
1	1943	755.619127283081	15
1	1944	756.348130679341	15
1	1945	756.905479073262	14
1	1949	757.644589088627	14
1	1951	758.466619603065	14
1	1959	760.400336550135	14
1	1960	761.549928984352	14
1	1961	761.674860176493	13
1	1962	761.865598465205	12
1	1963	761.954811331752	11
1	1964	762.344509480049	10
1	1965	762.429428485657	9
1	1967	762.604668923631	9
1	1968	763.703068397222	9
1	1969	764.731126617658	8
1	1973	765.813044881085	7
1	1974	766.150737674823	6
1	1976	766.381057309596	6
1	1978	766.800195027677	7
1	1983	768.237847914121	8
1	1984	768.845449812069	8
1	1985	770.09116525528	7
1	1989	770.863645988031	7
1	1994	771.671257466464	8
1	1997	772.499753902783	9
1	1999	772.675654956615	10
1	2001	774.307021466479	11
1	2003	774.600044700512	12
1	2005	774.718895218699	13
1	2007	775.548947359161	14
1	2008	775.951389146644	14
1	2012	778.022677021191	13
1	2013	778.520025673242	12
1	2015	779.491491685217	12
1	2016	779.691505927372	12
1	2017	780.281615072361	11
1	2018	780.328071541559	10
1	2019	780.329526990265	9
1	2021	780.385367403109	9
1	2023	780.621784386916	10
1	2024	781.289195508491	10
1	2025	784.975144590824	9
1	2030	785.917730062172	9
1	2031	785.991847896931	9
1	2033	786.331002551152	9
1	2034	787.048996268975	9
1	2038	787.572906066113	9
1	2041	789.098886464782	10
1	2042	789.23306436205	10
1	2043	789.614345564176	9
1	2047	790.364506074733	9
1	2050	791.652535713532	10
1	2052	792.027627912801	11
1	2053	792.189872455104	11
1	2066	796.120130966293	10
1	2067	796.241032897676	9
1	2068	796.613372234241	8
1	2070	796.840835714111	8
1	2071	797.060708890787	8
1	2078	800.744792734454	7
1	2080	801.301956146607	7
1	2081	801.400970780863	7
1	2082	801.55850152054	6
1	2086	806.399850776083	5
1	2087	807.091022592407	4
1	2092	808.958320926782	4
1	2094	809.698290272772	5
1	2096	809.794276640194	6
1	2098	810.22227233521	7
1	2100	810.305993379206	8
1	2102	810.877347008016	9
1	2109	818.323533007155	9
1	2113	818.841902979124	9
1	2115	819.578412913028	9
1	2119	821.671605420085	8
1	2121	822.380729675291	8
1	2126	823.640307002502	9
1	2127	823.682954178577	9
1	2129	823.68642872006	9
1	2131	823.807280122529	10
1	2132	824.753653697929	10
1	2133	824.827362573949	9
1	2135	825.598636430413	9
1	2137	826.257401062261	10
1	2141	827.910247380292	10
1	2142	828.592387987219	9
1	2143	829.330457505697	8
1	2145	830.342019687878	8
1	2146	831.057536728414	8
1	2151	831.693478260251	8
1	2152	832.543103934679	8
1	2156	833.990750821461	7
1	2157	834.49566607517	6
1	2158	834.550585030603	5
1	2160	834.609241677807	5
1	2162	834.791629094641	6
1	2164	836.008488464083	7
1	2165	836.630945213075	7
1	2169	839.691901722114	6
1	2171	839.727843360745	6
1	2172	839.962178283231	6
1	2173	840.608834627163	5
1	2174	841.813930210587	4
1	2175	842.380499119035	3
1	2182	843.900089386018	2
1	2184	844.239055403477	2
1	2185	844.379359592536	2
1	2187	844.979354935869	2
1	2189	846.325860118261	3
1	2191	847.010886471935	4
1	2192	847.862310602873	4
1	2193	849.037022606598	3
1	2195	849.729962637649	3
1	2199	850.742074476038	3
1	2203	852.363316763337	3
1	2208	855.182189575876	3
1	2210	855.277159670321	3
1	2211	856.451920626904	3
1	2212	857.446375552003	2
1	2214	859.529184182117	2
1	2216	859.554845728535	3
1	2220	861.148643437401	3
1	2224	861.529516611735	3
1	2226	862.843466167993	3
1	2228	862.894165958419	3
1	2230	862.964085741769	4
1	2234	864.357676933008	4
1	2236	865.13900238425	4
1	2238	866.16461789288	5
1	2242	866.710079800631	5
1	2244	867.112147343559	5
1	2246	868.272233319159	6
1	2247	868.805044461006	6
1	2254	869.723487675058	6
1	2262	872.590924062446	7
1	2264	872.882087255682	8
1	2266	872.994868339207	9
1	2269	874.019550717843	10
1	2271	874.611544290343	11
1	2278	876.698015794134	12
1	2280	878.371393776468	12
1	2282	878.866718934781	12
1	2286	880.147590206861	13
1	2289	881.18099809948	14
1	2291	881.904012643982	15
1	2293	882.191457251725	16
1	2295	883.139191708098	17
1	2305	887.736942881921	17
1	2307	887.800542946517	17
1	2311	889.741117794726	17
1	2312	889.772701495863	16
1	2314	889.96048418431	16
1	2315	890.741039565916	16
1	2329	893.350430565897	16
1	2331	893.620031300181	17
1	2332	894.13429431954	17
1	2334	895.944496103152	17
1	2341	898.671175315006	17
1	2343	898.796020136113	17
1	2345	898.87589862089	18
1	2347	899.574548430165	19
1	2351	900.856633769966	19
1	2355	902.322227743739	19
1	2357	902.677500965841	19
1	2359	902.901775882538	19
1	2364	904.346273693669	20
1	2368	906.805015995948	21
1	2374	910.689700339375	22
1	2381	913.958663437541	22
1	2386	914.48646869159	22
1	2388	915.783991905848	23
1	2392	917.312554885849	23
1	2417	920.744289264531	23
1	2420	921.830489961218	24
1	2424	923.247349587448	24
1	2426	924.206910534062	24
1	2428	924.532897422014	25
1	2429	924.559011116191	25
1	2430	927.233861519526	24
1	2431	928.432690534529	23
1	2432	929.849100878568	22
1	2433	930.198877924193	21
1	2440	931.378144278893	20
1	2441	931.756590503763	19
1	2443	931.993365591718	19
1	2445	932.643119995306	20
1	2446	933.72182966703	20
1	2447	934.330558308111	19
1	2448	937.196451230632	18
1	2449	937.310976876548	17
1	2450	937.936883077264	16
1	2452	938.209534824407	16
1	2454	938.381000704427	17
1	2455	938.752561905591	17
1	2456	940.148666960329	16
1	2458	940.369855724058	16
1	2459	940.383888483522	16
1	2460	940.936640849103	15
1	2462	941.269572000006	15
1	2463	941.32444228109	15
1	2465	941.351477883992	15
1	2466	943.927293581771	15
1	2476	947.026172460387	15
1	2482	950.59456105635	16
1	2483	951.274698740566	16
1	2489	951.920154841699	16
1	2499	957.821783409451	17
1	2501	958.275023536259	18
1	2503	958.565624024478	19
1	2505	958.871184213117	20
1	2506	959.251361115664	20
1	2513	960.683717700549	20
1	2515	960.725258968431	21
1	2517	961.214627074418	22
1	2519	961.375885371565	23
1	2521	961.861223509114	23
1	2523	961.898424208484	23
1	2525	962.776227735189	24
1	2530	965.427256469838	25
1	2537	970.03126658117	26
1	2543	970.580486343356	27
1	2545	971.375038951577	28
1	2552	973.114783826659	28
1	2554	973.284862388747	28
1	2556	973.586254933578	29
1	2557	975.22147576212	29
1	2559	976.632344493116	29
1	2560	976.771683514213	29
1	2561	977.06472251476	28
1	2563	977.415724402925	28
1	2564	977.510853671559	28
1	2566	979.338244836848	28
1	2568	980.236638374075	29
1	2570	980.287507845727	30
1	2572	980.838182407919	31
1	2574	981.905615888519	32
1	2576	982.965675496105	33
1	2587	985.63227335014	34
1	2589	985.994567055262	35
1	2591	986.068375188738	36
1	2592	986.869012766769	36
1	2605	988.938836373516	36
1	2608	989.759970820373	37
1	2609	989.799923778885	37
1	2610	991.318530949709	36
1	2612	992.418623513207	36
1	2614	993.145171198349	37
1	2615	994.779895643535	37
1	2619	997.831489858165	36
1	2620	998.324061148617	35
1	2634	1002.05636676667	35
1	2635	1003.130332522926	35
1	2636	1004.02716990794	34
1	2637	1004.208044209968	33
1	2638	1004.314529345115	32
1	2639	1004.398565976545	31
1	2640	1005.110174646761	30
1	2645	1005.469100675174	30
1	2647	1006.487989657639	31
1	2649	1006.867693717407	32
1	2650	1007.170345868191	32
1	2651	1007.33495560439	31
1	2652	1008.077734357129	30
1	2656	1010.03662377281	30
1	2661	1011.739898010375	31
1	2663	1013.236648488134	31
1	2665	1014.546075475039	31
1	2667	1014.75714936407	32
1	2671	1014.978037911799	32
1	2675	1016.302281457436	31
1	2677	1017.020983285526	31
1	2682	1018.786863745922	32
1	2684	1018.834858960923	33
1	2688	1019.978246709294	33
1	2689	1020.487720656378	32
1	2690	1021.242213933468	31
1	2691	1022.153733112218	30
1	2692	1022.233182366413	29
1	2694	1022.261059221063	29
1	2695	1022.509007415598	29
1	2696	1022.646908391073	28
1	2700	1023.385738006925	28
1	2703	1024.502060522598	29
1	2704	1025.792657106038	29
1	2705	1026.58567903248	28
1	2706	1028.027885888476	27
1	2707	1028.136928909253	26
1	2708	1029.980772647001	25
1	2715	1031.795931750109	24
1	2719	1032.415954916141	24
1	2721	1032.609277119471	24
1	2723	1033.383843195667	24
1	2734	1036.245585759952	25
1	2735	1037.690612793949	25
1	2739	1039.9254602486	24
1	2740	1041.241015244024	23
1	2741	1041.266827537706	22
1	2742	1041.575138513687	21
1	2743	1041.91302974631	20
1	2745	1042.536284243379	20
1	2746	1042.624847576365	20
1	2750	1043.545415780815	19
1	2751	1044.252712540554	18
1	2753	1044.25550391002	18
1	2754	1044.6207892306	18
1	2761	1048.620780257348	17
1	2763	1050.05554868538	17
1	2764	1050.824774800643	17
1	2766	1051.562165622234	17
1	2768	1051.647759031616	18
1	2769	1052.199387509266	18
1	2771	1052.27648213223	18
1	2773	1052.376015967031	19
1	2780	1052.791646883298	20
1	2785	1055.269356393943	20
1	2786	1056.072836131759	19
1	2788	1056.888498936894	19
1	2790	1056.949813555143	20
1	2797	1060.218202098942	20
1	2798	1060.521703741876	19
1	2799	1060.527973722647	18
1	2801	1060.718506141392	18
1	2811	1063.406756529606	19
1	2813	1064.101235153524	19
1	2814	1064.377672564131	18
1	2816	1064.403436418008	18
1	2822	1065.891211354317	19
1	2829	1067.885947048395	20
1	2831	1068.876064530313	21
1	2832	1069.455793132526	21
1	2833	1069.513477703136	20
1	2837	1071.606059666449	19
1	2838	1072.247499948049	18
1	2842	1073.596533116485	17
1	2843	1074.442064246506	16
1	2845	1076.098758570456	16
1	2847	1077.456040800645	17
1	2849	1078.111422015291	18
1	2851	1078.130439695031	19
1	2852	1078.919294854275	19
1	2857	1081.180798493842	19
1	2862	1082.486408923318	20
1	2864	1083.954673213538	21
1	2866	1084.307908395557	22
1	2873	1085.696144645749	22
1	2874	1086.211589495014	21
1	2875	1086.85934145981	20
1	2876	1086.943067973028	19
1	2877	1087.425548599819	18
1	2879	1088.295874870339	18
1	2881	1088.933799817956	19
1	2882	1089.170602232102	19
1	2889	1091.298393848909	19
1	2894	1094.032436852305	19
1	2896	1094.183128625918	19
1	2903	1095.659522226045	20
1	2906	1096.509958673047	21
1	2911	1097.907237473239	22
1	2927	1102.497720949522	22
1	2929	1102.538109805446	22
1	2930	1103.353030945649	22
1	2932	1103.554002060254	22
1	2933	1103.987963616687	22
1	2934	1104.430825337117	21
1	2935	1104.551240713098	20
1	2939	1106.099044659995	19
1	2946	1107.527110190997	19
1	2948	1108.614857039178	19
1	2953	1110.52617961693	19
1	2955	1110.828096622724	20
1	2957	1111.001444666887	21
1	2967	1114.413045892959	21
1	2969	1115.123977878044	21
1	2970	1115.525565160802	21
1	2971	1115.618663216936	20
1	2972	1115.795508056441	19
1	2974	1115.909888064889	19
1	2976	1117.359280651714	20
1	2978	1118.062575062433	21
1	2986	1120.215885177043	22
1	2987	1120.92803314813	22
1	2988	1123.158897733275	21
1	2990	1124.001575553511	21
1	3000	1127.513708089916	21
1	3010	1129.911701382182	21
1	3016	1131.225447434091	22
1	3030	1132.887034422351	23
1	3032	1133.572329405443	24
1	3036	1134.268331030468	25
1	3038	1134.485374633426	26
1	3043	1135.674437994318	26
1	3044	1135.762291151941	25
1	3045	1136.22054339384	24
1	3046	1136.615980965493	23
1	3050	1137.394333459077	22
1	3051	1137.534382843747	21
1	3053	1138.672245801262	21
1	3054	1140.214241262471	21
1	3061	1141.339230393017	20
1	3063	1141.850170217564	20
1	3065	1142.39576746866	21
1	3077	1145.116414562576	22
1	3084	1147.3239532748	23
1	3085	1148.008340824264	23
1	3086	1148.043266574514	22
1	3087	1148.264478130455	21
1	3088	1148.569954863785	20
1	3089	1150.073908201079	19
1	3091	1150.226738157374	19
1	3095	1151.663375142826	19
1	3096	1152.288037332614	18
1	3098	1153.584484692193	18
1	3102	1155.669042354509	18
1	3103	1156.410488094838	17
1	3105	1158.442806050887	17
1	3106	1158.88448940654	17
1	3107	1158.960990075376	16
1	3117	1162.275312879734	16
1	3120	1162.777286319667	17
1	3122	1162.981825429311	18
1	3123	1163.618214031698	18
1	3127	1164.256372217686	18
1	3138	1166.098463036688	18
1	3142	1166.400005057013	17
1	3146	1168.185049825066	16
1	3147	1168.221466860832	15
1	3148	1168.422488287136	14
1	3153	1169.458281793068	14
1	3158	1170.87046185717	15
1	3160	1171.762910082781	16
1	3162	1172.299876937193	17
1	3163	1173.160706042617	17
1	3165	1173.444508288733	17
1	3167	1174.280109337037	18
1	3174	1176.501041101479	18
1	3175	1177.168536086622	17
1	3180	1178.876877048368	17
1	3184	1180.349002731872	18
1	3186	1181.072366575469	19
1	3188	1181.106909927313	20
1	3191	1181.366234766103	21
1	3193	1182.175503277863	22
1	3195	1182.682402542017	23
1	3196	1184.218077237608	23
1	3197	1184.641908886496	22
1	3199	1186.568692938441	22
1	3205	1186.751129821512	23
1	3209	1187.350211795096	24
1	3213	1187.734281639159	24
1	3215	1189.330758149853	24
1	3226	1192.00724347507	25
1	3227	1192.628819824664	25
1	3228	1193.197873723813	24
1	3230	1194.874700665109	24
1	3232	1194.985922167526	25
1	3233	1196.361064239549	25
1	3237	1198.577797203377	25
1	3239	1198.628298854561	26
1	3245	1200.761114000464	27
1	3246	1201.869985555336	27
1	3247	1202.540130775958	26
1	3249	1202.638867412378	26
1	3251	1203.481490110085	27
1	3253	1203.842182706533	28
1	3254	1204.239673495589	28
1	3261	1207.876297927661	27
1	3262	1208.001349642057	26
1	3264	1208.015390119734	26
1	3268	1209.531449675078	26
1	3272	1210.019013155173	26
1	3274	1211.151491989667	26
1	3278	1212.380622148533	25
1	3280	1212.644532485883	25
1	3284	1213.925599251286	26
1	3289	1214.800586807014	27
1	3294	1215.935068700279	28
1	3297	1217.447014301065	29
1	3298	1217.522397790644	29
1	3300	1217.833389615559	29
1	3301	1218.829037342532	29
1	3302	1219.096266487624	28
1	3303	1219.264796127876	27
1	3305	1219.293224564598	27
1	3306	1219.549394030005	27
1	3308	1220.110188045201	27
1	3309	1220.222011418758	27
1	3310	1220.910706955716	26
1	3312	1221.699362423915	26
1	3313	1221.785372930205	26
1	3315	1222.301251894022	26
1	3317	1224.753694838368	27
1	3318	1224.959087694719	27
1	3320	1225.960417052838	27
1	3321	1227.288066981424	27
1	3322	1228.025489979084	26
1	3324	1229.522980089873	26
1	3329	1230.755729843372	27
1	3333	1230.972549918815	28
1	3339	1233.977009744675	29
1	3340	1234.44219737647	29
1	3341	1234.986957312355	28
1	3348	1236.304511540487	28
1	3351	1237.364836941697	29
1	3370	1245.158294978542	30
1	3373	1245.905037733893	31
1	3386	1249.845299792937	32
1	3391	1251.163521646486	32
1	3392	1251.389558023897	31
1	3396	1251.983652852575	31
1	3398	1252.932939455075	31
1	3399	1253.214154537174	30
1	3403	1256.970161899662	29
1	3404	1257.558647601012	28
1	3409	1258.032298645133	28
1	3410	1259.09542173555	28
1	3411	1259.636028628646	27
1	3413	1259.973085397428	27
1	3421	1261.636394154238	28
1	3424	1262.541876512799	29
1	3427	1263.387399728953	30
1	3429	1264.341901204186	30
1	3430	1264.523503833828	29
1	3431	1265.379174198267	28
1	3438	1267.196004198601	28
1	3440	1267.522059386243	28
1	3442	1267.540202386307	28
1	3447	1268.382606947813	29
1	3448	1270.042171233236	29
1	3450	1271.442625525132	29
1	3457	1274.210976087827	29
1	3464	1276.882698256045	28
1	3471	1278.200722721546	27
1	3475	1280.162118938722	26
1	3485	1285.153754777877	26
1	3491	1286.306009461028	27
1	3492	1286.830021917565	27
1	3496	1288.341687348041	26
1	3497	1290.218833897397	25
1	3499	1290.914439750495	25
1	3501	1292.863996654201	26
1	3506	1293.289534382289	27
1	3508	1294.231198104848	28
1	3510	1294.505919227726	29
1	3511	1294.655091192645	29
1	3513	1295.096108432868	29
1	3521	1297.728531970089	30
1	3523	1298.205093805724	31
1	3530	1301.637411148718	32
1	3532	1301.772898041849	33
1	3546	1304.970523443965	33
1	3553	1309.445214473182	32
1	3555	1309.867567836235	32
1	3556	1310.977424776654	32
1	3557	1311.057834681385	31
1	3565	1313.609964829862	31
1	3572	1314.650605726377	32
1	3574	1315.215915370328	33
1	3576	1316.764787921724	33
1	3577	1318.975626544934	32
1	3579	1319.299817434249	32
1	3581	1320.669921146508	33
1	3586	1322.484367589255	34
1	3588	1323.268492625065	35
1	3593	1324.427600802997	36
1	3598	1327.25676577397	37
1	3600	1327.28437337924	38
1	3601	1327.459418186159	38
1	3602	1328.717246271096	37
1	3604	1329.177458542988	37
1	3606	1329.320287366822	38
1	3614	1331.758142531396	39
1	3618	1333.543803615461	39
1	3620	1333.553868204386	39
1	3621	1333.86116824911	39
1	3625	1334.745049182686	38
1	3627	1335.100258174282	38
1	3628	1335.499306942635	38
1	3630	1335.687657857426	38
1	3631	1335.730834514778	38
1	3633	1335.943217921073	38
1	3634	1336.360734999664	38
1	3635	1337.505188575727	37
1	3636	1337.544746668393	36
1	3638	1337.688922784702	36
1	3639	1337.845584947824	36
1	3640	1338.914176363913	35
1	3647	1340.83357786881	35
1	3649	1340.835704033128	36
1	3652	1341.75998521793	37
1	3657	1345.840229886605	38
1	3667	1350.104923043499	38
1	3671	1350.515176304515	38
1	3677	1352.730546834253	39
1	3678	1353.216379266133	39
1	3679	1353.345585091589	38
1	3680	1353.351583791782	37
1	3681	1353.964641416124	36
1	3682	1354.458758000111	35
1	3684	1354.93925886525	35
1	3685	1355.296345129779	35
1	3686	1356.1400636805	34
1	3688	1356.862327505917	34
1	3689	1356.944462924977	34
1	3690	1359.330736807008	33
1	3691	1359.401476501217	32
1	3692	1360.8947981692	31
1	3694	1361.58453933563	31
1	3695	1361.876903696515	31
1	3702	1363.084129856982	30
1	3703	1363.951743597505	29
1	3704	1365.336354957588	28
1	3708	1366.218669913806	27
1	3710	1366.287358960408	27
1	3712	1366.320259126586	28
1	3713	1366.844832512877	28
1	3715	1367.385336351219	28
1	3719	1368.540972358444	28
1	3727	1371.680449795183	28
1	3728	1372.975583854181	28
1	3733	1374.046801332092	28
1	3735	1374.174282694886	29
1	3737	1374.383423453067	30
1	3738	1376.516320413861	30
1	3739	1376.594177062504	29
1	3741	1378.105224689723	29
1	3742	1378.234281758936	29
1	3744	1378.961695646879	29
1	3746	1379.460749556414	30
1	3747	1380.360882792684	30
1	3749	1380.946212912092	30
1	3750	1381.333190230774	30
1	3752	1382.71493562504	30
1	3753	1382.919441028799	30
1	3754	1383.827237625768	29
1	3756	1383.970463710835	29
1	3757	1384.471552399276	29
1	3761	1384.905759208128	29
1	3764	1385.530237200379	30
1	3770	1386.411912937177	31
1	3774	1386.853540994435	32
1	3778	1389.782351205948	33
1	3781	1391.116775530314	34
1	3782	1391.218522640493	34
1	3784	1391.238208499035	34
1	3788	1391.857190134787	35
1	3793	1392.648604081613	35
1	3794	1394.057431073311	34
1	3796	1394.234460664517	34
1	3798	1394.677887549861	35
1	3799	1394.754661991954	35
1	3800	1394.920389876814	34
1	3801	1395.1226404859	33
1	3802	1395.544707701632	32
1	3806	1396.856551533319	32
1	3809	1397.055987806456	33
1	3810	1397.544227811728	33
1	3811	1397.693204738904	32
1	3812	1398.132679220835	31
1	3813	1398.24593551861	30
1	3817	1399.07869975114	29
1	3819	1399.626453002629	29
1	3821	1399.632623758386	30
1	3822	1399.862646905567	30
1	3823	1400.878776597312	29
1	3827	1400.969147392283	29
1	3829	1400.988846236335	30
1	3831	1401.081435045505	30
1	3833	1401.156693012156	30
1	3835	1402.665363018929	31
1	3836	1402.795320668284	31
1	3837	1403.151320907916	30
1	3838	1403.437369027121	29
1	3839	1403.82983044845	28
1	3841	1405.798859520831	28
1	3842	1405.88648588584	28
1	3843	1406.218947661059	27
1	3845	1406.496429571685	27
1	3846	1409.136433296101	27
1	3858	1411.209215409797	27
1	3864	1413.880331275216	27
1	3866	1414.212621533177	27
1	3868	1414.29431436591	28
1	3870	1415.375385167471	29
1	3871	1416.072392000459	29
1	3873	1416.193390911254	29
1	3875	1416.344800628048	30
1	3877	1416.535630281738	31
1	3890	1423.168512720016	32
1	3895	1423.914738338322	32
1	3897	1425.828454334456	32
1	3898	1425.992953322684	32
1	3900	1426.037804791246	32
1	3902	1426.080649856349	33
1	3903	1427.061645121101	33
1	3907	1428.454743194221	32
1	3912	1430.24872521602	32
1	3913	1432.734878857289	32
1	3914	1434.047883356097	31
1	3918	1435.171883793422	31
1	3922	1435.388487534755	32
1	3924	1435.593754591122	33
1	3928	1437.745354399968	34
1	3931	1438.304454925302	35
1	3933	1439.296325037721	36
1	3936	1439.792389140316	36
1	3940	1441.541840572468	35
1	3942	1442.49445678213	35
1	3943	1443.879027090651	35
1	3950	1446.491968987116	35
1	3955	1448.336034830823	35
1	3957	1449.126648777879	35
1	3959	1450.425797680999	36
1	3961	1451.114669665979	37
1	3962	1451.116659544735	37
1	3963	1451.932268660989	36
1	3967	1452.85696429946	36
1	3970	1453.166644901387	37
1	3975	1454.671745561677	38
1	3977	1455.601122173342	39
1	3978	1456.656836303779	39
1	3982	1458.38877662089	38
1	3983	1458.617326293608	37
1	3984	1459.477475968133	36
1	3986	1460.648711502757	36
1	3988	1461.454875957591	37
1	3989	1461.514835231744	37
1	3990	1461.839118549185	36
1	3992	1461.970864214731	36
1	4002	1464.484616589486	36
1	4003	1466.059103735964	35
1	4014	1468.191408501081	35
1	4025	1469.676817396707	36
1	4026	1470.411185448383	36
1	4028	1470.907196537384	36
1	4030	1471.122960687122	37
1	4031	1471.65999980302	37
1	4032	1471.892719396383	36
1	4034	1472.217769313926	36
1	4035	1473.431440007604	36
1	4037	1474.05847201164	36
1	4042	1476.07286612109	37
1	4044	1477.287353495445	38
1	4045	1478.482173882345	38
1	4046	1478.50202900306	37
1	4051	1481.411160884909	37
1	4052	1482.718116584048	37
1	4053	1483.304537513396	36
1	4054	1484.082128065804	35
1	4056	1484.184611754341	35
1	4057	1484.195765074208	35
1	4058	1484.33466576581	34
1	4060	1484.532269857009	34
1	4061	1484.930925874077	34
1	4062	1484.958726982084	33
1	4063	1485.010530457742	32
1	4064	1485.086889974846	31
1	4065	1485.225941511781	30
1	4066	1488.212882393182	29
1	4074	1491.524878831828	29
1	4075	1492.68151525279	29
1	4077	1492.877252456723	29
1	4079	1492.904141200896	30
1	4080	1493.757805352952	30
1	4082	1495.617267901314	30
1	4083	1496.069448240704	30
1	4085	1496.794360663664	30
1	4087	1497.233924920796	31
1	4091	1498.686141241884	31
1	4093	1499.242905183	31
1	4098	1499.738490678113	32
1	4105	1506.801132768031	32
1	4110	1508.576102631514	32
1	4111	1508.780563307609	32
1	4113	1510.313940049269	32
1	4114	1510.813719616682	32
1	4116	1511.502407470341	32
1	4118	1512.037000727407	33
1	4119	1512.377439411678	33
1	4120	1516.405921854515	32
1	4121	1517.097604654713	31
1	4122	1518.833415947195	30
1	4126	1520.841831769205	29
1	4127	1521.228885937068	28
1	4138	1525.92865668829	28
1	4140	1526.01199109207	29
1	4141	1526.545287514376	29
1	4143	1527.329994827684	29
1	4145	1527.81762498665	30
1	4150	1530.113810825012	31
1	4151	1530.263573225754	31
1	4153	1532.58049946269	31
1	4157	1534.336735860168	31
1	4159	1534.750777094932	31
1	4163	1536.121776099833	32
1	4169	1536.611081870955	33
1	4177	1540.455353589286	34
1	4179	1540.607153496852	35
1	4181	1541.191932938206	36
1	4182	1541.328585513949	36
1	4183	1542.984307683143	35
1	4185	1543.097648412538	35
1	4189	1544.536410822526	35
1	4193	1545.844091891848	34
1	4194	1547.225859860229	33
1	4195	1547.679352602681	32
1	4197	1548.478398153235	32
1	4199	1548.854544156774	33
1	4201	1549.019537573675	34
1	4205	1550.20506139001	35
1	4207	1551.282047793167	35
1	4220	1554.628227553127	35
1	4222	1555.250239202534	36
1	4228	1556.610910516678	37
1	4229	1556.680395241653	37
1	4239	1559.486925376027	36
1	4240	1561.248289761228	35
1	4241	1561.439956069061	34
1	4245	1562.068800068483	34
1	4248	1563.746807338227	35
1	4249	1564.433056426278	35
1	4253	1565.008891100129	35
1	4262	1566.761601431781	36
1	4272	1568.237432700108	37
1	4274	1568.275909011025	38
1	4277	1568.845538183208	39
1	4279	1570.554782329879	40
1	4281	1572.872740192203	41
1	4282	1572.97043462581	41
1	4289	1577.629574363941	40
1	4293	1578.123248052838	40
1	4296	1579.109494952383	41
1	4297	1579.989814945631	41
1	4299	1580.028078976878	41
1	4300	1580.104131056676	41
1	4302	1580.687585322562	41
1	4304	1581.177307057626	42
1	4305	1581.275662301461	42
1	4307	1581.402239537482	42
1	4311	1581.795600765488	43
1	4316	1584.342055245719	43
1	4317	1585.19869249806	42
1	4318	1588.733704585301	41
1	4319	1588.80109014246	40
1	4320	1589.447696254476	39
1	4322	1590.27167833921	39
1	4328	1591.007218690157	40
1	4331	1591.345165442397	41
1	4333	1591.990328944626	41
1	4334	1592.221648353514	40
1	4335	1592.482194144574	39
1	4336	1592.863990119772	38
1	4337	1593.405762665017	37
1	4338	1594.27897724332	36
1	4340	1597.351588738813	36
1	4347	1599.153118941061	36
1	4348	1599.304691951441	35
1	4352	1600.563500640362	34
1	4354	1601.68163417456	34
1	4358	1603.217831202415	35
1	4360	1603.345110824189	36
1	4362	1604.279080790092	36
1	4363	1604.698477211981	35
1	4364	1605.68928733977	34
1	4365	1605.98977351473	33
1	4366	1606.175113644495	32
1	4367	1606.594189992394	31
1	4369	1607.503182700133	31
1	4370	1608.283020296837	31
1	4371	1608.887324148667	30
1	4372	1609.079839399945	29
1	4373	1609.337389214109	28
1	4374	1609.54195256557	27
1	4376	1610.220193478035	27
1	4378	1610.404421248585	28
1	4380	1611.471228183126	29
1	4381	1612.019797058275	29
1	4383	1612.085405759435	29
1	4384	1612.175223229787	29
1	4386	1612.889260617864	29
1	4388	1613.844163349369	30
1	4390	1613.849235965777	31
1	4391	1614.253956047844	31
1	4393	1614.328058058173	31
1	4395	1614.751422772311	32
1	4399	1616.456244049042	32
1	4407	1620.4059011958	32
1	4409	1623.19663498561	33
1	4411	1624.212289518409	34
1	4413	1625.518635847108	35
1	4417	1626.034746965851	36
1	4420	1627.145985830172	37
1	4424	1627.995382931498	37
1	4426	1628.444752209642	37
1	4428	1630.909863914139	38
1	4429	1631.060389607786	38
1	4430	1631.173758173349	37
1	4432	1632.698609168921	37
1	4434	1632.753775094952	38
1	4435	1633.232230592221	38
1	4439	1635.271858802537	37
1	4441	1635.290797870055	37
1	4442	1636.045838890325	37
1	4444	1637.87695950854	37
1	4446	1638.309620017841	38
1	4447	1640.780463919244	38
1	4449	1641.197165111482	38
1	4451	1641.478204171152	39
1	4455	1642.84051666549	39
1	4457	1643.230755275063	39
1	4461	1644.106202205584	40
1	4463	1644.245188486595	41
1	4468	1646.353830567044	41
1	4475	1648.316440869944	41
1	4481	1649.930261459382	42
1	4486	1651.797926626922	43
1	4488	1652.841579794322	44
1	4490	1653.572325196447	45
1	4491	1655.11165910801	45
1	4493	1657.087871382415	45
1	4501	1660.615681640588	46
1	4503	1660.900139018342	47
1	4505	1661.035019559051	48
1	4506	1662.622580300199	48
1	4507	1662.758648553893	47
1	4508	1663.709630964366	46
1	4509	1664.041533618923	45
1	4511	1664.601175445098	45
1	4516	1666.016491193882	46
1	4518	1666.589115038837	47
1	4519	1666.649051744483	47
1	4520	1668.087182842605	46
1	4521	1668.366177956959	45
1	4523	1669.424491761377	45
1	4524	1673.620905638954	45
1	4525	1673.948893523635	44
1	4526	1675.234608232587	43
1	4528	1675.246056189447	43
1	4529	1675.506801439314	43
1	4531	1676.065405580323	43
1	4532	1676.355215164055	43
1	4533	1676.391286701225	42
1	4534	1677.1151951349	41
1	4535	1678.643148587091	40
1	4536	1678.692884767424	39
1	4538	1679.292793715515	39
1	4539	1680.186749628987	39
1	4541	1680.832491456293	39
1	4543	1681.092090008966	40
1	4544	1681.763496098	40
1	4545	1683.144352428117	39
1	4547	1683.605919377262	39
1	4551	1683.840991404033	40
1	4554	1684.242291971004	41
1	4562	1686.359284320349	42
1	4563	1686.766083008037	42
1	4565	1688.335100314997	42
1	4566	1690.422044190726	42
1	4570	1692.161987540429	41
1	4572	1692.567006284334	41
1	4574	1692.681629081676	42
1	4578	1693.696076576448	42
1	4585	1694.547222682173	41
1	4590	1695.882737949456	41
1	4592	1696.241248014376	42
1	4593	1696.373753561385	42
1	4595	1697.253298712574	42
1	4597	1697.371240803904	43
1	4599	1699.257097378998	44
1	4600	1699.275184181108	44
1	4601	1700.102260012017	43
1	4603	1700.916352376473	43
1	4613	1702.832472338224	43
1	4615	1703.188401480734	43
1	4616	1703.684475542498	43
1	4617	1704.290274841807	42
1	4619	1704.40411722551	42
1	4621	1704.482359753669	43
1	4623	1705.113699555969	44
1	4625	1705.403473226736	45
1	4626	1705.822847285389	45
1	4627	1706.020269205963	44
1	4628	1706.215300021926	43
1	4629	1706.74386925545	42
1	4631	1707.328462781665	42
1	4635	1709.652948327473	43
1	4637	1710.357988498699	43
1	4641	1711.035916122685	42
1	4642	1711.245498194696	41
1	4644	1711.824343218296	41
1	4649	1712.897333224307	42
1	4653	1713.216095076903	42
1	4654	1713.927249718134	41
1	4659	1714.996517605297	41
1	4661	1715.068968162306	42
1	4663	1715.156909942534	43
1	4665	1715.390432974271	44
1	4666	1715.634213623644	44
1	4667	1715.902919087338	43
1	4668	1716.462512650989	42
1	4672	1717.653714922481	41
1	4673	1718.662118668116	40
1	4675	1719.3959886786	40
1	4676	1720.917635294365	40
1	4677	1721.697536643488	39
1	4679	1723.540432042428	39
1	4681	1725.06274397019	40
1	4682	1725.105293849883	40
1	4684	1725.742203223351	40
1	4685	1725.978148482485	40
1	4686	1726.699461712098	39
1	4693	1730.918227877418	38
1	4695	1731.29763105415	38
1	4697	1731.81527273762	39
1	4702	1732.183368414272	40
1	4707	1733.256509399476	41
1	4711	1734.32541770106	41
1	4715	1734.736449440673	41
1	4723	1738.258348270733	41
1	4725	1738.271088333672	41
1	4738	1744.93122854368	41
1	4739	1745.207931042172	40
1	4740	1745.443090825346	39
1	4742	1746.825174366042	39
1	4743	1747.007770439459	39
1	4744	1747.748941636094	38
1	4751	1750.167908535923	38
1	4755	1750.546951716263	39
1	4764	1754.685149519293	39
1	4765	1755.357868020411	38
1	4770	1757.74654005418	38
1	4771	1758.425566843081	38
1	4772	1760.147833068944	37
1	4774	1761.133626722537	37
1	4779	1762.075558884628	38
1	4780	1762.571439039803	38
1	4781	1763.070666901816	37
1	4783	1765.652523709967	37
1	4784	1765.658690371695	37
1	4786	1767.918955380258	37
1	4790	1768.912155865676	38
1	4793	1769.859988334801	39
1	4794	1770.07231193716	39
1	4798	1770.946935223758	38
1	4799	1771.24471362055	37
1	4800	1772.899484482977	36
1	4802	1773.732468325502	36
1	4803	1774.31949121368	36
1	4809	1775.861480614157	36
1	4812	1777.817173680614	36
1	4813	1778.439694937223	35
1	4815	1780.363984879627	35
1	4819	1782.956787454469	35
1	4823	1783.725778682423	35
1	4825	1784.260383469367	35
1	4827	1785.210696514163	35
1	4829	1785.299114615847	36
1	4831	1785.30648056034	37
1	4835	1786.004322802845	38
1	4837	1786.451754628684	39
1	4849	1787.845453040108	40
1	4850	1788.189907265798	40
1	4854	1788.635083683031	40
1	4856	1789.284982783888	41
1	4859	1789.499128336756	42
1	4864	1790.827998901023	43
1	4865	1791.334274597795	43
1	4867	1791.99994683541	43
1	4871	1792.321413423615	44
1	4882	1795.717742313959	44
1	4883	1797.220481946563	43
1	4887	1798.354300241734	42
1	4889	1799.384521615184	42
1	4890	1799.548390733731	42
1	4892	1799.556232753764	42
1	4893	1800.450725618678	42
1	4897	1800.648265032966	42
1	4900	1800.751069501428	43
1	4902	1801.026198182548	44
1	4903	1803.133518125776	44
1	4904	1803.355114342493	43
1	4905	1805.143434935689	42
1	4907	1805.684533294666	42
1	4908	1805.970991743842	42
1	4910	1806.392940363166	42
1	4911	1806.632679852405	42
1	4916	1808.95418172412	42
1	4918	1809.525062027248	43
1	4919	1809.802262916221	43
1	4921	1810.64869406276	43
1	4928	1811.809155386318	43
1	4930	1812.280000086849	43
1	4937	1813.203595719825	43
1	4939	1814.564325186572	43
1	4941	1814.851804757057	44
1	4943	1815.331322485935	45
1	4945	1815.784098165195	46
1	4946	1817.530119876431	46
1	4948	1817.953621010265	46
1	4953	1818.124434360682	47
1	4954	1818.321152841337	47
1	4958	1820.200104594907	47
1	4961	1821.956495088076	48
1	4968	1824.527890096418	49
1	4970	1824.812459725352	49
1	4972	1825.099493465442	49
1	4974	1825.315940551368	50
1	4976	1825.594985087146	51
1	4977	1825.940729787953	51
1	4979	1826.891851373134	51
1	4980	1827.656425922604	51
1	4982	1828.170173264091	51
1	4983	1828.815787297654	51
1	4984	1828.949047817836	50
1	4986	1829.522466257574	50
1	4990	1829.925708654301	51
1	4996	1830.556331933481	52
1	5000	1832.106824549812	52
1	5002	1832.92602105319	52
1	5003	1833.223521257498	52
1	5004	1833.724255157678	51
1	5006	1834.803788750534	51
1	5010	1835.985223017739	52
1	5016	1838.456173418294	53
1	5017	1839.305747261648	53
1	5018	1840.713020851945	52
1	5019	1840.753804476604	51
1	5021	1841.184370671525	51
1	5022	1841.319013939919	51
1	5023	1841.554015379523	50
1	5027	1843.068381978084	49
1	5028	1844.000712602001	48
1	5033	1846.016151054587	48
1	5038	1847.352597677621	49
1	5045	1848.66835149445	49
1	5047	1849.040584885511	49
1	5061	1851.980740350084	50
1	5063	1852.026337719616	51
1	5068	1852.359780356436	52
1	5070	1852.502427531917	53
1	5072	1854.014884793871	54
1	5074	1855.588049993308	55
1	5075	1856.781872161791	55
1	5077	1856.812007767892	55
1	5079	1857.008012567339	56
1	5081	1857.947569821159	57
1	5082	1858.409077807212	57
1	5083	1858.434406851679	56
1	5085	1858.491021659024	56
1	5086	1860.767568528746	56
1	5088	1860.782413153537	56
1	5089	1861.075150290237	56
1	5091	1861.70572301101	56
1	5092	1862.873211257487	56
1	5094	1863.474398672156	56
1	5096	1864.584830400872	57
1	5103	1867.657133301544	58
1	5107	1867.81655613655	59
1	5110	1868.267598228235	60
1	5113	1868.719849738682	61
1	5118	1869.271221906882	62
1	5119	1869.610835840211	62
1	5121	1869.890193110313	62
1	5122	1870.038130738171	62
[...]
10	2735	1037.690612793949	32.221512118775
10	2739	1039.9254602486	33.057766531193
10	2740	1041.241015244024	31.890305994216
10	2741	1041.266827537706	31.230203764896
10	2742	1041.575138513687	30.391505328467
10	2743	1041.91302974631	30.173131735935
10	2746	1042.624847576365	28.078772101326
10	2750	1043.545415780815	28.746096822561
10	2751	1044.252712540554	28.627656652993
10	2754	1044.6207892306	27.599805945074
10	2761	1048.620780257348	29.833916511426
10	2764	1050.824774800643	31.98991583972
10	2769	1052.199387509266	33.354540258747
10	2785	1055.269356393943	31.883618387018
10	2786	1056.072836131759	31.570775609161
10	2797	1060.218202098942	28.128056165978
10	2798	1060.521703741876	28.105748825735
10	2799	1060.527973722647	27.14413052698
10	2813	1064.101235153524	21.564950910145
10	2814	1064.377672564131	21.219410295741
10	2832	1069.455793132526	23.621419067344
10	2833	1069.513477703136	19.457929017756
10	2837	1071.606059666449	19.958300634833
10	2838	1072.247499948049	19.971017815819
10	2842	1073.596533116485	20.970207015377
10	2843	1074.442064246506	21.650417363208
10	2852	1078.919294854275	23.854401741109
10	2873	1085.696144645749	24.672628566794
10	2874	1086.211589495014	24.242087635773
10	2875	1086.85934145981	23.606424609184
10	2876	1086.943067973028	23.536311443422
10	2877	1087.425548599819	23.022112181811
10	2882	1089.170602232102	24.386955837108
10	2894	1094.032436852305	22.993166570798
10	2927	1102.497720949522	20.546454314387
10	2930	1103.353030945649	20.866622022331
10	2933	1103.987963616687	20.033290403149
10	2934	1104.430825337117	20.12291694156
10	2935	1104.551240713098	20.195304107902
10	2939	1106.099044659995	17.803169789656
10	2948	1108.614857039178	19.109876447119
10	2967	1114.413045892959	19.895708954118
10	2970	1115.525565160802	20.08538366892
10	2971	1115.618663216936	19.959140990891
10	2972	1115.795508056441	19.285549383394
10	2987	1120.92803314813	22.883982566961
10	2988	1123.158897733275	22.510389190709
10	3000	1127.513708089916	23.959706029662
10	3043	1135.674437994318	24.672993327431
10	3044	1135.762291151941	24.054205965126
10	3045	1136.22054339384	23.328613318065
10	3046	1136.615980965493	22.837263592989
10	3050	1137.394333459077	21.484445394188
10	3051	1137.534382843747	20.175102192033
10	3054	1140.214241262471	22.151666200038
10	3061	1141.339230393017	21.123345215974
10	3085	1148.008340824264	23.444377501585
10	3086	1148.043266574514	21.792459905196
10	3087	1148.264478130455	21.263767259849
10	3088	1148.569954863785	20.056258491453
10	3089	1150.073908201079	20.162206818897
10	3095	1151.663375142826	20.437927708735
10	3096	1152.288037332614	20.236165980043
10	3102	1155.669042354509	23.165637097851
10	3103	1156.410488094838	23.523453672487
10	3106	1158.88448940654	25.312160001097
10	3107	1158.960990075376	25.330670555527
10	3123	1163.618214031698	26.374958054576
10	3138	1166.098463036688	24.812512895981
10	3142	1166.400005057013	24.004237588353
10	3146	1168.185049825066	23.06863526249
10	3147	1168.221466860832	20.897513586032
10	3148	1168.422488287136	18.195750129762
10	3163	1173.160706042617	18.27620706683
10	3174	1176.501041101479	16.708472097146
10	3175	1177.168536086622	14.991770027896
10	3196	1184.218077237608	21.236251808297
10	3197	1184.641908886496	20.956575721992
10	3213	1187.734281639159	21.56799025357
10	3227	1192.628819824664	23.170538031596
10	3228	1193.197873723813	23.630408420829
10	3233	1196.361064239549	25.490602382379
10	3246	1201.869985555336	28.425477266603
10	3247	1202.540130775958	28.260021438921
10	3254	1204.239673495589	29.350894853746
10	3261	1207.876297927661	27.752319882428
10	3262	1208.001349642057	27.652346910185
10	3268	1209.531449675078	28.424539747765
10	3274	1211.151491989667	28.975988711804
10	3278	1212.380622148533	25.811929210092
10	3298	1217.522397790644	30.172185995548
10	3301	1218.829037342532	31.236932139699
10	3302	1219.096266487624	29.765508337771
10	3303	1219.264796127876	29.532816152882
10	3306	1219.549394030005	27.763475109195
10	3309	1220.222011418758	28.214767943688
10	3310	1220.910706955716	26.036006290607
10	3313	1221.785372930205	26.799450762679
10	3318	1224.959087694719	27.732467400591
10	3321	1227.288066981424	28.710269778047
10	3322	1228.025489979084	29.397191124523
10	3340	1234.44219737647	30.960707266385
10	3341	1234.986957312355	31.144774605822
10	3391	1251.163521646486	36.692983598091
10	3392	1251.389558023897	36.588971216883
10	3398	1252.932939455075	35.48592515401
10	3399	1253.214154537174	35.380764921615
10	3403	1256.970161899662	36.859973854461
10	3404	1257.558647601012	35.859285177097
10	3410	1259.09542173555	34.341726897182
10	3411	1259.636028628646	33.675611575808
10	3429	1264.341901204186	34.737226462814
10	3430	1264.523503833828	33.767773990456
10	3431	1265.379174198267	34.485066757082
10	3440	1267.522059386243	35.968405361773
10	3448	1270.042171233236	34.741424285145
10	3457	1274.210976087827	36.84613914613
10	3464	1276.882698256045	35.183132402386
10	3471	1278.200722721546	33.824544609106
10	3475	1280.162118938722	34.257081204829
10	3492	1286.830021917565	35.145639789271
10	3496	1288.341687348041	34.013655212074
10	3497	1290.218833897397	32.382747338215
10	3511	1294.655091192645	34.682005795217
10	3546	1304.970523443965	42.428646931166
10	3553	1309.445214473182	43.635810288366
10	3556	1310.977424776654	43.781420578053
10	3557	1311.057834681385	43.517632295078
10	3576	1316.764787921724	48.382180973911
10	3577	1318.975626544934	47.533001019802
10	3601	1327.459418186159	50.900956027566
10	3602	1328.717246271096	51.679350946263
10	3618	1333.543803615461	52.650645331818
10	3621	1333.86116824911	49.237603913654
10	3625	1334.745049182686	49.35186137065
10	3628	1335.499306942635	49.193297481607
10	3631	1335.730834514778	48.215699853357
10	3634	1336.360734999664	45.446295249169
10	3635	1337.505188575727	44.641191921526
10	3636	1337.544746668393	44.618625799213
10	3639	1337.845584947824	44.556050565535
10	3640	1338.914176363913	44.682978259065
10	3667	1350.104923043499	51.899829237775
10	3678	1353.216379266133	51.578968117415
10	3679	1353.345585091589	51.57268704974
10	3680	1353.351583791782	47.86299896865
10	3681	1353.964641416124	44.097073579889
10	3682	1354.458758000111	42.15646796563
10	3685	1355.296345129779	41.686380299917
10	3686	1356.1400636805	41.489457954123
10	3689	1356.944462924977	41.728547554649
10	3690	1359.330736807008	40.030919372759
10	3691	1359.401476501217	38.731555354709
10	3692	1360.8947981692	38.76639674667
10	3695	1361.876903696515	39.39253610726
10	3702	1363.084129856982	39.743250211192
10	3703	1363.951743597505	39.524142794508
10	3704	1365.336354957588	39.555153965234
10	3708	1366.218669913806	38.934296534566
10	3713	1366.844832512877	37.667373969889
10	3719	1368.540972358444	39.040138234105
10	3728	1372.975583854181	39.421715649795
10	3738	1376.516320413861	41.416062239579
10	3739	1376.594177062504	40.906519205078
10	3742	1378.234281758936	42.291063837863
10	3747	1380.360882792684	42.671960007982
10	3750	1381.333190230774	42.293736726766
10	3753	1382.919441028799	42.444407981253
10	3754	1383.827237625768	42.993659756958
10	3757	1384.471552399276	43.635848366148
10	3782	1391.218522640493	44.635843385005
10	3793	1392.648604081613	39.91805724736
10	3794	1394.057431073311	39.118172208061
10	3799	1394.754661991954	37.892334486037
10	3800	1394.920389876814	33.335850541184
10	3801	1395.1226404859	32.97222324402
10	3802	1395.544707701632	29.630092764919
10	3810	1397.544227811728	31.223968685142
10	3811	1397.693204738904	30.307868387685
10	3812	1398.132679220835	30.657449246718
10	3813	1398.24593551861	28.956187326629
10	3817	1399.07869975114	27.398249955957
10	3822	1399.862646905567	26.613992577179
10	3823	1400.878776597312	26.83197526522
10	3831	1401.081435045505	26.698011592438
10	3836	1402.795320668284	24.690095978561
10	3837	1403.151320907916	24.189625261037
10	3838	1403.437369027121	23.976619470707
10	3839	1403.82983044845	22.883617536358
10	3842	1405.88648588584	23.1715502608
10	3843	1406.218947661059	22.248483950224
10	3846	1409.136433296101	24.501362801299
10	3864	1413.880331275216	27.468418338039
10	3871	1416.072392000459	29.218851006024
10	3895	1423.914738338322	32.472736538909
10	3898	1425.992953322684	34.135763187897
10	3903	1427.061645121101	34.657450800924
10	3907	1428.454743194221	33.77685564436
10	3913	1432.734878857289	35.87832732397
10	3914	1434.047883356097	36.991895549641
10	3936	1439.792389140316	40.165936137687
10	3940	1441.541840572468	40.653309098896
10	3943	1443.879027090651	42.909879698368
10	3955	1448.336034830823	45.670671811894
10	3962	1451.116659544735	45.317800023904
10	3963	1451.932268660989	45.435839089304
10	3978	1456.656836303779	45.447620893982
10	3982	1458.38877662089	44.176155087713
10	3983	1458.617326293608	44.323011927698
10	3984	1459.477475968133	44.102090800662
10	3989	1461.514835231744	45.32144432049
10	3990	1461.839118549185	45.494317921137
10	4002	1464.484616589486	44.161936879737
10	4003	1466.059103735964	43.953949667919
10	4026	1470.411185448383	44.373380657137
10	4031	1471.65999980302	45.579349946671
10	4032	1471.892719396383	44.690321360847
10	4035	1473.431440007604	44.850249118087
10	4045	1478.482173882345	43.45259624433
10	4046	1478.50202900306	43.330145209638
10	4052	1482.718116584048	47.124361992926
10	4053	1483.304537513396	45.559183113428
10	4054	1484.082128065804	45.777673140502
10	4057	1484.195765074208	44.899440036487
10	4058	1484.33466576581	43.279664163333
10	4061	1484.930925874077	42.436469091947
10	4062	1484.958726982084	40.495382485392
10	4063	1485.010530457742	38.669067764859
10	4064	1485.086889974846	38.59492098773
10	4065	1485.225941511781	36.099292733902
10	4066	1488.212882393182	37.787084712183
10	4075	1492.68151525279	39.82455095333
10	4080	1493.757805352952	40.591160451565
10	4083	1496.069448240704	41.960542725662
10	4091	1498.686141241884	43.085019068542
10	4105	1506.801132768031	44.8302685533
10	4111	1508.780563307609	46.274967058969
10	4114	1510.813719616682	47.779157630173
10	4119	1512.377439411678	45.628244421295
10	4120	1516.405921854515	48.214513353434
10	4121	1517.097604654713	47.721036906955
10	4122	1518.833415947195	49.156598550488
10	4126	1520.841831769205	49.718871082083
10	4127	1521.228885937068	49.011116623142
10	4141	1526.545287514376	50.472421393286
10	4151	1530.263573225754	50.979328437689
10	4157	1534.336735860168	50.152124105827
10	4182	1541.328585513949	53.012548969793
10	4183	1542.984307683143	51.692042197955
10	4189	1544.536410822526	51.659158365803
10	4193	1545.844091891848	50.226823990534
10	4194	1547.225859860229	50.431499196565
10	4195	1547.679352602681	50.445427681885
10	4207	1551.282047793167	52.039142610167
10	4229	1556.680395241653	49.807173612216
10	4239	1559.486925376027	49.172985326758
10	4240	1561.248289761228	49.745882290887
10	4241	1561.439956069061	49.402955341654
10	4249	1564.433056426278	42.772596022401
10	4282	1572.97043462581	46.95844353374
10	4289	1577.629574363941	49.811949377291
10	4297	1579.989814945631	49.876004120619
10	4300	1580.104131056676	47.523631593986
10	4305	1581.275662301461	47.578411987096
10	4316	1584.342055245719	48.220279145886
10	4317	1585.19869249806	48.587610627105
10	4318	1588.733704585301	48.278350996015
10	4319	1588.80109014246	48.193936645608
10	4320	1589.447696254476	48.25576331627
10	4333	1591.990328944626	48.181757464474
10	4334	1592.221648353514	47.189375287597
10	4335	1592.482194144574	44.003795991339
10	4336	1592.863990119772	44.009445962998
10	4337	1593.405762665017	44.386225091342
10	4338	1594.27897724332	44.089834007867
10	4347	1599.153118941061	46.875604961775
10	4348	1599.304691951441	46.51341005867
10	4352	1600.563500640362	46.293994910314
10	4362	1604.279080790092	49.028841587558
10	4363	1604.698477211981	48.087566695303
10	4364	1605.68928733977	48.701675891105
10	4365	1605.98977351473	43.93672883066
10	4366	1606.175113644495	44.106313576012
10	4367	1606.594189992394	42.847382654167
10	4370	1608.283020296837	43.275252132634
10	4371	1608.887324148667	43.878433048538
10	4372	1609.079839399945	42.318237968164
10	4373	1609.337389214109	42.259952846055
10	4374	1609.54195256557	41.304519865462
10	4381	1612.019797058275	43.74388804725
10	4384	1612.175223229787	43.329685046579
10	4391	1614.253956047844	43.699173717965
10	4399	1616.456244049042	43.372166488719
10	4424	1627.995382931498	47.307797608936
10	4429	1631.060389607786	49.88308255016
10	4430	1631.173758173349	49.771518635867
10	4435	1633.232230592221	51.441671021645
10	4439	1635.271858802537	51.535486304335
10	4442	1636.045838890325	45.774160551115
10	4447	1640.780463919244	49.990838980754
10	4455	1642.84051666549	51.495351223093
10	4468	1646.353830567044	48.525838507599
10	4491	1655.11165910801	51.766548283821
10	4506	1662.622580300199	52.402386822164
10	4507	1662.758648553893	52.354227305308
10	4508	1663.709630964366	52.23840278124
10	4509	1664.041533618923	51.956127859488
10	4519	1666.649051744483	52.804888395114
10	4520	1668.087182842605	54.237946876828
10	4521	1668.366177956959	54.038119898786
10	4524	1673.620905638954	58.869482866643
10	4525	1673.948893523635	58.871049378729
10	4526	1675.234608232587	57.498668399807
10	4529	1675.506801439314	57.34278569524
10	4532	1676.355215164055	55.949313968255
10	4533	1676.391286701225	53.194651715615
10	4534	1677.1151951349	52.902905616491
10	4535	1678.643148587091	53.124512739983
10	4536	1678.692884767424	53.172453916185
10	4539	1680.186749628987	54.152002663136
10	4544	1681.763496098	54.617510267828
10	4545	1683.144352428117	55.607980092887
10	4563	1686.766083008037	54.067473839116
10	4566	1690.422044190726	57.668269095774
10	4570	1692.161987540429	56.871189670374
10	4578	1693.696076576448	55.386456558607
10	4585	1694.547222682173	53.069018511021
10	4593	1696.373753561385	53.142998286322
10	4600	1699.275184181108	55.539924414971
10	4601	1700.102260012017	55.996057806433
10	4613	1702.832472338224	54.51603146828
10	4616	1703.684475542498	55.076913298871
10	4617	1704.290274841807	54.360013382425
10	4626	1705.822847285389	54.528099900988
10	4627	1706.020269205963	54.222342579041
10	4628	1706.215300021926	53.373720227604
10	4629	1706.74386925545	53.171544059003
10	4637	1710.357988498699	51.690342832016
10	4641	1711.035916122685	50.135777104343
10	4642	1711.245498194696	50.210478635645
10	4653	1713.216095076903	47.199603883021
10	4654	1713.927249718134	47.338134679297
10	4666	1715.634213623644	40.388157434197
10	4667	1715.902919087338	39.837513507015
10	4668	1716.462512650989	37.169718935474
10	4672	1717.653714922481	36.561624913515
10	4673	1718.662118668116	35.056199290854
10	4676	1720.917635294365	37.182770142969
10	4677	1721.697536643488	37.856545239455
10	4682	1725.105293849883	40.863001878879
10	4685	1725.978148482485	41.241748290678
10	4686	1726.699461712098	40.340177391749
10	4693	1730.918227877418	38.351221593084
10	4711	1734.32541770106	38.681984780225
10	4723	1738.258348270733	40.887107466829
10	4738	1744.93122854368	42.892164724442
10	4739	1745.207931042172	42.019529561438
10	4740	1745.443090825346	41.038973599836
10	4743	1747.007770439459	42.52541068579
10	4744	1747.748941636094	42.635242080125
10	4764	1754.685149519293	45.03220119182
10	4765	1755.357868020411	44.915799076
10	4771	1758.425566843081	46.28572567106
10	4772	1760.147833068944	47.250499844637
10	4780	1762.571439039803	48.333657059939
10	4781	1763.070666901816	48.074149296519
10	4784	1765.658690371695	50.589722209389
10	4794	1770.07231193716	54.681878962889
10	4798	1770.946935223758	51.550946545158
10	4799	1771.24471362055	47.704281578122
10	4800	1772.899484482977	47.836740512787
10	4803	1774.31949121368	48.577287990329
10	4812	1777.817173680614	48.187719284534
10	4813	1778.439694937223	47.142063883073
10	4819	1782.956787454469	51.042224481786
10	4825	1784.260383469367	51.609920578029
10	4850	1788.189907265798	53.453457825125
10	4865	1791.334274597795	53.063186264123
10	4882	1795.717742313959	51.063794059811
10	4883	1797.220481946563	50.395307580521
10	4887	1798.354300241734	48.39835917096
10	4890	1799.548390733731	49.380482197808
10	4893	1800.450725618678	49.903773902415
10	4903	1803.133518125776	47.774417408401
10	4904	1803.355114342493	45.608574288313
10	4905	1805.143434935689	44.009808213152
10	4908	1805.970991743842	44.519201821582
10	4911	1806.632679852405	44.557120967777
10	4919	1809.802262916221	41.883307535963
10	4928	1811.809155386318	41.949167051517
10	4937	1813.203595719825	39.471127394323
10	4946	1817.530119876431	42.515960670718
10	4954	1818.321152841337	37.95716796171
10	4970	1824.812459725352	41.086681042929
10	4977	1825.940729787953	40.73003327379
10	4980	1827.656425922604	42.357311306757
10	4983	1828.815787297654	43.509306737314
10	4984	1828.949047817836	43.46115358402
10	5000	1832.106824549812	44.422430818126
10	5003	1833.223521257498	45.37806821739
10	5004	1833.724255157678	45.366065528889
10	5017	1839.305747261648	49.806618924892
10	5018	1840.713020851945	50.135457345857
10	5019	1840.753804476604	49.925805575581
10	5022	1841.319013939919	49.319067104509
10	5023	1841.554015379523	49.477400051416
10	5027	1843.068381978084	49.684519830165
10	5028	1844.000712602001	49.341633777423
10	5045	1848.66835149445	48.048012478793
10	5075	1856.781872161791	55.755673979243
10	5082	1858.409077807212	52.724544512546
10	5083	1858.434406851679	52.041466488513
10	5086	1860.767568528746	53.938471358033
10	5089	1861.075150290237	52.120968566117
10	5092	1862.873211257487	53.348149230239
10	5119	1869.610835840211	57.330835753362
10	5122	1870.038130738171	57.552573211911
10	5127	1872.443935402006	57.879610215434
10	5128	1872.796613282459	57.944808525402
10	5131	1873.223785022448	57.892462536513
10	5132	1873.649376064908	57.865277899713
10	5140	1877.817800354685	59.864082275391
10	5141	1878.142013678304	60.017579317622
10	5142	1880.276349872246	60.973359091069
10	5153	1884.077215590975	60.645292629635
10	5164	1892.501068632297	67.185128080929
10	5165	1892.991785546179	67.396800459033
10	5166	1893.403437130173	66.511585757039
10	5167	1893.777516993475	65.607343729384
10	5170	1895.686430182322	66.163963924748
10	5171	1895.701885074906	66.131562571464
10	5181	1898.614490761696	68.058158828215
10	5192	1901.772899456126	68.846878402936
10	5193	1902.361380133507	67.557591382973
10	5194	1902.780255905568	67.234278367574
10	5198	1906.168759758287	68.06245306625
10	5199	1907.169616842403	68.713443424109
10	5200	1907.198728719079	66.014358047554
10	5203	1908.324580329596	66.154906220122
10	5221	1912.740165140066	65.749662520248
10	5222	1912.781916101435	65.429318423814
10	5227	1913.983230616251	66.047999782362
10	5228	1914.451318234055	65.410733348544
10	5237	1917.508061044145	65.527320694061
10	5261	1926.14744913957	70.559399146262
10	5262	1926.859513475257	70.047505707365
10	5266	1927.642841553768	69.695271732609
10	5269	1928.531907511001	70.040885851977
10	5272	1929.819475210974	69.037062057437
10	5277	1933.538225710097	71.832502699087
10	5278	1934.78904863397	71.314649961814
10	5294	1938.520801664075	71.074810971651
10	5304	1940.857376221119	73.040820084569
10	5316	1944.176903821901	74.905681915019
10	5317	1945.076489928661	75.186296818348
10	5318	1945.918797367004	75.732389188685
10	5319	1947.460994703453	75.524957607679
10	5322	1948.969637207488	75.953628797011
10	5325	1949.127645176039	73.150085707659
10	5326	1949.49697488371	72.742587977698
10	5327	1949.894477591424	73.135178716517
10	5333	1952.043094811181	69.689315375171
10	5351	1957.675457525908	71.577894782428
10	5352	1957.732018948504	70.801133561061
10	5353	1958.328760665837	69.296679885869
10	5356	1959.393179969188	64.360229084791
10	5357	1959.405611552042	62.996292963388
10	5358	1959.489409661299	62.786691443096
10	5359	1961.266327482534	61.753851872731
10	5360	1965.877983287509	65.715818694594
10	5372	1973.227967210074	67.859663995519
10	5387	1976.907103240453	68.57864253996
10	5393	1978.867318598903	69.870416605055
10	5397	1979.917402420522	68.994879737893
10	5398	1980.98554347543	69.657818025302
10	5420	1990.835100306692	74.128362870046
10	5421	1990.864592036302	72.811335000009
11	5455	2000	0.483
12	5455	2000	0.406

