version 2
run Monotonicity_test_recover_rate-195-20221219-18:27:52-15453
attr configname Monotonicity_test_recover_rate
attr datetime 20221219-18:27:52
attr experiment Monotonicity_test_recover_rate
attr inifile omnetpp.ini
attr iterationvars $0=25
attr iterationvarsf 25-
attr measurement $0=25
attr network Network
attr processid 15453
attr repetition 95
attr replication #95
attr resultdir results
attr runnumber 195
attr seedset 95
param *.minion.arrival_mean 2
param *.minion.service_mean 1.5
param *.boss.arrival_mean 2.5
param *.boss.service_mean 0.5
param *.player.recover_rate_x 25
param **.minion.arrival_distribution 0
param **.minion.service_distribution 0
param **.boss.arrival_distribution 0
param **.boss.service_distribution 0

vector 0 Network.player minion_jobs_number_stat:vector ETV
attr source signal_minion_jobs_number
vector 1 Network.player minion_jobs_queue_number_stat:vector ETV
attr source signal_minion_jobs_queue_number
vector 2 Network.player minion_recovered_stat:vector ETV
attr source signal_minion_recovered
vector 3 Network.player minion_defeated_stat:vector ETV
attr source signal_minion_defeated
vector 4 Network.player boss_jobs_number_stat:vector ETV
attr source signal_boss_jobs_number
vector 5 Network.player boss_jobs_queue_number_stat:vector ETV
attr source signal_boss_jobs_queue_number
vector 6 Network.player boss_defeated_stat:vector ETV
attr source signal_boss_defeated
vector 7 Network.player minion_waiting_time_stat:vector ETV
attr source signal_minion_waiting_time
vector 8 Network.player minion_response_time_stat:vector ETV
attr source signal_minion_response_time
vector 9 Network.player boss_waiting_time_stat:vector ETV
attr source signal_boss_waiting_time
vector 10 Network.player boss_response_time_stat:vector ETV
attr source signal_boss_response_time
vector 11 Network.player minion_throughput:vector ETV
attr source signal_minion_throughput
vector 12 Network.player boss_throughput:vector ETV
attr source signal_boss_throughput
0	0	0	0
0	2	0.458684221096	1
0	4	1.508068546277	2
0	11	4.675921328869	1
0	22	6.927932622824	1
0	32	10.907409337257	1
0	35	14.587023976878	1
0	41	17.002737203865	1
0	43	17.925122393637	2
0	56	25.68191858374	1
0	62	26.660540634095	1
0	71	28.968217341678	1
0	77	32.025615261479	1
0	80	32.991855701721	1
0	84	35.004123444501	2
0	87	36.788347715487	3
0	94	40.406422442391	2
0	99	40.970470027078	3
0	109	44.659987519907	1
0	118	47.972813098702	1
0	122	50.654474842955	1
0	124	51.66957014743	2
0	132	55.692614276157	1
0	140	57.001450451886	2
0	145	58.810637211789	2
0	149	60.127408065653	1
0	151	60.390073874137	2
0	154	61.114387282471	2
0	158	61.636124932658	3
0	160	62.825971887228	4
0	168	64.47793657599	5
0	170	64.72820790804	6
0	177	65.414167625036	7
0	185	66.936668680822	7
0	187	66.964659725671	8
0	189	68.108792072741	9
0	191	68.979162909678	10
0	193	73.105046686376	11
0	195	73.31341795115	12
0	198	75.081975050137	12
0	204	76.336149794464	12
0	206	76.35079126432	13
0	211	77.618407447931	13
0	219	78.993759565263	14
0	222	79.614682448026	15
0	260	90.111119005118	10
0	263	91.763713445825	10
0	278	98.323224240317	7
0	280	99.039803855906	8
0	287	102.768075417321	7
0	289	102.879676166679	8
0	293	105.645293309798	7
0	295	106.802059736557	8
0	297	106.892424954296	9
0	302	108.15941552191	9
0	310	109.160462700519	10
0	314	110.424986299785	10
0	316	110.534172540422	11
0	326	113.527694107193	10
0	328	114.204936826036	11
0	343	117.383603112637	12
0	348	118.877969970387	13
0	353	120.502480266594	14
0	363	122.597481746272	15
0	365	126.699530790748	16
0	370	127.469001543786	17
0	372	128.513624233296	18
0	374	129.082597705505	19
0	379	129.662432527721	20
0	385	132.034267857062	20
0	396	135.544344846675	21
0	401	135.944422116315	19
0	406	136.705465634573	20
0	423	142.860032712282	20
0	430	147.549889524513	20
0	433	149.590087998663	20
0	436	150.48049478211	20
0	438	151.317187026452	21
0	447	154.462454157557	20
0	450	157.340241847205	21
0	453	157.876700831393	21
0	459	159.854475443879	21
0	465	162.170799553879	18
0	467	163.676963608423	19
0	469	163.992478871163	20
0	475	167.085063958964	20
0	477	167.213778472455	21
0	480	167.714827178616	21
0	482	167.999370377421	22
0	493	172.363574256415	22
0	500	177.750647571315	19
0	507	179.619722481261	20
0	512	181.070727807754	21
0	517	182.267902641308	22
0	521	183.411908956616	22
0	523	185.038204891705	23
0	531	187.954149248634	21
0	534	190.49201909243	21
0	537	190.99383181941	21
0	559	197.439455670236	16
0	564	200.233654514997	15
0	566	200.240922550095	16
0	568	200.542626619598	17
0	579	204.841836016013	17
0	584	206.021699791159	16
0	598	214.741427558436	11
0	600	215.091187177622	12
0	602	215.103771748397	13
0	613	218.162242694227	13
0	624	221.109891693765	14
0	631	224.867670986459	14
0	637	226.694207603543	14
0	640	227.371185193825	14
0	642	228.40346607179	15
0	644	228.84412144102	16
0	646	229.839486482352	17
0	651	232.610131138429	17
0	654	233.289748424849	18
0	661	237.159298208835	17
0	669	240.263174525163	14
0	677	243.615602343382	13
0	679	243.980749929178	14
0	681	244.781204146066	15
0	689	248.484075352093	15
0	699	252.068204272254	14
0	704	253.554699509596	15
0	707	254.016955789593	16
0	718	259.724623346309	14
0	721	260.308680947831	14
0	724	261.199847204154	14
0	726	261.748240992349	15
0	730	262.624930496615	16
0	732	262.689939410291	17
0	742	266.311061410824	17
0	745	268.327000579779	17
0	750	272.377253443168	18
0	756	278.428045751941	15
0	766	282.967380427413	13
0	771	284.599525937342	12
0	773	284.638243895575	13
0	777	285.299049114293	12
0	782	285.971214344368	12
0	784	286.323999175348	13
0	786	286.573531497838	14
0	789	289.095549121213	15
0	791	289.194988795853	16
0	803	294.203741285906	16
0	807	296.137831437393	15
0	809	296.433813413582	16
0	811	297.030854760997	17
0	824	302.903849401154	14
0	834	306.19269775431	15
0	838	307.234554936798	16
0	844	307.64072083964	17
0	850	309.124282441373	17
0	852	309.368808234877	18
0	855	311.901551615063	18
0	857	312.215570725526	19
0	863	314.632502281685	19
0	865	315.520103868023	20
0	868	315.820693801333	20
0	871	316.054031102056	20
0	873	316.874094997772	21
0	880	320.502738888824	20
0	889	323.842043436962	20
0	897	325.490581946032	20
0	900	325.884195071815	21
0	902	326.336535680849	22
0	906	326.791648144543	23
0	914	332.087187836422	22
0	917	333.829146403273	22
0	919	334.140201507504	23
0	922	334.210611522867	23
0	927	337.48641794706	23
0	935	340.724538738	22
0	937	341.0736241738	23
0	939	341.312413436145	24
0	941	341.487448349511	25
0	943	341.501635903826	26
0	945	343.92880126226	27
0	950	345.968298857581	25
0	955	347.706998916353	26
0	958	348.595738365542	26
0	960	349.835013127447	27
0	969	352.734119041129	27
0	974	355.247331841987	28
0	979	356.204903547955	28
0	988	361.338917380239	26
0	993	361.514417310165	26
0	997	362.642154855421	27
0	1001	363.390403981491	28
0	1003	363.922045520723	29
0	1007	364.98059939597	28
0	1011	367.38934178995	27
0	1032	378.12541852456	18
0	1044	382.738130558235	12
0	1046	383.168045479427	13
0	1048	383.524568034184	14
0	1060	385.914489856683	14
0	1066	387.60268698331	14
0	1068	387.738238692347	15
0	1074	389.34990964286	15
0	1077	390.723172975367	15
0	1082	392.087862276367	15
0	1098	400.509147804794	12
0	1103	402.687330831434	13
0	1107	403.480240773084	12
0	1116	404.914283020109	12
0	1123	409.48200735735	13
0	1126	410.713281081525	14
0	1138	418.145745829033	13
0	1151	419.734209828077	13
0	1156	420.979180975119	14
0	1164	423.535538592362	15
0	1166	423.708579251655	16
0	1168	424.495005997725	17
0	1170	425.705272872664	18
0	1177	426.773150586326	19
0	1191	430.303930880561	20
0	1195	434.002406293006	20
0	1207	438.491623585356	17
0	1218	440.751560207956	17
0	1226	444.174140669377	16
0	1234	446.806581473441	14
0	1237	448.403913526339	14
0	1244	450.470787553894	13
0	1246	450.666711579794	14
0	1251	452.147115749968	14
0	1260	455.794801455311	15
0	1266	458.708266635395	15
0	1281	463.349039801889	12
0	1289	464.5973489304	12
0	1295	465.966004756409	12
0	1302	467.00294440479	12
0	1305	470.229992544769	12
0	1307	471.948119189475	13
0	1309	472.283196502337	14
0	1311	472.688353008961	15
0	1316	474.130162816516	16
0	1320	476.751814578107	17
0	1326	484.830661241633	15
0	1337	489.28048264978	10
0	1340	490.850052293189	10
0	1342	490.933907776991	11
0	1344	491.668989647482	12
0	1346	491.686842296544	13
0	1348	492.157572641105	14
0	1353	494.506650120352	12
0	1362	497.870346140662	9
0	1373	500.393360738711	10
0	1389	508.086038329365	6
0	1392	509.894838450951	6
0	1402	512.625670261252	5
0	1404	512.778124965139	6
0	1406	514.899687929303	7
0	1421	522.734677785399	4
0	1425	523.857971428561	3
0	1433	524.938269615342	3
0	1438	526.124158040512	4
0	1440	526.153018530131	5
0	1443	526.265287616299	6
0	1445	526.662835528046	7
0	1447	527.72382730053	8
0	1456	530.407262096537	8
0	1458	531.387545793476	9
0	1466	533.332301169267	10
0	1468	533.518400525664	11
0	1471	535.369485481358	11
0	1502	559.221912087498	1
0	1504	559.4571623864	2
0	1511	564.713924620807	1
0	1513	564.73342047728	2
0	1515	565.6209183888	3
0	1517	565.965710184125	4
0	1519	566.28695350919	5
0	1522	569.249605965219	5
0	1530	572.495159522699	5
0	1537	580.569736240935	2
0	1544	585.58458104203	1
0	1547	587.082306026793	1
0	1550	589.945238261884	1
0	1553	594.942250672529	1
0	1556	596.568429647548	1
0	1558	597.006306954727	2
0	1560	597.017187388093	3
0	1562	597.372816650742	4
0	1570	599.263753513898	5
0	1574	600.761154283195	6
0	1580	602.455429366618	6
0	1589	605.319219196059	4
0	1591	606.476003346618	5
0	1599	611.339539185099	3
0	1602	613.943454434964	3
0	1613	619.352577472394	1
0	1618	621.765561053894	1
0	1620	621.848547937521	2
0	1631	624.089566540072	1
0	1637	628.143273938353	1
0	1640	629.545224812872	1
0	1643	633.6771246028	1
0	1649	639.754164904595	1
0	1651	639.969221731062	2
0	1660	642.805791227022	2
0	1662	644.907774374418	3
0	1665	645.760494766588	3
0	1678	649.838824692065	4
0	1680	649.948917848917	5
0	1683	651.392772656266	6
0	1687	655.183161586941	5
0	1691	656.73423591234	4
0	1699	657.804319638485	5
0	1701	658.107575242473	6
0	1704	658.870683166688	6
0	1707	660.001101516229	6
0	1717	663.135194344944	5
0	1729	665.636092934029	5
0	1744	671.507425124869	5
0	1749	671.877010168814	6
0	1762	676.217384900507	6
0	1765	677.025245330759	7
0	1769	679.526745672514	7
0	1780	683.771832457365	2
0	1788	687.481889482835	1
0	1790	687.87174161219	2
0	1794	688.826880931541	3
0	1797	689.601320402743	3
0	1799	690.320860404907	4
0	1801	691.898427132279	5
0	1803	692.954899148511	6
0	1807	696.264480703003	5
0	1809	696.318825976244	6
0	1812	697.278514574082	6
0	1816	699.238085418424	5
0	1824	700.751360155601	6
0	1827	701.231385203495	6
0	1829	702.434064920071	7
0	1833	703.017150685085	8
0	1836	703.417902626274	9
0	1838	704.526006430911	10
0	1840	704.675570245457	11
0	1849	707.169092655356	11
0	1851	708.134489388481	12
0	1884	723.538718225299	9
0	1886	724.554070320971	10
0	1896	728.24070013153	10
0	1899	728.438092317821	11
0	1906	731.241650169214	10
0	1909	732.830531000467	11
0	1913	735.021021972557	10
0	1916	736.45548796092	10
0	1918	738.479850592082	11
0	1920	738.507787003217	12
0	1923	738.938862543676	12
0	1925	740.505746594652	13
0	1937	746.000774606	10
0	1944	748.894175487205	9
0	1955	755.715028063546	1
0	1957	756.121853676281	2
0	1959	757.216734529669	3
0	1962	757.822560090463	3
0	1964	758.633081240861	4
0	1972	761.925780060514	2
0	1981	763.996974598591	2
0	1986	764.800511537952	2
0	1994	767.523680663779	1
0	1999	769.148630935653	1
0	2009	775.414280258506	1
0	2017	778.002489593103	1
0	2019	778.257863512426	2
0	2022	779.100603561772	3
0	2025	780.386707348069	3
0	2034	784.812484061592	3
0	2036	784.903889796144	4
0	2045	785.783940645707	5
0	2052	787.700853842427	6
0	2063	788.944147348325	7
0	2067	791.483033626651	6
0	2074	794.820450073702	7
0	2082	797.440820087801	6
0	2089	801.469744687099	5
0	2092	802.375050287033	5
0	2099	805.176003971229	4
0	2101	805.945793356782	5
0	2103	806.404435035726	6
0	2106	807.980009042753	6
0	2108	811.155474760674	7
0	2110	811.76368213605	8
0	2114	813.613691046657	7
0	2122	815.17801641835	5
0	2125	816.298543798043	5
0	2129	818.002774984656	4
0	2136	819.405289885028	3
0	2138	819.619161327877	4
0	2140	820.473091346578	5
0	2142	820.619739547396	6
0	2144	821.650238389802	7
0	2149	822.900520090468	7
0	2152	824.583983236588	8
0	2156	825.202262918767	9
0	2159	826.00632775607	10
0	2172	831.90081090528	7
0	2180	837.198689722669	4
0	2182	839.124271835015	5
0	2186	842.707998861317	4
0	2195	846.228128379145	4
0	2209	850.652012521766	5
0	2211	850.791025976413	6
0	2219	854.253500961045	7
0	2221	854.386181937729	8
0	2224	854.69308444232	8
0	2229	856.885773818993	9
0	2235	859.164585547444	9
0	2237	859.215764171245	10
0	2239	859.397481607602	11
0	2243	859.735986902931	10
0	2245	862.255377599962	11
0	2247	862.278165421481	12
0	2250	863.235401176241	12
0	2262	866.607018737781	12
0	2265	867.599970037231	12
0	2274	869.368873118721	12
0	2276	869.929898604833	13
0	2281	871.306160562692	11
0	2284	872.401608469963	11
0	2290	873.644929718425	11
0	2294	874.684441563573	12
0	2298	875.712899083439	12
0	2303	877.033616957241	10
0	2310	880.140478681069	9
0	2315	880.753298733213	9
0	2318	881.004749785187	10
0	2320	881.226630289589	11
0	2322	881.677761934215	12
0	2326	884.404037335016	13
0	2328	884.483034604334	14
0	2330	884.728755463457	15
0	2334	886.41491252684	15
0	2341	888.915436125873	14
0	2346	890.06521970074	14
0	2349	890.650247385819	15
0	2351	891.301145803146	16
0	2354	891.641095433911	16
0	2358	893.706208921863	15
0	2360	893.86496203196	16
0	2362	896.467462855469	17
0	2366	900.773963712181	16
0	2375	904.457122711956	13
0	2385	909.445109858186	9
0	2390	909.76096607591	10
0	2394	912.099652867094	9
0	2396	912.212718317035	10
0	2399	915.134458560298	10
0	2402	915.329593285471	10
0	2409	916.26653807042	11
0	2415	918.770451664541	9
0	2420	920.532061405054	10
0	2424	920.936580339573	11
0	2427	921.254703485031	12
0	2429	921.800805236026	13
0	2431	922.019148887974	14
0	2439	923.868312531091	14
0	2445	924.574701041084	15
0	2450	928.252439859368	13
0	2454	929.150406134467	14
0	2458	930.031709357841	14
0	2463	933.658321648387	15
0	2483	940.656506393696	16
0	2490	943.113517836941	14
0	2493	944.239140944358	15
0	2512	949.265953931672	14
0	2514	949.65685203869	15
0	2518	951.014439524873	14
0	2521	952.944008885474	14
0	2538	960.386669972845	11
0	2541	960.600047648933	12
0	2543	961.535542627235	13
0	2553	964.603866840364	13
0	2556	967.144803683395	14
0	2566	971.489536097886	11
0	2568	971.572805943405	12
0	2570	971.58565502953	13
0	2572	972.173583417574	14
0	2600	980.644488851979	7
0	2602	982.045924115355	8
0	2605	982.384676899548	8
0	2618	990.132789741364	1
0	2629	992.307704699812	2
0	2631	994.356159274457	3
0	2634	994.481795412411	3
0	2645	999.87885090972	1
0	2653	1003.269202326739	2
0	2656	1003.611877307572	2
0	2660	1005.19663535441	3
0	2667	1008.469070326829	4
0	2674	1013.25560689209	2
0	2676	1013.269612685067	3
0	2678	1013.917600197626	4
0	2681	1014.833339670326	4
0	2684	1016.248101860059	4
0	2687	1017.612320551978	4
0	2689	1017.77125600429	5
0	2691	1018.422504451219	6
0	2704	1023.70619928413	2
0	2709	1024.692621615378	3
0	2716	1026.254920566439	2
0	2729	1034.461064261695	1
0	2731	1037.318244171727	2
0	2735	1040.000775997029	1
0	2743	1045.285666381041	1
0	2746	1045.838677279393	2
0	2752	1046.812294628715	2
0	2757	1048.542292080019	3
0	2761	1049.361890572126	2
0	2763	1049.453508901997	3
0	2765	1050.121258820924	4
0	2774	1055.927069667581	1
0	2776	1056.415220177811	2
0	2778	1056.46185624688	3
0	2784	1057.574926354553	3
0	2786	1057.871716712055	4
0	2789	1059.741331533205	4
0	2795	1064.462638317405	4
0	2800	1067.320394553363	5
0	2806	1071.162467685943	5
0	2813	1079.717214033616	1
0	2825	1084.6738690168	1
0	2827	1085.156023481728	2
0	2830	1085.218991112745	2
0	2832	1085.225348698176	3
0	2843	1090.608273778111	1
0	2848	1092.461033516133	2
0	2851	1092.995239505253	2
0	2853	1093.669145510604	3
0	2863	1097.045766761202	4
0	2865	1097.162192023122	5
0	2872	1100.736036832595	5
0	2874	1101.687329350423	6
0	2881	1104.487363067987	5
0	2885	1106.233629500522	4
0	2887	1107.800327814805	5
0	2889	1108.211299276363	6
0	2901	1115.08048071479	3
0	2903	1115.704582121493	4
0	2909	1118.100536734966	4
0	2912	1119.40789618157	4
0	2920	1121.569000902079	5
0	2927	1123.762353173536	4
0	2933	1127.262303819554	4
0	2937	1128.667036626902	3
0	2942	1132.308796229589	1
0	2945	1133.19352088299	1
0	2949	1135.406412288956	2
0	2952	1135.921362755661	3
0	2960	1137.373425094839	4
0	2964	1138.835650090459	5
0	2968	1139.712073446991	6
0	2975	1143.72280403034	7
0	2986	1146.484148878892	5
0	2991	1147.263053048516	5
0	3003	1150.083024398143	6
0	3006	1151.864745902403	6
0	3010	1155.211538045204	5
0	3015	1157.599297944287	6
0	3018	1157.722005192353	6
0	3023	1161.109938442488	7
0	3025	1161.536835239044	8
0	3032	1165.481177772017	7
0	3034	1166.014082795985	8
0	3040	1167.126526474364	8
0	3048	1170.613582277867	9
0	3052	1171.913757435721	10
0	3067	1177.2611019927	8
0	3070	1178.645356204794	8
0	3075	1180.055612857439	9
0	3077	1180.406062456153	10
0	3085	1183.796156317005	8
0	3090	1186.762483937575	9
0	3095	1188.301323458769	7
0	3097	1188.529434160686	8
0	3100	1192.027440402755	8
0	3102	1192.391477933016	9
0	3104	1192.496038111542	10
0	3106	1193.062773180947	11
0	3118	1200.945210771911	8
0	3120	1200.968436468705	9
0	3124	1204.140615585051	8
0	3126	1204.195645615287	9
0	3139	1206.340307297531	8
0	3141	1206.669786391772	9
0	3149	1208.706377975091	9
0	3156	1211.288260912544	9
0	3158	1211.733699088669	10
0	3163	1212.871556651827	8
0	3172	1215.537464044082	5
0	3174	1215.710332038519	6
0	3182	1217.622603133132	5
0	3188	1219.576690114805	4
0	3190	1220.330311731554	5
0	3195	1222.79801259976	3
0	3197	1223.279239885395	4
0	3202	1226.650403735349	5
0	3205	1227.817694641599	5
0	3211	1230.349569333772	5
0	3222	1233.295763519415	3
0	3230	1234.73236463371	4
0	3232	1234.768831258007	5
0	3243	1239.082677977812	3
0	3249	1239.474720502281	4
0	3262	1245.328913481413	5
0	3268	1247.656394668583	5
0	3271	1248.040585847966	5
0	3281	1250.423633268564	5
0	3283	1250.481993920095	6
0	3285	1250.507862352739	7
0	3301	1258.194072927453	5
0	3311	1261.342502832997	4
0	3313	1261.726582932605	5
0	3315	1262.499796157288	6
0	3317	1266.040757450691	7
0	3323	1268.657777915645	7
0	3332	1270.189719881927	7
0	3336	1272.075127710501	8
0	3345	1274.447483946125	9
0	3347	1274.532245657444	10
0	3355	1275.055130696576	9
0	3360	1276.822992712209	9
0	3367	1282.043689253236	8
0	3374	1283.403825044027	7
0	3378	1285.094955984999	6
0	3387	1288.742455456776	6
0	3395	1291.951214842974	5
0	3399	1292.253977266382	6
0	3406	1294.95814522781	5
0	3410	1295.750064930315	6
0	3417	1298.564217826528	6
0	3419	1298.598043295781	7
0	3439	1302.981284412581	4
0	3446	1307.117176133922	4
0	3449	1307.991745688489	4
0	3457	1313.501667631123	2
0	3466	1316.186113295622	1
0	3468	1316.39588885157	2
0	3474	1318.956496346812	3
0	3479	1319.58566116584	4
0	3488	1323.448471789349	3
0	3497	1325.32088025755	4
0	3499	1325.469444378952	5
0	3501	1325.647007558259	6
0	3504	1329.734592490045	6
0	3507	1330.152250428538	6
0	3509	1330.413028754655	7
0	3512	1330.860729931742	7
0	3514	1330.997580309497	8
0	3521	1333.892758289326	7
0	3524	1339.088371718224	7
0	3528	1344.891673569129	6
0	3531	1347.161369606661	6
0	3536	1348.122539956755	7
0	3544	1348.753860563792	5
0	3549	1349.827779784865	6
0	3557	1351.98125867623	6
0	3561	1352.389544403939	6
0	3567	1357.423961720361	6
0	3570	1360.495125047093	6
0	3573	1362.959380553378	6
0	3587	1367.991452416243	5
0	3595	1370.984915440803	5
0	3599	1371.14663046472	6
0	3605	1372.439899114553	7
0	3609	1375.603428900156	6
0	3621	1377.440789216121	6
0	3623	1379.767444593761	7
0	3626	1380.954988391576	7
0	3628	1381.359257029197	8
0	3632	1382.824863507595	9
0	3637	1383.667271054979	10
0	3639	1383.695981295894	11
0	3641	1384.504452685313	12
0	3646	1386.608632939426	11
0	3654	1388.851474225357	12
0	3658	1389.624652494816	13
0	3666	1391.524042375939	12
0	3672	1392.539157740531	12
0	3675	1394.04473036755	12
0	3679	1396.070870131079	11
0	3684	1397.402245575827	11
0	3687	1398.306215266116	12
0	3698	1400.176069074325	12
0	3701	1402.300530502882	13
0	3703	1402.879710444027	14
0	3705	1402.93464963634	15
0	3708	1404.684264470289	15
0	3714	1406.457108374987	15
0	3725	1411.106957354646	15
0	3731	1417.271171760725	13
0	3745	1421.564207764639	11
0	3748	1422.683214589727	11
0	3754	1425.845553967207	11
0	3756	1425.869749287609	12
0	3758	1426.442012104011	13
0	3763	1428.833157887934	14
0	3769	1431.970765955353	14
0	3775	1433.594922012679	14
0	3777	1434.882887814001	15
0	3780	1435.175652504236	15
0	3788	1436.991999958783	16
0	3797	1440.987723612428	16
0	3811	1449.1588659848	11
0	3816	1450.541957007897	12
0	3818	1450.67737522204	13
0	3821	1452.56252640971	13
0	3823	1452.84299941284	14
0	3825	1454.48759472233	15
0	3827	1454.584068596926	16
0	3831	1455.058794327688	15
0	3839	1456.377896580998	16
0	3846	1458.802505179345	15
0	3848	1458.907071898296	16
0	3860	1463.493881938679	16
0	3874	1467.684920738876	14
0	3877	1467.722905891438	14
0	3879	1468.327295499201	15
0	3885	1471.890497920476	15
0	3887	1472.259676571688	16
0	3891	1475.098032246007	15
0	3896	1477.445698248199	16
0	3899	1478.894508799482	16
0	3905	1482.105911647837	16
0	3913	1483.873312376171	17
0	3917	1485.615959849415	18
0	3923	1486.537472619769	18
0	3927	1487.247444289002	18
0	3929	1487.274035189381	19
0	3932	1488.419124731561	19
0	3934	1490.109595082367	20
0	3942	1495.285629301229	21
0	3944	1495.323328453612	22
0	3947	1496.590051724087	22
0	3952	1498.382220889108	22
0	3956	1500.845482116075	22
0	3964	1501.938317555169	23
0	3966	1502.462030048019	24
0	3972	1504.346265521277	24
0	3981	1506.201490917326	24
0	3985	1507.854588273501	23
0	3988	1509.905729272438	23
0	3994	1512.740136366255	20
0	4004	1518.31655761261	16
0	4011	1520.485199560921	15
0	4022	1524.347605153444	13
0	4025	1525.624985592344	13
0	4032	1527.038395181482	12
0	4036	1527.57273913525	13
0	4044	1531.823617581669	14
0	4049	1532.919017483918	15
0	4061	1536.19680341938	16
0	4064	1537.79137543025	16
0	4075	1543.126642113625	14
0	4079	1546.217285889365	13
0	4085	1546.70888898631	14
0	4088	1547.089566781279	15
0	4091	1549.153593895994	16
0	4093	1550.018828730174	17
0	4098	1550.748499613574	18
0	4100	1551.169169267295	19
0	4110	1555.514390832479	17
0	4115	1556.678810683972	16
0	4117	1558.8894362072	17
0	4123	1561.82619995855	17
0	4129	1563.169455052879	17
0	4133	1563.77327367757	16
0	4145	1565.468909396598	17
0	4158	1569.192933725401	15
0	4161	1570.269021897867	15
0	4167	1571.57034449934	15
0	4169	1572.656313527567	16
0	4171	1572.974536214563	17
0	4176	1573.887008483087	18
0	4189	1578.787731628914	17
0	4192	1580.712621676124	17
0	4195	1582.154980629413	17
0	4199	1585.75355506067	16
0	4202	1586.357659235884	16
0	4205	1588.366493256081	16
0	4211	1590.488406032327	16
0	4213	1591.271649886714	17
0	4215	1591.304242837441	18
0	4221	1595.185218012818	18
0	4233	1598.776197344171	18
0	4235	1601.10870167515	19
0	4244	1604.491288053763	16
0	4252	1607.037271937462	14
0	4255	1607.140586586934	14
0	4258	1608.862378376657	14
0	4260	1609.037935198002	15
0	4262	1610.390581597441	16
0	4266	1611.789130839289	17
0	4269	1611.871560223347	18
0	4278	1614.172153554931	15
0	4284	1617.282185638715	15
0	4295	1623.499983241079	13
0	4304	1630.069802118319	10
0	4306	1630.181539735415	11
0	4312	1634.216580123725	11
0	4315	1636.659532494144	11
0	4320	1637.787240310316	11
0	4327	1641.197226368989	11
0	4333	1645.49361061984	11
0	4335	1645.616987445694	12
0	4337	1647.130141531205	13
0	4340	1648.373683175734	13
0	4342	1648.520887821972	14
0	4346	1651.855972063214	13
0	4354	1653.652734951933	14
0	4356	1654.22813958991	15
0	4359	1654.779304376448	15
0	4367	1656.98460454218	16
0	4373	1657.181949129738	17
0	4376	1657.894980712367	18
0	4379	1658.741410703953	19
0	4391	1663.284667712124	16
0	4394	1665.182457727123	16
0	4397	1667.617710565826	16
0	4402	1669.276983306497	16
0	4412	1673.13777499632	13
0	4418	1674.366152352082	14
0	4421	1674.771442626189	15
0	4428	1675.624542496894	15
0	4437	1678.860012543647	14
0	4440	1679.843899710809	15
0	4442	1680.487139418943	16
0	4448	1682.251637601489	13
0	4457	1686.181321549444	12
0	4464	1687.659799476999	12
0	4466	1688.691366962394	13
0	4468	1688.77619653331	14
0	4470	1689.894047760565	15
0	4476	1690.660052219322	15
0	4484	1692.242834350188	15
0	4486	1692.394262680164	16
0	4500	1697.988763207918	15
0	4502	1698.064006952229	16
0	4504	1698.110103390316	17
0	4509	1699.733718976104	18
0	4517	1702.556393341081	19
0	4524	1703.639822435918	15
0	4526	1703.792334437328	16
0	4528	1703.940653826739	17
0	4532	1706.241746127111	16
0	4535	1710.633657776705	16
0	4537	1711.331286103324	17
0	4542	1714.303858712738	15
0	4545	1715.10834084814	15
0	4550	1717.562457721769	16
0	4555	1720.336723406425	17
0	4559	1721.131241131313	16
0	4563	1721.613914897475	17
0	4571	1724.15065998221	17
0	4579	1728.483675644122	17
0	4581	1728.797504630486	18
0	4587	1733.294607028919	15
0	4591	1736.014753844681	14
0	4593	1736.810179623972	15
0	4596	1739.474557307876	15
0	4614	1744.208459320931	16
0	4623	1749.289818308797	15
0	4627	1750.213855658144	14
0	4629	1750.689026875201	15
0	4640	1756.388672207907	10
0	4642	1757.391404763536	11
0	4646	1758.89000647187	10
0	4651	1759.967597518718	11
0	4657	1764.186458608672	11
0	4675	1768.182011661552	8
0	4678	1769.710296327225	8
0	4691	1775.673147014751	7
0	4710	1784.975942447066	6
0	4712	1785.287826748765	7
0	4714	1785.974522933485	8
0	4717	1786.243124004093	8
0	4736	1792.806629353212	6
0	4739	1794.008702910584	7
0	4745	1795.682130404145	7
0	4753	1798.014168369375	5
0	4756	1798.159709162707	5
0	4758	1798.406348229493	6
0	4760	1798.421459374372	7
0	4765	1801.652420026806	8
0	4767	1801.741841602978	9
0	4769	1802.042819243886	10
0	4773	1808.949508670405	9
0	4775	1809.054926847736	10
0	4780	1810.961853261545	11
0	4782	1812.179095543623	12
0	4788	1815.299224169909	12
0	4790	1815.596230187833	13
0	4795	1816.451903213415	14
0	4802	1819.251266743392	13
0	4810	1824.396338052462	14
0	4813	1827.908992546454	14
0	4815	1828.15221512245	15
0	4817	1829.349389058722	16
0	4821	1829.636925711781	17
0	4831	1832.711500991012	17
0	4849	1839.881289404262	11
0	4851	1840.892631175077	12
0	4853	1840.95031094569	13
0	4868	1846.973270414811	13
0	4870	1847.56258528547	14
0	4872	1848.112620461297	15
0	4879	1851.894560947021	14
0	4884	1853.567936913683	15
0	4886	1854.649558494742	16
0	4898	1859.474858675156	16
0	4900	1859.87570328954	17
0	4902	1861.075910209402	18
0	4904	1862.218243377445	19
0	4907	1862.489130557614	19
0	4914	1864.114795591905	18
0	4923	1866.34243568184	18
0	4925	1866.740669188261	19
0	4930	1867.815340765716	20
0	4934	1868.533833216837	21
0	4937	1869.817516193291	22
0	4939	1870.512276043986	23
0	4941	1870.921642291801	24
0	4944	1873.424256419026	24
0	4947	1874.337347931866	24
0	4949	1875.884842122854	25
0	4956	1876.861992473656	23
0	4960	1877.390761050771	23
0	4968	1881.166428873172	21
0	4970	1881.205089944587	22
0	4977	1886.125297958384	21
0	4979	1886.225091954625	22
0	4983	1887.845960595771	21
0	4985	1889.100500590582	22
0	4989	1890.396181617461	23
0	4995	1893.436847966259	24
0	4998	1894.494441383186	24
0	5005	1895.677953931945	24
0	5009	1897.307816740723	25
0	5013	1899.439436431117	26
0	5021	1901.638499043494	27
0	5028	1904.005902010658	27
0	5034	1909.683693718045	27
0	5037	1913.381604694824	27
0	5041	1915.821891363902	26
0	5044	1917.030181898114	26
0	5051	1918.746408062969	22
0	5063	1925.369991053918	22
0	5065	1926.873249118827	23
0	5078	1929.284745609592	22
0	5081	1931.490436124935	22
0	5083	1931.88174760177	23
0	5088	1934.659005337684	24
0	5090	1935.135569509955	25
0	5102	1938.344643463282	22
0	5115	1950.022439342548	18
0	5122	1953.434882140432	17
0	5134	1957.420888789448	17
0	5138	1960.559933726831	16
0	5141	1960.947080334749	16
0	5143	1961.003050851235	17
0	5145	1961.643605966125	18
0	5153	1964.743439612953	16
0	5155	1964.908868424766	17
0	5160	1966.870158876174	18
0	5162	1967.527350488512	19
0	5170	1970.333031409014	17
0	5173	1970.750984863366	17
0	5178	1971.267956199404	18
0	5180	1971.715326588353	19
0	5187	1975.927195324647	18
0	5192	1976.924609406674	19
0	5194	1977.507250348229	20
0	5203	1983.489959369871	20
0	5221	1994.355986329311	17
0	5225	1994.68023367667	18
0	5231	1998.110282542563	19
0	5234	1998.881965908047	19
1	0	0	0
1	2	0.458684221096	0
1	4	1.508068546277	1
1	5	1.778992229631	1
1	6	2.600375819674	0
1	11	4.675921328869	0
1	15	6.071115648019	0
1	22	6.927932622824	0
1	30	7.763893955754	0
1	32	10.907409337257	0
1	33	11.367200237868	0
1	35	14.587023976878	0
1	36	15.02292980503	0
1	41	17.002737203865	0
1	43	17.925122393637	1
1	47	18.717002914931	1
1	48	18.923930851474	0
1	56	25.68191858374	0
1	60	26.529935099137	0
1	62	26.660540634095	0
1	63	26.902692789529	0
1	71	28.968217341678	0
1	72	29.69456943347	0
1	77	32.025615261479	0
1	78	32.640535262723	0
1	80	32.991855701721	0
1	84	35.004123444501	1
1	87	36.788347715487	2
1	88	37.146958003868	2
1	92	39.262235748568	1
1	94	40.406422442391	1
1	99	40.970470027078	2
1	103	42.40677024148	2
1	104	43.706230380301	1
1	105	44.213097691953	0
1	109	44.659987519907	0
1	114	46.427401380975	0
1	118	47.972813098702	0
1	120	49.879944470614	0
1	122	50.654474842955	0
1	124	51.66957014743	1
1	125	52.115100387689	1
1	126	52.193550853121	0
1	132	55.692614276157	0
1	140	57.001450451886	1
1	143	58.030796355323	1
1	145	58.810637211789	1
1	146	59.064545929534	1
1	147	59.601088181123	0
1	149	60.127408065653	0
1	151	60.390073874137	1
1	152	60.857806371385	1
1	154	61.114387282471	1
1	158	61.636124932658	2
1	160	62.825971887228	3
1	168	64.47793657599	4
1	170	64.72820790804	5
1	177	65.414167625036	6
1	180	66.242594903008	6
1	185	66.936668680822	6
1	187	66.964659725671	7
1	189	68.108792072741	8
1	191	68.979162909678	9
1	193	73.105046686376	10
1	195	73.31341795115	11
1	196	74.47330905505	11
1	198	75.081975050137	11
1	199	75.522784535431	11
1	204	76.336149794464	11
1	206	76.35079126432	12
1	207	77.043142236414	12
1	211	77.618407447931	12
1	219	78.993759565263	13
1	222	79.614682448026	14
1	226	79.755973067877	14
1	239	84.829489169884	13
1	252	87.700179137873	12
1	253	87.999253426066	11
1	254	88.027847113147	10
1	258	88.700451372868	9
1	260	90.111119005118	9
1	261	90.429448685906	9
1	263	91.763713445825	9
1	267	93.524395942565	9
1	268	93.613370312387	8
1	269	94.55411377469	7
1	273	97.095382643399	6
1	278	98.323224240317	6
1	280	99.039803855906	7
1	281	101.071633552249	7
1	285	102.153219844997	6
1	287	102.768075417321	6
1	289	102.879676166679	7
1	290	102.90311774054	7
1	291	104.136872548385	6
1	293	105.645293309798	6
1	295	106.802059736557	7
1	297	106.892424954296	8
1	298	106.973194232359	8
1	302	108.15941552191	8
1	310	109.160462700519	9
1	312	109.77400826837	9
1	314	110.424986299785	9
1	316	110.534172540422	10
1	317	110.573566293609	10
1	318	112.361513402284	9
1	326	113.527694107193	9
1	328	114.204936826036	10
1	343	117.383603112637	11
1	348	118.877969970387	12
1	353	120.502480266594	13
1	363	122.597481746272	14
1	365	126.699530790748	15
1	370	127.469001543786	16
1	372	128.513624233296	17
1	374	129.082597705505	18
1	379	129.662432527721	19
1	383	131.893065154485	19
1	385	132.034267857062	19
1	396	135.544344846675	20
1	397	135.571885855479	20
1	398	135.626913717189	19
1	399	135.794844414531	18
1	401	135.944422116315	18
1	406	136.705465634573	19
1	407	136.73424037454	19
1	423	142.860032712282	19
1	428	146.674113703517	19
1	430	147.549889524513	19
1	431	147.733914007194	19
1	433	149.590087998663	19
1	434	150.30461549509	19
1	436	150.48049478211	19
1	438	151.317187026452	20
1	439	151.957710835912	20
1	440	151.972521470259	19
1	447	154.462454157557	19
1	450	157.340241847205	20
1	451	157.55216274787	20
1	453	157.876700831393	20
1	457	159.732345104322	20
1	459	159.854475443879	20
1	460	160.103444137835	20
1	461	160.494867944627	19
1	462	161.576935457215	18
1	463	161.680699920583	17
1	465	162.170799553879	17
1	467	163.676963608423	18
1	469	163.992478871163	19
1	473	166.751789086624	19
1	475	167.085063958964	19
1	477	167.213778472455	20
1	478	167.674375666837	20
1	480	167.714827178616	20
1	482	167.999370377421	21
1	489	170.935420396123	21
1	493	172.363574256415	21
1	495	174.930040336009	21
1	496	175.446855625221	20
1	497	175.978350268772	19
1	498	177.159540605535	18
1	500	177.750647571315	18
1	507	179.619722481261	19
1	512	181.070727807754	20
1	517	182.267902641308	21
1	519	182.852603382159	21
1	521	183.411908956616	21
1	523	185.038204891705	22
1	524	185.513202004213	22
1	525	186.054165606795	21
1	529	187.782766814878	20
1	531	187.954149248634	20
1	532	188.556098133193	20
1	534	190.49201909243	20
1	535	190.855337698095	20
1	537	190.99383181941	20
1	538	191.617443747053	20
1	542	193.14620220063	19
1	552	195.8733537989	18
1	553	196.724627545427	17
1	554	196.765934167954	16
1	555	197.009929223809	15
1	559	197.439455670236	15
1	561	198.558368077205	15
1	562	200.135871745453	14
1	564	200.233654514997	14
1	566	200.240922550095	15
1	568	200.542626619598	16
1	572	203.262025089814	16
1	579	204.841836016013	16
1	581	205.808243753481	16
1	582	205.918121407964	15
1	584	206.021699791159	15
1	585	206.445856000891	15
1	586	207.385201513916	14
1	590	210.518387856686	13
1	591	210.531006177506	12
1	595	213.836063883048	11
1	596	214.072729664284	10
1	598	214.741427558436	10
1	600	215.091187177622	11
1	602	215.103771748397	12
1	606	216.226651284627	12
1	613	218.162242694227	12
1	624	221.109891693765	13
1	626	221.315319489137	13
1	631	224.867670986459	13
1	635	226.118412334983	13
1	637	226.694207603543	13
1	638	227.334704293397	13
1	640	227.371185193825	13
1	642	228.40346607179	14
1	644	228.84412144102	15
1	646	229.839486482352	16
1	647	232.333755388669	16
1	651	232.610131138429	16
1	654	233.289748424849	17
1	655	233.340556202376	17
1	659	236.96438284526	16
1	661	237.159298208835	16
1	662	237.837933446465	16
1	663	238.291314899762	15
1	664	238.940101809056	14
1	665	239.920797608524	13
1	669	240.263174525163	13
1	671	240.661279881291	13
1	675	243.429239071766	12
1	677	243.615602343382	12
1	679	243.980749929178	13
1	681	244.781204146066	14
1	682	245.267119783845	14
1	689	248.484075352093	14
1	691	249.258556400254	14
1	692	250.236548510761	13
1	699	252.068204272254	13
1	704	253.554699509596	14
1	707	254.016955789593	15
1	708	255.059949214499	15
1	712	255.750518034657	14
1	713	258.634617167526	13
1	718	259.724623346309	13
1	719	260.110690183044	13
1	721	260.308680947831	13
1	722	260.599172537628	13
1	724	261.199847204154	13
1	726	261.748240992349	14
1	730	262.624930496615	15
1	732	262.689939410291	16
1	737	263.481368947806	16
1	742	266.311061410824	16
1	743	266.64120678764	16
1	745	268.327000579779	16
1	750	272.377253443168	17
1	751	272.401640717402	17
1	752	273.640707462524	16
1	753	273.778404050613	15
1	754	277.529474300317	14
1	756	278.428045751941	14
1	760	280.377604796057	14
1	761	280.871505241079	13
1	762	282.109185959649	12
1	766	282.967380427413	12
1	768	283.671162922492	12
1	769	284.002000878804	11
1	771	284.599525937342	11
1	773	284.638243895575	12
1	774	285.082944373131	12
1	775	285.085369575094	11
1	777	285.299049114293	11
1	778	285.522925956784	11
1	782	285.971214344368	11
1	784	286.323999175348	12
1	786	286.573531497838	13
1	789	289.095549121213	14
1	791	289.194988795853	15
1	792	290.512245458021	15
1	803	294.203741285906	15
1	804	294.240602444783	15
1	805	295.399007849633	14
1	807	296.137831437393	14
1	809	296.433813413582	15
1	811	297.030854760997	16
1	812	297.45475985226	16
1	816	298.865867127381	15
1	817	298.891140169903	14
1	818	299.142485557122	13
1	824	302.903849401154	13
1	834	306.19269775431	14
1	838	307.234554936798	15
1	844	307.64072083964	16
1	845	307.767729447337	16
1	850	309.124282441373	16
1	852	309.368808234877	17
1	853	310.835768185983	17
1	855	311.901551615063	17
1	857	312.215570725526	18
1	861	314.10778831089	18
1	863	314.632502281685	18
1	865	315.520103868023	19
1	866	315.582613629744	19
1	868	315.820693801333	19
1	869	315.896131147436	19
1	871	316.054031102056	19
1	873	316.874094997772	20
1	874	317.392467573874	20
1	878	318.969298005137	19
1	880	320.502738888824	19
1	884	321.834341595732	19
1	889	323.842043436962	19
1	890	324.470291903018	19
1	897	325.490581946032	19
1	900	325.884195071815	20
1	902	326.336535680849	21
1	906	326.791648144543	22
1	908	328.872944904808	22
1	912	331.171548332719	21
1	914	332.087187836422	21
1	915	332.923332272596	21
1	917	333.829146403273	21
1	919	334.140201507504	22
1	920	334.155023869162	22
1	922	334.210611522867	22
1	923	335.181150654518	22
1	927	337.48641794706	22
1	929	338.616207064181	22
1	933	339.796823989577	21
1	935	340.724538738	21
1	937	341.0736241738	22
1	939	341.312413436145	23
1	941	341.487448349511	24
1	943	341.501635903826	25
1	945	343.92880126226	26
1	946	344.441645841524	26
1	947	344.785962931258	25
1	948	345.483794558598	24
1	950	345.968298857581	24
1	955	347.706998916353	25
1	956	348.359367063752	25
1	958	348.595738365542	25
1	960	349.835013127447	26
1	967	352.255801725108	26
1	969	352.734119041129	26
1	974	355.247331841987	27
1	975	355.474616983813	27
1	979	356.204903547955	27
1	981	357.015546675453	27
1	982	357.241794733873	26
1	983	358.170974941439	25
1	988	361.338917380239	25
1	989	361.43179168742	25
1	993	361.514417310165	25
1	997	362.642154855421	26
1	1001	363.390403981491	27
1	1003	363.922045520723	28
1	1004	364.029300752463	28
1	1005	364.205348391599	27
1	1007	364.98059939597	27
1	1008	366.264653594602	27
1	1009	367.236047216833	26
1	1011	367.38934178995	26
1	1012	367.962611483649	26
1	1013	368.243520786952	25
1	1014	368.470756618737	24
1	1015	369.09896870275	23
1	1016	369.390229965645	22
1	1017	370.720657619244	21
1	1027	374.232228397248	20
1	1028	374.442652073554	19
1	1029	377.600036380328	18
1	1030	378.10552730942	17
1	1032	378.12541852456	17
1	1033	378.631553984059	17
1	1034	378.805112615687	16
1	1038	380.152335079033	15
1	1039	380.221512435107	14
1	1040	380.231337886768	13
1	1041	381.135065745591	12
1	1042	381.754439062355	11
1	1044	382.738130558235	11
1	1046	383.168045479427	12
1	1048	383.524568034184	13
1	1049	384.031772461016	13
1	1060	385.914489856683	13
1	1061	386.134517677179	13
1	1066	387.60268698331	13
1	1068	387.738238692347	14
1	1072	389.339877168765	14
1	1074	389.34990964286	14
1	1075	390.395970157739	14
1	1077	390.723172975367	14
1	1078	390.726470130706	14
1	1082	392.087862276367	14
1	1084	393.154448000697	14
1	1085	393.937176001819	13
1	1086	394.222679147043	12
1	1087	394.951116623284	11
1	1098	400.509147804794	11
1	1103	402.687330831434	12
1	1104	403.082344742686	12
1	1105	403.136083321617	11
1	1107	403.480240773084	11
1	1111	404.727215951267	11
1	1116	404.914283020109	11
1	1123	409.48200735735	12
1	1126	410.713281081525	13
1	1127	412.9989851357	13
1	1128	414.20368216458	12
1	1138	418.145745829033	12
1	1146	419.169171553486	12
1	1151	419.734209828077	12
1	1156	420.979180975119	13
1	1164	423.535538592362	14
1	1166	423.708579251655	15
1	1168	424.495005997725	16
1	1170	425.705272872664	17
1	1177	426.773150586326	18
1	1191	430.303930880561	19
1	1193	432.616638964792	19
1	1195	434.002406293006	19
1	1196	435.091637113023	19
1	1197	435.597204548999	18
1	1198	435.723676735587	17
1	1199	436.289936408714	16
1	1207	438.491623585356	16
1	1211	439.185833067106	16
1	1218	440.751560207956	16
1	1220	441.818576666146	16
1	1221	442.697159501683	15
1	1226	444.174140669377	15
1	1230	445.676539022971	15
1	1231	446.08765018753	14
1	1232	446.475703081816	13
1	1234	446.806581473441	13
1	1235	446.850751814385	13
1	1237	448.403913526339	13
1	1241	449.161863331397	13
1	1242	449.832511779328	12
1	1244	450.470787553894	12
1	1246	450.666711579794	13
1	1247	450.862064369285	13
1	1251	452.147115749968	13
1	1260	455.794801455311	14
1	1261	456.098053668025	14
1	1266	458.708266635395	14
1	1270	460.59916743632	14
1	1271	460.684516733738	13
1	1272	460.771918928912	12
1	1273	461.278496422097	11
1	1281	463.349039801889	11
1	1282	464.220677099932	11
1	1289	464.5973489304	11
1	1291	465.08781163278	11
1	1295	465.966004756409	11
1	1297	466.274183643486	11
1	1302	467.00294440479	11
1	1303	467.00334986318	11
1	1305	470.229992544769	11
1	1307	471.948119189475	12
1	1309	472.283196502337	13
1	1311	472.688353008961	14
1	1316	474.130162816516	15
1	1320	476.751814578107	16
1	1322	479.968725919434	16
1	1323	480.622699556555	15
1	1324	481.91078991527	14
1	1326	484.830661241633	14
1	1327	486.367707290242	14
1	1328	486.377145803374	13
1	1329	486.891698052414	12
1	1330	487.01951516527	11
1	1331	487.126663735462	10
1	1335	488.838092977296	9
1	1337	489.28048264978	9
1	1338	490.320080937154	9
1	1340	490.850052293189	9
1	1342	490.933907776991	10
1	1344	491.668989647482	11
1	1346	491.686842296544	12
1	1348	492.157572641105	13
1	1349	492.453153900342	13
1	1350	493.8114188358	12
1	1351	494.170190152649	11
1	1353	494.506650120352	11
1	1354	494.540218497166	11
1	1355	495.450673866518	10
1	1356	495.8438185785	9
1	1357	497.3375474086	8
1	1362	497.870346140662	8
1	1373	500.393360738711	9
1	1374	501.634046645716	9
1	1375	501.708007707977	8
1	1376	503.780959053138	7
1	1377	504.553117015685	6
1	1384	506.467951386533	5
1	1389	508.086038329365	5
1	1390	508.327287302672	5
1	1392	509.894838450951	5
1	1393	510.642755435696	5
1	1397	511.631776117725	4
1	1402	512.625670261252	4
1	1404	512.778124965139	5
1	1406	514.899687929303	6
1	1410	519.011003574746	6
1	1411	519.081448867245	5
1	1415	520.058008432122	4
1	1416	520.771565688184	3
1	1421	522.734677785399	3
1	1422	523.205568617134	3
1	1423	523.500911589772	2
1	1425	523.857971428561	2
1	1429	524.799495429472	2
1	1433	524.938269615342	2
1	1438	526.124158040512	3
1	1440	526.153018530131	4
1	1443	526.265287616299	5
1	1445	526.662835528046	6
1	1447	527.72382730053	7
1	1448	527.948382098826	7
1	1456	530.407262096537	7
1	1458	531.387545793476	8
1	1466	533.332301169267	9
1	1468	533.518400525664	10
1	1469	534.250287158106	10
1	1471	535.369485481358	10
1	1472	538.908633529924	10
1	1476	541.011572120932	9
1	1486	544.151035508342	8
1	1487	544.544305053421	7
1	1488	544.69678259976	6
1	1489	546.604360075401	5
1	1490	546.739542369735	4
1	1491	547.004824726326	3
1	1492	547.30101608943	2
1	1496	550.487289483527	1
1	1497	555.274606307895	0
1	1502	559.221912087498	0
1	1504	559.4571623864	1
1	1505	560.603178853375	1
1	1506	560.690096608455	0
1	1511	564.713924620807	0
1	1513	564.73342047728	1
1	1515	565.6209183888	2
1	1517	565.965710184125	3
1	1519	566.28695350919	4
1	1520	567.890636380838	4
1	1522	569.249605965219	4
1	1523	570.277545707057	4
1	1530	572.495159522699	4
1	1532	574.073972384078	4
1	1533	575.572772154122	3
1	1534	577.108504974224	2
1	1535	578.457646602287	1
1	1537	580.569736240935	1
1	1538	581.310536112654	1
1	1539	581.394345740831	0
1	1544	585.58458104203	0
1	1545	586.61250632549	0
1	1547	587.082306026793	0
1	1548	587.628463105065	0
1	1550	589.945238261884	0
1	1551	590.472829784426	0
1	1553	594.942250672529	0
1	1554	595.932547791378	0
1	1556	596.568429647548	0
1	1558	597.006306954727	1
1	1560	597.017187388093	2
1	1562	597.372816650742	3
1	1570	599.263753513898	4
1	1574	600.761154283195	5
1	1576	601.831151166663	5
1	1580	602.455429366618	5
1	1582	604.043508090655	5
1	1583	604.441588515514	4
1	1584	604.579403313653	3
1	1589	605.319219196059	3
1	1591	606.476003346618	4
1	1595	607.843537768904	4
1	1596	609.09251126056	3
1	1597	609.510711162365	2
1	1599	611.339539185099	2
1	1600	612.871254235508	2
1	1602	613.943454434964	2
1	1603	613.953696937282	2
1	1607	616.16407990783	1
1	1608	617.018593926933	0
1	1613	619.352577472394	0
1	1614	619.369430793825	0
1	1618	621.765561053894	0
1	1620	621.848547937521	1
1	1628	623.286021576885	1
1	1629	623.363906502543	0
1	1631	624.089566540072	0
1	1632	625.038359807365	0
1	1637	628.143273938353	0
1	1638	628.875659248554	0
1	1640	629.545224812872	0
1	1641	632.550608217716	0
1	1643	633.6771246028	0
1	1644	634.780498068778	0
1	1649	639.754164904595	0
1	1651	639.969221731062	1
1	1652	640.388920402711	1
1	1660	642.805791227022	1
1	1662	644.907774374418	2
1	1663	645.679853999034	2
1	1665	645.760494766588	2
1	1678	649.838824692065	3
1	1680	649.948917848917	4
1	1683	651.392772656266	5
1	1684	651.392829039589	5
1	1685	654.103398248768	4
1	1687	655.183161586941	4
1	1688	655.276068733095	4
1	1689	656.323817469439	3
1	1691	656.73423591234	3
1	1699	657.804319638485	4
1	1701	658.107575242473	5
1	1702	658.519439774649	5
1	1704	658.870683166688	5
1	1705	659.064215781242	5
1	1707	660.001101516229	5
1	1708	661.533156846943	5
1	1715	663.066283257338	4
1	1717	663.135194344944	4
1	1724	664.878688166406	4
1	1729	665.636092934029	4
1	1733	669.962285664341	4
1	1744	671.507425124869	4
1	1749	671.877010168814	5
1	1753	673.193025837733	5
1	1762	676.217384900507	5
1	1765	677.025245330759	6
1	1767	678.923553783067	6
1	1769	679.526745672514	6
1	1770	679.68752539395	6
1	1771	679.876057396138	5
1	1772	680.420276233904	4
1	1773	681.128241317938	3
1	1774	681.350058273048	2
1	1775	681.621044669827	1
1	1780	683.771832457365	1
1	1781	684.83364475126	1
1	1782	685.933219883678	0
1	1788	687.481889482835	0
1	1790	687.87174161219	1
1	1794	688.826880931541	2
1	1795	689.392041493241	2
1	1797	689.601320402743	2
1	1799	690.320860404907	3
1	1801	691.898427132279	4
1	1803	692.954899148511	5
1	1804	693.428950473797	5
1	1805	694.91421003809	4
1	1807	696.264480703003	4
1	1809	696.318825976244	5
1	1810	697.03574849458	5
1	1812	697.278514574082	5
1	1813	697.346462894791	5
1	1814	697.790121074725	4
1	1816	699.238085418424	4
1	1824	700.751360155601	5
1	1825	700.996077926382	5
1	1827	701.231385203495	5
1	1829	702.434064920071	6
1	1833	703.017150685085	7
1	1836	703.417902626274	8
1	1838	704.526006430911	9
1	1840	704.675570245457	10
1	1841	705.345050130075	10
1	1849	707.169092655356	10
1	1851	708.134489388481	11
1	1870	713.790887342925	11
1	1874	714.482089273285	10
1	1875	714.574907453429	9
1	1882	720.867456971833	8
1	1884	723.538718225299	8
1	1886	724.554070320971	9
1	1887	724.846364228503	9
1	1896	728.24070013153	9
1	1899	728.438092317821	10
1	1901	728.841491680034	10
1	1902	730.62274473362	9
1	1906	731.241650169214	9
1	1909	732.830531000467	10
1	1910	733.239879971554	10
1	1911	734.804978155171	9
1	1913	735.021021972557	9
1	1914	736.271830145075	9
1	1916	736.45548796092	9
1	1918	738.479850592082	10
1	1920	738.507787003217	11
1	1921	738.633392291247	11
1	1923	738.938862543676	11
1	1925	740.505746594652	12
1	1926	740.889397237589	12
1	1927	741.661794715186	11
1	1928	744.209957544527	10
1	1929	744.302469081726	9
1	1937	746.000774606	9
1	1938	746.508491276877	9
1	1942	747.416581313435	8
1	1944	748.894175487205	8
1	1945	748.96610786645	8
1	1946	749.497361113703	7
1	1947	749.52097672155	6
1	1948	749.672473052662	5
1	1949	750.726034036491	4
1	1950	751.0086883334	3
1	1951	752.692312542181	2
1	1952	753.137886795569	1
1	1953	753.324712818175	0
1	1955	755.715028063546	0
1	1957	756.121853676281	1
1	1959	757.216734529669	2
1	1960	757.600146399295	2
1	1962	757.822560090463	2
1	1964	758.633081240861	3
1	1965	758.813271501748	3
1	1966	759.650308429189	2
1	1967	760.802313900343	1
1	1972	761.925780060514	1
1	1976	762.504924853177	1
1	1981	763.996974598591	1
1	1982	764.211833846414	1
1	1986	764.800511537952	1
1	1988	765.393083765044	1
1	1992	767.4901019524	0
1	1994	767.523680663779	0
1	1995	768.562042204198	0
1	1999	769.148630935653	0
1	2001	769.349801395638	0
1	2009	775.414280258506	0
1	2013	777.591052990919	0
1	2017	778.002489593103	0
1	2019	778.257863512426	1
1	2022	779.100603561772	2
1	2023	780.191795801194	2
1	2025	780.386707348069	2
1	2032	784.076116752518	2
1	2034	784.812484061592	2
1	2036	784.903889796144	3
1	2045	785.783940645707	4
1	2052	787.700853842427	5
1	2063	788.944147348325	6
1	2064	790.950532767229	6
1	2065	791.289533677026	5
1	2067	791.483033626651	5
1	2074	794.820450073702	6
1	2079	796.855710204461	6
1	2080	797.142547409433	5
1	2082	797.440820087801	5
1	2083	798.473241113706	5
1	2087	801.438322952973	4
1	2089	801.469744687099	4
1	2090	802.220505595632	4
1	2092	802.375050287033	4
1	2093	802.674610779432	4
1	2097	804.267510806764	3
1	2099	805.176003971229	3
1	2101	805.945793356782	4
1	2103	806.404435035726	5
1	2104	807.02966563049	5
1	2106	807.980009042753	5
1	2108	811.155474760674	6
1	2110	811.76368213605	7
1	2111	812.577475256664	7
1	2112	812.695227024853	6
1	2114	813.613691046657	6
1	2115	813.993990543123	6
1	2116	814.306735336245	5
1	2117	814.551588006825	4
1	2122	815.17801641835	4
1	2123	816.130973099773	4
1	2125	816.298543798043	4
1	2126	817.526811984605	4
1	2127	817.541167292834	3
1	2129	818.002774984656	3
1	2133	819.080485421863	3
1	2134	819.222718490863	2
1	2136	819.405289885028	2
1	2138	819.619161327877	3
1	2140	820.473091346578	4
1	2142	820.619739547396	5
1	2144	821.650238389802	6
1	2145	821.959148349653	6
1	2149	822.900520090468	6
1	2152	824.583983236588	7
1	2156	825.202262918767	8
1	2159	826.00632775607	9
1	2163	829.035748784203	9
1	2164	829.038426504857	8
1	2165	829.21749488021	7
1	2166	830.27975295334	6
1	2172	831.90081090528	6
1	2175	833.203110074311	6
1	2176	833.417110611672	5
1	2177	836.328050029834	4
1	2178	836.724948839858	3
1	2180	837.198689722669	3
1	2182	839.124271835015	4
1	2183	841.791999099908	4
1	2184	841.893512161809	3
1	2186	842.707998861317	3
1	2193	844.672348856616	3
1	2195	846.228128379145	3
1	2209	850.652012521766	4
1	2211	850.791025976413	5
1	2219	854.253500961045	6
1	2221	854.386181937729	7
1	2222	854.442327710927	7
1	2224	854.69308444232	7
1	2229	856.885773818993	8
1	2233	858.914057038635	8
1	2235	859.164585547444	8
1	2237	859.215764171245	9
1	2239	859.397481607602	10
1	2240	859.639827631975	10
1	2241	859.704333843551	9
1	2243	859.735986902931	9
1	2245	862.255377599962	10
1	2247	862.278165421481	11
1	2248	862.504418924693	11
1	2250	863.235401176241	11
1	2251	863.24592497133	11
1	2262	866.607018737781	11
1	2263	867.200050532824	11
1	2265	867.599970037231	11
1	2266	867.720743465194	11
1	2274	869.368873118721	11
1	2276	869.929898604833	12
1	2277	870.076587485252	12
1	2278	870.43731218965	11
1	2279	871.167534566653	10
1	2281	871.306160562692	10
1	2282	871.424365781451	10
1	2284	872.401608469963	10
1	2285	872.933763313273	10
1	2290	873.644929718425	10
1	2294	874.684441563573	11
1	2296	875.420539665603	11
1	2298	875.712899083439	11
1	2299	876.223955215012	11
1	2300	876.574969122734	10
1	2301	876.5807915907	9
1	2303	877.033616957241	9
1	2304	877.074059307866	9
1	2308	880.078641348495	8
1	2310	880.140478681069	8
1	2311	880.358884347477	8
1	2315	880.753298733213	8
1	2318	881.004749785187	9
1	2320	881.226630289589	10
1	2322	881.677761934215	11
1	2326	884.404037335016	12
1	2328	884.483034604334	13
1	2330	884.728755463457	14
1	2332	885.489815355129	14
1	2334	886.41491252684	14
1	2335	886.936279668982	14
1	2336	887.384074796978	13
1	2341	888.915436125873	13
1	2342	889.860941312182	13
1	2346	890.06521970074	13
1	2349	890.650247385819	14
1	2351	891.301145803146	15
1	2352	891.440062823472	15
1	2354	891.641095433911	15
1	2355	892.347857620372	15
1	2356	893.266234505743	14
1	2358	893.706208921863	14
1	2360	893.86496203196	15
1	2362	896.467462855469	16
1	2363	897.187478570107	16
1	2364	897.284002851604	15
1	2366	900.773963712181	15
1	2367	901.626997134344	15
1	2368	902.027081485846	14
1	2369	902.291591998641	13
1	2373	903.841544979685	12
1	2375	904.457122711956	12
1	2379	905.321302909994	12
1	2380	906.58200448917	11
1	2381	906.735971581736	10
1	2382	907.264973093299	9
1	2383	907.295500796018	8
1	2385	909.445109858186	8
1	2390	909.76096607591	9
1	2391	909.832682179648	9
1	2392	910.801243755482	8
1	2394	912.099652867094	8
1	2396	912.212718317035	9
1	2397	913.051691321926	9
1	2399	915.134458560298	9
1	2400	915.251942149173	9
1	2402	915.329593285471	9
1	2409	916.26653807042	10
1	2411	916.540723090203	10
1	2412	917.154111226654	9
1	2413	917.381236284621	8
1	2415	918.770451664541	8
1	2420	920.532061405054	9
1	2424	920.936580339573	10
1	2427	921.254703485031	11
1	2429	921.800805236026	12
1	2431	922.019148887974	13
1	2435	922.84319331135	13
1	2439	923.868312531091	13
1	2445	924.574701041084	14
1	2446	925.482238439334	14
1	2447	927.653736671717	13
1	2448	928.082255711538	12
1	2450	928.252439859368	12
1	2454	929.150406134467	13
1	2456	929.875296341171	13
1	2458	930.031709357841	13
1	2463	933.658321648387	14
1	2483	940.656506393696	15
1	2484	941.957705890993	15
1	2485	942.055269896127	14
1	2486	942.415075012845	13
1	2490	943.113517836941	13
1	2493	944.239140944358	14
1	2500	946.852806581332	14
1	2510	948.701756172666	13
1	2512	949.265953931672	13
1	2514	949.65685203869	14
1	2515	950.205529773749	14
1	2516	950.491133154784	13
1	2518	951.014439524873	13
1	2519	951.438959799492	13
1	2521	952.944008885474	13
1	2525	954.748618580476	13
1	2526	954.837554525457	12
1	2530	957.069591844094	11
1	2531	958.427325986934	10
1	2538	960.386669972845	10
1	2541	960.600047648933	11
1	2543	961.535542627235	12
1	2547	964.112947904325	12
1	2553	964.603866840364	12
1	2556	967.144803683395	13
1	2558	967.310475583663	13
1	2562	969.279563374649	12
1	2563	969.341322490807	11
1	2564	971.310575481002	10
1	2566	971.489536097886	10
1	2568	971.572805943405	11
1	2570	971.58565502953	12
1	2572	972.173583417574	13
1	2573	972.524168395385	13
1	2574	974.855379049609	12
1	2578	975.341899504471	11
1	2594	977.688258146665	10
1	2595	979.482019859049	9
1	2596	980.073452018059	8
1	2597	980.426254530012	7
1	2598	980.637642969246	6
1	2600	980.644488851979	6
1	2602	982.045924115355	7
1	2603	982.157303850799	7
1	2605	982.384676899548	7
1	2606	983.455868812022	7
1	2610	985.056505937465	6
1	2611	987.282062633617	5
1	2612	987.355109825804	4
1	2613	987.848870722314	3
1	2614	988.768244846709	2
1	2615	989.785862014184	1
1	2616	990.047468068201	0
1	2618	990.132789741364	0
1	2629	992.307704699812	1
1	2631	994.356159274457	2
1	2632	994.403037261054	2
1	2634	994.481795412411	2
1	2635	994.692153331197	2
1	2636	995.638300043285	1
1	2637	996.077704770245	0
1	2645	999.87885090972	0
1	2653	1003.269202326739	1
1	2654	1003.296261577542	1
1	2656	1003.611877307572	1
1	2660	1005.19663535441	2
1	2667	1008.469070326829	3
1	2670	1011.638543966076	3
1	2671	1012.60874996792	2
1	2672	1012.808116525221	1
1	2674	1013.25560689209	1
1	2676	1013.269612685067	2
1	2678	1013.917600197626	3
1	2679	1014.403841860699	3
1	2681	1014.833339670326	3
1	2682	1015.180793339774	3
1	2684	1016.248101860059	3
1	2685	1016.711601999032	3
1	2687	1017.612320551978	3
1	2689	1017.77125600429	4
1	2691	1018.422504451219	5
1	2692	1019.135674248724	5
1	2693	1019.58263558052	4
1	2694	1020.295357495255	3
1	2695	1021.113289205423	2
1	2696	1022.322551248003	1
1	2704	1023.70619928413	1
1	2709	1024.692621615378	2
1	2710	1024.756951837753	2
1	2711	1025.064191347173	1
1	2716	1026.254920566439	1
1	2717	1028.723056169636	1
1	2718	1029.421542696596	0
1	2729	1034.461064261695	0
1	2731	1037.318244171727	1
1	2732	1037.485887515223	1
1	2733	1038.351169475635	0
1	2735	1040.000775997029	0
1	2736	1041.511608367686	0
1	2743	1045.285666381041	0
1	2746	1045.838677279393	1
1	2747	1046.043372846834	1
1	2752	1046.812294628715	1
1	2757	1048.542292080019	2
1	2758	1048.575035940089	2
1	2759	1048.699315520178	1
1	2761	1049.361890572126	1
1	2763	1049.453508901997	2
1	2765	1050.121258820924	3
1	2766	1050.557164883	3
1	2767	1051.525043872682	2
1	2768	1051.883941287413	1
1	2772	1054.30839929123	0
1	2774	1055.927069667581	0
1	2776	1056.415220177811	1
1	2778	1056.46185624688	2
1	2779	1056.821493498647	2
1	2784	1057.574926354553	2
1	2786	1057.871716712055	3
1	2787	1059.400521146084	3
1	2789	1059.741331533205	3
1	2790	1060.191032002878	3
1	2795	1064.462638317405	3
1	2800	1067.320394553363	4
1	2804	1068.274352828937	4
1	2806	1071.162467685943	4
1	2807	1072.039371951595	4
1	2808	1074.541571658156	3
1	2809	1074.802563222869	2
1	2810	1075.971106002984	1
1	2811	1076.440816191777	0
1	2813	1079.717214033616	0
1	2817	1082.424723862959	0
1	2825	1084.6738690168	0
1	2827	1085.156023481728	1
1	2828	1085.215324624509	1
1	2830	1085.218991112745	1
1	2832	1085.225348698176	2
1	2833	1086.037260961302	2
1	2834	1086.209636267869	1
1	2838	1086.497339180482	0
1	2843	1090.608273778111	0
1	2848	1092.461033516133	1
1	2849	1092.942564262401	1
1	2851	1092.995239505253	1
1	2853	1093.669145510604	2
1	2863	1097.045766761202	3
1	2865	1097.162192023122	4
1	2870	1099.327877660957	4
1	2872	1100.736036832595	4
1	2874	1101.687329350423	5
1	2875	1102.073771894033	5
1	2876	1102.628707986768	4
1	2881	1104.487363067987	4
1	2882	1104.735219445903	4
1	2883	1104.862772099364	3
1	2885	1106.233629500522	3
1	2887	1107.800327814805	4
1	2889	1108.211299276363	5
1	2893	1111.08296031973	5
1	2897	1111.989284610257	4
1	2898	1112.734915934883	3
1	2899	1113.669928639392	2
1	2901	1115.08048071479	2
1	2903	1115.704582121493	3
1	2907	1117.638126589232	3
1	2909	1118.100536734966	3
1	2910	1119.406967928336	3
1	2912	1119.40789618157	3
1	2920	1121.569000902079	4
1	2924	1123.224700978961	4
1	2925	1123.368456590672	3
1	2927	1123.762353173536	3
1	2928	1124.8382269105	3
1	2933	1127.262303819554	3
1	2934	1127.929426405764	3
1	2935	1128.605956822163	2
1	2937	1128.667036626902	2
1	2938	1130.238311461306	2
1	2939	1130.780689855699	1
1	2940	1131.48305229966	0
1	2942	1132.308796229589	0
1	2943	1132.535621217854	0
1	2945	1133.19352088299	0
1	2949	1135.406412288956	1
1	2952	1135.921362755661	2
1	2960	1137.373425094839	3
1	2964	1138.835650090459	4
1	2968	1139.712073446991	5
1	2975	1143.72280403034	6
1	2976	1144.676092202891	6
1	2977	1144.691711611944	5
1	2978	1145.468352007294	4
1	2986	1146.484148878892	4
1	2987	1146.543938630133	4
1	2991	1147.263053048516	4
1	3003	1150.083024398143	5
1	3004	1150.772972519404	5
1	3006	1151.864745902403	5
1	3007	1151.922128662248	5
1	3008	1154.382257022925	4
1	3010	1155.211538045204	4
1	3015	1157.599297944287	5
1	3016	1157.680559330223	5
1	3018	1157.722005192353	5
1	3023	1161.109938442488	6
1	3025	1161.536835239044	7
1	3026	1163.344359019929	7
1	3030	1165.220452749613	6
1	3032	1165.481177772017	6
1	3034	1166.014082795985	7
1	3038	1166.491101659656	7
1	3040	1167.126526474364	7
1	3048	1170.613582277867	8
1	3052	1171.913757435721	9
1	3054	1172.566219125813	9
1	3058	1174.688137067784	8
1	3065	1176.593338245333	7
1	3067	1177.2611019927	7
1	3068	1177.383193759611	7
1	3070	1178.645356204794	7
1	3075	1180.055612857439	8
1	3077	1180.406062456153	9
1	3078	1180.719873648987	9
1	3079	1181.865345166904	8
1	3080	1182.301625042632	7
1	3085	1183.796156317005	7
1	3090	1186.762483937575	8
1	3091	1186.804282377177	8
1	3092	1187.598303615805	7
1	3093	1187.834117572907	6
1	3095	1188.301323458769	6
1	3097	1188.529434160686	7
1	3098	1190.79799988276	7
1	3100	1192.027440402755	7
1	3102	1192.391477933016	8
1	3104	1192.496038111542	9
1	3106	1193.062773180947	10
1	3110	1194.279532763775	10
1	3111	1196.575114848087	9
1	3115	1198.336244084382	8
1	3116	1199.706820536271	7
1	3118	1200.945210771911	7
1	3120	1200.968436468705	8
1	3121	1201.463931954667	8
1	3122	1202.038411686025	7
1	3124	1204.140615585051	7
1	3126	1204.195645615287	8
1	3127	1204.887812629927	8
1	3134	1206.059234516677	7
1	3139	1206.340307297531	7
1	3141	1206.669786391772	8
1	3142	1206.992572885924	8
1	3149	1208.706377975091	8
1	3154	1210.149149021023	8
1	3156	1211.288260912544	8
1	3158	1211.733699088669	9
1	3159	1211.869561859205	9
1	3160	1211.930458458141	8
1	3161	1212.667182245805	7
1	3163	1212.871556651827	7
1	3164	1213.093540404787	7
1	3165	1213.128630811623	6
1	3169	1213.627079839902	5
1	3170	1213.855588040026	4
1	3172	1215.537464044082	4
1	3174	1215.710332038519	5
1	3175	1215.768042131348	5
1	3176	1216.303811514417	4
1	3182	1217.622603133132	4
1	3185	1218.456811603348	4
1	3186	1218.494128451019	3
1	3188	1219.576690114805	3
1	3190	1220.330311731554	4
1	3191	1220.731846930307	4
1	3192	1221.675961383842	3
1	3193	1222.11091655607	2
1	3195	1222.79801259976	2
1	3197	1223.279239885395	3
1	3202	1226.650403735349	4
1	3203	1227.180612934564	4
1	3205	1227.817694641599	4
1	3206	1228.024707671604	4
1	3211	1230.349569333772	4
1	3215	1232.069968457781	4
1	3219	1233.150616489047	3
1	3220	1233.167506252572	2
1	3222	1233.295763519415	2
1	3230	1234.73236463371	3
1	3232	1234.768831258007	4
1	3236	1235.761355027974	4
1	3240	1238.33345833239	3
1	3241	1238.838390222862	2
1	3243	1239.082677977812	2
1	3249	1239.474720502281	3
1	3262	1245.328913481413	4
1	3266	1245.644226574473	4
1	3268	1247.656394668583	4
1	3269	1247.680033838838	4
1	3271	1248.040585847966	4
1	3275	1249.987000244072	4
1	3281	1250.423633268564	4
1	3283	1250.481993920095	5
1	3285	1250.507862352739	6
1	3291	1253.431617921632	6
1	3292	1254.337242507997	5
1	3293	1255.101850125057	4
1	3301	1258.194072927453	4
1	3302	1259.159612789782	4
1	3306	1260.040028984571	3
1	3311	1261.342502832997	3
1	3313	1261.726582932605	4
1	3315	1262.499796157288	5
1	3317	1266.040757450691	6
1	3321	1268.190642272766	6
1	3323	1268.657777915645	6
1	3330	1270.096568597122	6
1	3332	1270.189719881927	6
1	3336	1272.075127710501	7
1	3345	1274.447483946125	8
1	3347	1274.532245657444	9
1	3348	1274.58504762207	9
1	3349	1274.698641273375	8
1	3355	1275.055130696576	8
1	3358	1276.448030477161	8
1	3360	1276.822992712209	8
1	3364	1279.74344874333	8
1	3365	1281.245787856848	7
1	3367	1282.043689253236	7
1	3368	1282.092611787315	7
1	3369	1282.377782602559	6
1	3374	1283.403825044027	6
1	3375	1284.572968188251	6
1	3376	1284.580498490528	5
1	3378	1285.094955984999	5
1	3379	1286.571616934643	5
1	3387	1288.742455456776	5
1	3388	1288.767623779289	5
1	3389	1288.96864866021	4
1	3395	1291.951214842974	4
1	3399	1292.253977266382	5
1	3403	1294.107878585463	5
1	3404	1294.635265362265	4
1	3406	1294.95814522781	4
1	3410	1295.750064930315	5
1	3415	1296.84371623169	5
1	3417	1298.564217826528	5
1	3419	1298.598043295781	6
1	3420	1298.685586524212	6
1	3421	1298.756330360264	5
1	3428	1300.811038465104	4
1	3432	1301.846918497003	3
1	3439	1302.981284412581	3
1	3444	1305.058465401499	3
1	3446	1307.117176133922	3
1	3447	1307.661038406613	3
1	3449	1307.991745688489	3
1	3450	1309.72967709056	3
1	3454	1311.238178874488	2
1	3455	1311.781067342138	1
1	3457	1313.501667631123	1
1	3458	1313.548473116853	1
1	3462	1315.641976883846	0
1	3466	1316.186113295622	0
1	3468	1316.39588885157	1
1	3474	1318.956496346812	2
1	3479	1319.58566116584	3
1	3480	1319.982174302325	3
1	3481	1321.507525691073	2
1	3488	1323.448471789349	2
1	3497	1325.32088025755	3
1	3499	1325.469444378952	4
1	3501	1325.647007558259	5
1	3502	1329.58869742893	5
1	3504	1329.734592490045	5
1	3505	1329.880847971919	5
1	3507	1330.152250428538	5
1	3509	1330.413028754655	6
1	3510	1330.730238715523	6
1	3512	1330.860729931742	6
1	3514	1330.997580309497	7
1	3515	1331.009709808768	7
1	3519	1333.096453382248	6
1	3521	1333.892758289326	6
1	3522	1334.446608680729	6
1	3524	1339.088371718224	6
1	3525	1342.26480894326	6
1	3526	1344.319642452865	5
1	3528	1344.891673569129	5
1	3529	1346.566016169019	5
1	3531	1347.161369606661	5
1	3536	1348.122539956755	6
1	3537	1348.299418276898	6
1	3541	1348.521490724849	5
1	3542	1348.715247759007	4
1	3544	1348.753860563792	4
1	3549	1349.827779784865	5
1	3553	1351.556127741088	5
1	3557	1351.98125867623	5
1	3559	1352.326139776878	5
1	3561	1352.389544403939	5
1	3565	1356.561836337012	5
1	3567	1357.423961720361	5
1	3568	1359.448410823054	5
1	3570	1360.495125047093	5
1	3571	1360.545262642797	5
1	3573	1362.959380553378	5
1	3574	1364.064095420378	5
1	3575	1365.334711144742	4
1	3587	1367.991452416243	4
1	3593	1370.116093635138	4
1	3595	1370.984915440803	4
1	3599	1371.14663046472	5
1	3605	1372.439899114553	6
1	3606	1373.291911934005	6
1	3607	1373.647432856767	5
1	3609	1375.603428900156	5
1	3610	1375.86401733102	5
1	3621	1377.440789216121	5
1	3623	1379.767444593761	6
1	3624	1380.737179335044	6
1	3626	1380.954988391576	6
1	3628	1381.359257029197	7
1	3632	1382.824863507595	8
1	3637	1383.667271054979	9
1	3639	1383.695981295894	10
1	3641	1384.504452685313	11
1	3643	1386.523302775554	11
1	3644	1386.572507877351	10
1	3646	1386.608632939426	10
1	3654	1388.851474225357	11
1	3658	1389.624652494816	12
1	3660	1390.131742503476	12
1	3664	1391.026389471675	11
1	3666	1391.524042375939	11
1	3670	1392.395329886869	11
1	3672	1392.539157740531	11
1	3673	1394.005903924466	11
1	3675	1394.04473036755	11
1	3676	1394.105772484019	11
1	3677	1395.437214010476	10
1	3679	1396.070870131079	10
1	3680	1396.420523678635	10
1	3684	1397.402245575827	10
1	3687	1398.306215266116	11
1	3694	1399.602090855509	11
1	3698	1400.176069074325	11
1	3701	1402.300530502882	12
1	3703	1402.879710444027	13
1	3705	1402.93464963634	14
1	3706	1404.236274842004	14
1	3708	1404.684264470289	14
1	3712	1405.348669181353	14
1	3714	1406.457108374987	14
1	3715	1409.005026801436	14
1	3725	1411.106957354646	14
1	3727	1412.324532611006	14
1	3728	1414.48617375298	13
1	3729	1416.122371599731	12
1	3731	1417.271171760725	12
1	3735	1418.453785516029	12
1	3742	1419.671562285149	11
1	3743	1419.807032655724	10
1	3745	1421.564207764639	10
1	3746	1421.899093064368	10
1	3748	1422.683214589727	10
1	3749	1424.757149538686	10
1	3754	1425.845553967207	10
1	3756	1425.869749287609	11
1	3758	1426.442012104011	12
1	3763	1428.833157887934	13
1	3767	1431.65517883638	13
1	3769	1431.970765955353	13
1	3770	1432.116278774546	13
1	3775	1433.594922012679	13
1	3777	1434.882887814001	14
1	3778	1435.002331710537	14
1	3780	1435.175652504236	14
1	3788	1436.991999958783	15
1	3792	1438.688179787322	15
1	3797	1440.987723612428	15
1	3798	1443.084413296134	15
1	3799	1444.101035250044	14
1	3800	1445.428245965308	13
1	3801	1446.637057309248	12
1	3802	1446.727258868316	11
1	3803	1447.281054544721	10
1	3811	1449.1588659848	10
1	3816	1450.541957007897	11
1	3818	1450.67737522204	12
1	3819	1451.99409532821	12
1	3821	1452.56252640971	12
1	3823	1452.84299941284	13
1	3825	1454.48759472233	14
1	3827	1454.584068596926	15
1	3828	1454.807683735175	15
1	3829	1454.992119695942	14
1	3831	1455.058794327688	14
1	3839	1456.377896580998	15
1	3843	1458.376968481332	15
1	3844	1458.740245768442	14
1	3846	1458.802505179345	14
1	3848	1458.907071898296	15
1	3858	1463.437444349145	15
1	3860	1463.493881938679	15
1	3861	1464.239157461014	15
1	3868	1465.579092945434	14
1	3869	1465.59751114234	13
1	3874	1467.684920738876	13
1	3875	1467.705297777681	13
1	3877	1467.722905891438	13
1	3879	1468.327295499201	14
1	3883	1470.868301747774	14
1	3885	1471.890497920476	14
1	3887	1472.259676571688	15
1	3888	1472.414317484483	15
1	3889	1474.213567852337	14
1	3891	1475.098032246007	14
1	3896	1477.445698248199	15
1	3897	1478.367491445595	15
1	3899	1478.894508799482	15
1	3900	1480.720076990936	15
1	3905	1482.105911647837	15
1	3913	1483.873312376171	16
1	3917	1485.615959849415	17
1	3919	1485.678465897318	17
1	3923	1486.537472619769	17
1	3925	1487.181233082186	17
1	3927	1487.247444289002	17
1	3929	1487.274035189381	18
1	3930	1488.133115830158	18
1	3932	1488.419124731561	18
1	3934	1490.109595082367	19
1	3942	1495.285629301229	20
1	3944	1495.323328453612	21
1	3945	1496.509633585087	21
1	3947	1496.590051724087	21
1	3948	1497.965135391558	21
1	3952	1498.382220889108	21
1	3954	1499.978399517463	21
1	3956	1500.845482116075	21
1	3964	1501.938317555169	22
1	3966	1502.462030048019	23
1	3970	1504.060444811687	23
1	3972	1504.346265521277	23
1	3979	1505.556658213656	23
1	3981	1506.201490917326	23
1	3982	1506.935636609221	23
1	3983	1507.119241700393	22
1	3985	1507.854588273501	22
1	3986	1509.069653791223	22
1	3988	1509.905729272438	22
1	3989	1510.491869724323	22
1	3990	1510.848537777741	21
1	3991	1510.988236058374	20
1	3992	1512.082378839768	19
1	3994	1512.740136366255	19
1	3995	1513.127788582051	19
1	3996	1513.485752831922	18
1	3997	1514.824992849569	17
1	4001	1517.559012969148	16
1	4002	1518.216436291272	15
1	4004	1518.31655761261	15
1	4005	1518.351371694695	15
1	4006	1518.600899338652	14
1	4011	1520.485199560921	14
1	4015	1522.624549170148	14
1	4016	1522.624939792198	13
1	4017	1523.153579981708	12
1	4022	1524.347605153444	12
1	4023	1525.07646475109	12
1	4025	1525.624985592344	12
1	4026	1526.209010528176	12
1	4030	1527.014051468887	11
1	4032	1527.038395181482	11
1	4036	1527.57273913525	12
1	4044	1531.823617581669	13
1	4049	1532.919017483918	14
1	4061	1536.19680341938	15
1	4062	1537.169811016235	15
1	4064	1537.79137543025	15
1	4065	1538.846342147229	15
1	4066	1539.708151558041	14
1	4073	1541.656109110687	13
1	4075	1543.126642113625	13
1	4076	1545.938390621577	13
1	4077	1545.982924315719	12
1	4079	1546.217285889365	12
1	4085	1546.70888898631	13
1	4088	1547.089566781279	14
1	4091	1549.153593895994	15
1	4093	1550.018828730174	16
1	4098	1550.748499613574	17
1	4100	1551.169169267295	18
1	4101	1551.328538961998	18
1	4105	1553.276187267222	17
1	4106	1554.598868055981	16
1	4110	1555.514390832479	16
1	4112	1555.926441177214	16
1	4113	1555.966087089126	15
1	4115	1556.678810683972	15
1	4117	1558.8894362072	16
1	4118	1560.219818201679	16
1	4123	1561.82619995855	16
1	4124	1562.271181332994	16
1	4129	1563.169455052879	16
1	4130	1563.303349296163	16
1	4131	1563.64752189804	15
1	4133	1563.77327367757	15
1	4145	1565.468909396598	16
1	4154	1567.789807275237	16
1	4155	1568.947778531414	15
1	4156	1569.144633520076	14
1	4158	1569.192933725401	14
1	4159	1569.547766703963	14
1	4161	1570.269021897867	14
1	4165	1571.423948809078	14
1	4167	1571.57034449934	14
1	4169	1572.656313527567	15
1	4171	1572.974536214563	16
1	4176	1573.887008483087	17
1	4177	1575.299722545873	17
1	4178	1575.79191571224	16
1	4189	1578.787731628914	16
1	4190	1580.434873844536	16
1	4192	1580.712621676124	16
1	4193	1581.781346667428	16
1	4195	1582.154980629413	16
1	4196	1584.557855136645	16
1	4197	1585.325572995279	15
1	4199	1585.75355506067	15
1	4200	1586.041604367643	15
1	4202	1586.357659235884	15
1	4203	1587.760585487018	15
1	4205	1588.366493256081	15
1	4206	1588.62648100373	15
1	4211	1590.488406032327	15
1	4213	1591.271649886714	16
1	4215	1591.304242837441	17
1	4216	1591.564118518158	17
1	4221	1595.185218012818	17
1	4222	1596.310159871232	17
1	4233	1598.776197344171	17
1	4235	1601.10870167515	18
1	4236	1601.285668924812	18
1	4237	1601.91652245212	17
1	4238	1602.576254995359	16
1	4242	1604.058559556943	15
1	4244	1604.491288053763	15
1	4245	1604.525393182773	15
1	4246	1604.984313313009	14
1	4247	1605.952859877688	13
1	4252	1607.037271937462	13
1	4253	1607.065676599058	13
1	4255	1607.140586586934	13
1	4256	1608.721222881425	13
1	4258	1608.862378376657	13
1	4260	1609.037935198002	14
1	4262	1610.390581597441	15
1	4266	1611.789130839289	16
1	4269	1611.871560223347	17
1	4270	1612.008885976018	17
1	4274	1612.849206026204	16
1	4275	1613.145259210037	15
1	4276	1613.36750491345	14
1	4278	1614.172153554931	14
1	4279	1614.328067728852	14
1	4284	1617.282185638715	14
1	4288	1619.852687983848	14
1	4289	1621.463927408147	13
1	4290	1621.851090174442	12
1	4295	1623.499983241079	12
1	4296	1624.585609960353	12
1	4297	1625.013351977863	11
1	4298	1626.344748004653	10
1	4299	1626.718914989794	9
1	4304	1630.069802118319	9
1	4306	1630.181539735415	10
1	4307	1630.906280905236	10
1	4312	1634.216580123725	10
1	4313	1636.13189455027	10
1	4315	1636.659532494144	10
1	4316	1636.733744431874	10
1	4320	1637.787240310316	10
1	4322	1638.200550082266	10
1	4327	1641.197226368989	10
1	4331	1644.283901914114	10
1	4333	1645.49361061984	10
1	4335	1645.616987445694	11
1	4337	1647.130141531205	12
1	4338	1647.331892431174	12
1	4340	1648.373683175734	12
1	4342	1648.520887821972	13
1	4343	1648.719370327769	13
1	4344	1649.046482476941	12
1	4346	1651.855972063214	12
1	4354	1653.652734951933	13
1	4356	1654.22813958991	14
1	4357	1654.403236218954	14
1	4359	1654.779304376448	14
1	4367	1656.98460454218	15
1	4373	1657.181949129738	16
1	4376	1657.894980712367	17
1	4379	1658.741410703953	18
1	4380	1659.111598087302	18
1	4384	1660.262648035142	17
1	4385	1660.574813371466	16
1	4386	1660.754923154816	15
1	4391	1663.284667712124	15
1	4392	1664.715869324946	15
1	4394	1665.182457727123	15
1	4395	1665.459814470022	15
1	4397	1667.617710565826	15
1	4398	1667.65439849706	15
1	4402	1669.276983306497	15
1	4407	1670.297159769064	15
1	4408	1670.311910292009	14
1	4409	1670.846329989667	13
1	4410	1672.434923084651	12
1	4412	1673.13777499632	12
1	4418	1674.366152352082	13
1	4421	1674.771442626189	14
1	4426	1675.466378610324	14
1	4428	1675.624542496894	14
1	4429	1676.249383386492	14
1	4430	1676.510278225057	13
1	4437	1678.860012543647	13
1	4440	1679.843899710809	14
1	4442	1680.487139418943	15
1	4443	1680.951439885964	15
1	4444	1681.237294955561	14
1	4445	1681.343623643032	13
1	4446	1681.533801660336	12
1	4448	1682.251637601489	12
1	4449	1683.742659053022	12
1	4453	1684.938833582329	11
1	4457	1686.181321549444	11
1	4459	1686.523536945646	11
1	4464	1687.659799476999	11
1	4466	1688.691366962394	12
1	4468	1688.77619653331	13
1	4470	1689.894047760565	14
1	4474	1690.513454042281	14
1	4476	1690.660052219322	14
1	4477	1691.34878257305	14
1	4484	1692.242834350188	14
1	4486	1692.394262680164	15
1	4488	1693.09444644875	15
1	4495	1695.515908248126	14
1	4500	1697.988763207918	14
1	4502	1698.064006952229	15
1	4504	1698.110103390316	16
1	4509	1699.733718976104	17
1	4517	1702.556393341081	18
1	4518	1703.237004701094	18
1	4519	1703.322902427502	17
1	4520	1703.361573005801	16
1	4521	1703.508794159445	15
1	4522	1703.538254232609	14
1	4524	1703.639822435918	14
1	4526	1703.792334437328	15
1	4528	1703.940653826739	16
1	4529	1704.153854740047	16
1	4530	1704.613261067429	15
1	4532	1706.241746127111	15
1	4533	1708.008554899017	15
1	4535	1710.633657776705	15
1	4537	1711.331286103324	16
1	4538	1711.64788421697	16
1	4539	1713.075820643574	15
1	4540	1713.376510847251	14
1	4542	1714.303858712738	14
1	4543	1715.032950790121	14
1	4545	1715.10834084814	14
1	4550	1717.562457721769	15
1	4555	1720.336723406425	16
1	4556	1720.341509602693	16
1	4557	1720.740511693702	15
1	4559	1721.131241131313	15
1	4563	1721.613914897475	16
1	4565	1721.866093648409	16
1	4571	1724.15065998221	16
1	4574	1726.952563840461	16
1	4579	1728.483675644122	16
1	4581	1728.797504630486	17
1	4582	1730.317763173119	17
1	4583	1730.786797076836	16
1	4584	1731.354136339945	15
1	4585	1732.077180707588	14
1	4587	1733.294607028919	14
1	4588	1733.697607259647	14
1	4589	1734.538239843094	13
1	4591	1736.014753844681	13
1	4593	1736.810179623972	14
1	4594	1739.333028653351	14
1	4596	1739.474557307876	14
1	4614	1744.208459320931	15
1	4620	1747.007450021417	15
1	4621	1747.58913492781	14
1	4623	1749.289818308797	14
1	4624	1749.821572701122	14
1	4625	1750.079077528499	13
1	4627	1750.213855658144	13
1	4629	1750.689026875201	14
1	4630	1751.151816111801	14
1	4631	1751.973483672675	13
1	4632	1752.176138807395	12
1	4633	1752.685433630567	11
1	4634	1753.346947843389	10
1	4635	1753.706977379982	9
1	4640	1756.388672207907	9
1	4642	1757.391404763536	10
1	4643	1757.466241814196	10
1	4644	1758.445926603332	9
1	4646	1758.89000647187	9
1	4651	1759.967597518718	10
1	4655	1762.947102605383	10
1	4657	1764.186458608672	10
1	4661	1765.804819373272	10
1	4668	1766.675713639417	9
1	4669	1766.809024035098	8
1	4670	1766.873074410292	7
1	4675	1768.182011661552	7
1	4676	1768.653869859548	7
1	4678	1769.710296327225	7
1	4679	1770.286124016752	7
1	4689	1774.559710425479	6
1	4691	1775.673147014751	6
1	4692	1779.012208298112	6
1	4705	1784.214308689247	5
1	4710	1784.975942447066	5
1	4712	1785.287826748765	6
1	4714	1785.974522933485	7
1	4715	1786.194663088054	7
1	4717	1786.243124004093	7
1	4730	1790.938557145112	7
1	4731	1791.362386156525	6
1	4732	1791.646606816768	5
1	4736	1792.806629353212	5
1	4739	1794.008702910584	6
1	4743	1794.94807076294	6
1	4745	1795.682130404145	6
1	4746	1796.144011130687	6
1	4750	1797.418134366151	5
1	4751	1797.637052363416	4
1	4753	1798.014168369375	4
1	4754	1798.082817051391	4
1	4756	1798.159709162707	4
1	4758	1798.406348229493	5
1	4760	1798.421459374372	6
1	4765	1801.652420026806	7
1	4767	1801.741841602978	8
1	4769	1802.042819243886	9
1	4770	1804.716585737633	9
1	4771	1808.173589398629	8
1	4773	1808.949508670405	8
1	4775	1809.054926847736	9
1	4780	1810.961853261545	10
1	4782	1812.179095543623	11
1	4786	1814.760968208072	11
1	4788	1815.299224169909	11
1	4790	1815.596230187833	12
1	4795	1816.451903213415	13
1	4799	1818.504229780997	13
1	4800	1818.949533270556	12
1	4802	1819.251266743392	12
1	4810	1824.396338052462	13
1	4811	1826.593916202357	13
1	4813	1827.908992546454	13
1	4815	1828.15221512245	14
1	4817	1829.349389058722	15
1	4821	1829.636925711781	16
1	4829	1832.524279734607	16
1	4831	1832.711500991012	16
1	4832	1832.75215383904	16
1	4839	1833.930165329996	15
1	4840	1834.294770977367	14
1	4841	1834.514078207054	13
1	4845	1835.61646924196	12
1	4846	1837.259585594808	11
1	4847	1837.934678643986	10
1	4849	1839.881289404262	10
1	4851	1840.892631175077	11
1	4853	1840.95031094569	12
1	4866	1846.585649544389	12
1	4868	1846.973270414811	12
1	4870	1847.56258528547	13
1	4872	1848.112620461297	14
1	4873	1848.237721831248	14
1	4877	1851.809684927519	13
1	4879	1851.894560947021	13
1	4884	1853.567936913683	14
1	4886	1854.649558494742	15
1	4896	1858.225766360123	15
1	4898	1859.474858675156	15
1	4900	1859.87570328954	16
1	4902	1861.075910209402	17
1	4904	1862.218243377445	18
1	4905	1862.242198942723	18
1	4907	1862.489130557614	18
1	4908	1862.563008111128	18
1	4909	1862.968047376727	17
1	4914	1864.114795591905	17
1	4918	1865.393501781185	17
1	4923	1866.34243568184	17
1	4925	1866.740669188261	18
1	4930	1867.815340765716	19
1	4934	1868.533833216837	20
1	4937	1869.817516193291	21
1	4939	1870.512276043986	22
1	4941	1870.921642291801	23
1	4942	1872.471836535344	23
1	4944	1873.424256419026	23
1	4945	1873.744454087985	23
1	4947	1874.337347931866	23
1	4949	1875.884842122854	24
1	4950	1876.463720110553	24
1	4951	1876.593617295074	23
1	4952	1876.677592136027	22
1	4956	1876.861992473656	22
1	4958	1877.021856158183	22
1	4960	1877.390761050771	22
1	4961	1877.574327632658	22
1	4962	1877.650496024482	21
1	4963	1878.794828574478	20
1	4968	1881.166428873172	20
1	4970	1881.205089944587	21
1	4974	1884.183896727995	21
1	4975	1884.629396773805	20
1	4977	1886.125297958384	20
1	4979	1886.225091954625	21
1	4980	1886.580571374701	21
1	4981	1886.60971892742	20
1	4983	1887.845960595771	20
1	4985	1889.100500590582	21
1	4989	1890.396181617461	22
1	4995	1893.436847966259	23
1	4996	1893.544607387002	23
1	4998	1894.494441383186	23
1	4999	1894.762350843145	23
1	5005	1895.677953931945	23
1	5009	1897.307816740723	24
1	5013	1899.439436431117	25
1	5021	1901.638499043494	26
1	5026	1903.717886177312	26
1	5028	1904.005902010658	26
1	5029	1906.218337065765	26
1	5034	1909.683693718045	26
1	5035	1911.73671816852	26
1	5037	1913.381604694824	26
1	5038	1913.952409035161	26
1	5039	1915.62044548923	25
1	5041	1915.821891363902	25
1	5042	1916.078110521971	25
1	5044	1917.030181898114	25
1	5045	1917.04454719285	25
1	5046	1917.075047647361	24
1	5047	1917.269565256533	23
1	5048	1918.092894843972	22
1	5049	1918.160709984175	21
1	5051	1918.746408062969	21
1	5052	1919.753835751727	21
1	5063	1925.369991053918	21
1	5065	1926.873249118827	22
1	5069	1927.865645998465	22
1	5076	1928.858522817502	21
1	5078	1929.284745609592	21
1	5079	1930.965556360579	21
1	5081	1931.490436124935	21
1	5083	1931.88174760177	22
1	5088	1934.659005337684	23
1	5090	1935.135569509955	24
1	5091	1935.685699600894	24
1	5092	1935.71142583544	23
1	5096	1935.901404437669	22
1	5100	1936.638437245603	21
1	5102	1938.344643463282	21
1	5103	1938.657361290345	21
1	5110	1944.888936366034	20
1	5111	1944.951417716659	19
1	5112	1945.541321165284	18
1	5113	1949.594413768164	17
1	5115	1950.022439342548	17
1	5119	1952.343182311083	17
1	5120	1952.917650189102	16
1	5122	1953.434882140432	16
1	5126	1956.228382832416	16
1	5134	1957.420888789448	16
1	5135	1958.989895563238	16
1	5136	1960.349387240412	15
1	5138	1960.559933726831	15
1	5139	1960.794384854513	15
1	5141	1960.947080334749	15
1	5143	1961.003050851235	16
1	5145	1961.643605966125	17
1	5146	1962.018166905125	17
1	5147	1962.541273769558	16
1	5151	1963.378027489775	15
1	5153	1964.743439612953	15
1	5155	1964.908868424766	16
1	5160	1966.870158876174	17
1	5162	1967.527350488512	18
1	5163	1968.573692229791	18
1	5164	1969.098595931984	17
1	5168	1970.013031645851	16
1	5170	1970.333031409014	16
1	5171	1970.681094225858	16
1	5173	1970.750984863366	16
1	5178	1971.267956199404	17
1	5180	1971.715326588353	18
1	5181	1972.20676212985	18
1	5182	1974.518568610023	17
1	5187	1975.927195324647	17
1	5192	1976.924609406674	18
1	5194	1977.507250348229	19
1	5195	1977.672292708508	19
1	5203	1983.489959369871	19
1	5204	1984.63933405035	19
1	5208	1989.150512276185	18
1	5218	1993.908397055175	17
1	5219	1994.130096561837	16
1	5221	1994.355986329311	16
1	5225	1994.68023367667	17
1	5231	1998.110282542563	18
1	5232	1998.373859872939	18
1	5234	1998.881965908047	18
[...]
10	1847	707.034855512364	0.447283143925
10	1856	709.48420213928	0.881673711791
10	1857	709.533049458555	0.060880371483
10	1860	709.749170778231	0.187605879715
10	1865	712.929358255916	0.447015674443
10	1866	712.944952542414	0.118905254138
10	1869	713.270858866632	0.144434117841
10	1873	713.966845555656	0.062550263969
10	1880	717.407771273358	1.116850009917
10	1881	717.908432269526	0.806081117494
10	1890	726.353573840112	0.686709236437
10	1897	728.316488529962	1.729043498659
10	1900	728.565813726241	1.517467681476
10	1907	731.290498906014	0.446045778265
10	1932	745.066890548963	0.383446751516
10	1935	745.621193988517	0.334470281288
10	1941	746.900093192352	0.190900359431
10	1970	761.683757085721	0.590722438684
10	1975	762.427997018177	0.103416296347
10	1979	763.963670605873	0.105172758594
10	1987	764.971411083246	0.370422964134
10	1991	767.358472315532	1.447478557521
10	2000	769.30835274913	0.565903300569
10	2004	771.233321098226	0.04324254601
10	2007	774.341932033533	0.569278324291
10	2012	777.215961750719	0.589482291323
10	2020	778.447801792742	0.458910263104
10	2028	781.240449238064	0.029392537805
10	2031	783.882132329686	0.378993727254
10	2041	785.324393873753	0.389756579416
10	2046	785.911204795201	0.587756371488
10	2047	786.302437973356	0.972828946355
10	2050	786.930219607424	0.122836070415
10	2055	788.342416388996	0.157919700847
10	2060	788.64690957964	0.220598332011
10	2061	788.788115732489	0.145435136478
10	2070	792.775574520806	0.030311308879
10	2075	795.090016870469	1.109622695176
10	2078	795.890442967539	0.326525762615
10	2086	801.37983326008	0.604726578999
10	2096	803.478522765554	0.36623436256
10	2120	814.930095797265	0.000905282973
10	2132	818.555474805886	0.172419029963
10	2150	824.1242307754	1.867167914726
10	2157	825.212634084446	0.048437775818
10	2162	827.469249674883	0.670472181186
10	2173	832.099629315058	0.750887306437
10	2174	832.457862598015	0.97716463305
10	2191	844.048973116153	0.985605915313
10	2192	844.109214986477	0.8193965691
10	2200	847.312504928715	0.240812835181
10	2201	847.651783859617	0.426680496207
10	2206	848.879978784215	0.511350424344
10	2207	849.861322057794	1.087284673702
10	2214	851.716593247304	0.295806084556
10	2217	853.184963167348	0.683292854106
10	2227	856.386434890095	0.338777787856
10	2232	858.313755083077	1.341583075769
10	2256	864.82705865527	1.510148053829
10	2257	865.144053866333	1.338517659394
10	2260	866.355307940895	0.298782472297
10	2271	869.099788388601	1.219464732641
10	2272	869.179266877847	0.817829948638
10	2288	873.110925047708	0.111638236459
10	2295	875.418016011849	1.486697635855
10	2307	877.781433507466	0.254934374931
10	2316	880.772593920804	0.064633104375
10	2331	885.230839460889	1.026459395991
10	2339	888.571579581837	0.33451205361
10	2347	890.182882589727	0.142985665703
10	2372	903.779317573314	1.223275525887
10	2378	904.990030740991	0.488284034356
10	2388	909.755430245818	0.252404321354
10	2405	915.748899961807	0.046203666665
10	2410	916.535923207081	0.574032319661
10	2418	919.667584847429	0.578255474018
10	2425	921.039172394925	0.122178822427
10	2434	922.769663878776	0.307170603848
10	2440	924.083688432147	1.144379366414
10	2443	924.511617849687	0.325428400916
10	2455	929.477709062213	1.098571492932
10	2461	931.554584573102	0.588860393804
10	2466	934.736419418662	0.354369181249
10	2471	937.200495295619	0.318633587526
10	2474	938.454564990401	1.48527432929
10	2475	938.738217695305	0.819618226118
10	2480	940.530430882213	1.346494220392
10	2481	940.631615532153	0.112046117106
10	2491	943.779980131525	0.986570562437
10	2498	946.564700467913	1.753448419412
10	2499	946.648379799913	1.683955148198
10	2503	947.232165760134	0.21924045525
10	2506	948.161344379985	0.322344954238
10	2509	948.428698083523	0.161092707668
10	2524	954.281528341645	0.130500280425
10	2529	956.405927189786	0.549352382563
10	2534	959.327840376948	0.518977802115
10	2539	960.571026752736	0.70684802242
10	2546	962.180513886928	0.554810388852
10	2554	965.644988875589	1.343445236565
10	2557	967.254784589984	2.722930221658
10	2561	968.262440699827	0.86293186212
10	2577	975.061615908193	0.084310375584
10	2585	975.411377044475	0.055061693355
10	2590	975.865941519497	0.496451301461
10	2591	975.867237741506	0.472720299756
10	2592	976.118315723308	0.398023076326
10	2593	976.535275372285	0.798514974284
10	2609	985.023620345124	1.019286414171
10	2623	991.048717665362	0.647626527062
10	2626	992.05209943984	1.162118538045
10	2627	992.184007549018	0.347150253773
10	2642	997.15090245618	0.545471439719
10	2643	997.479736911186	0.840037884101
10	2648	1001.677140405672	0.747293585434
10	2651	1002.689865818276	0.201619047617
10	2665	1007.552034179292	2.619373049831
10	2668	1009.263130482716	3.644005781459
10	2669	1011.006896366132	5.311990619658
10	2705	1024.254828941464	1.360637537375
10	2706	1024.26684177385	1.347485102628
10	2707	1024.524775741396	1.604151221044
10	2714	1026.117713285491	0.350020489152
10	2721	1029.799477881455	0.151715729234
10	2724	1030.378192458232	0.096452755932
10	2727	1033.02922797046	1.195493041957
10	2739	1043.436745337933	0.146902626818
10	2744	1045.499729522454	0.305383521028
10	2750	1046.596334218895	0.338640131655
10	2755	1046.908420024953	0.021062824513
10	2771	1053.411647251544	0.740294914129
10	2782	1056.932592472275	0.020096048741
10	2793	1063.150281574892	0.787561200423
10	2798	1065.37633493549	0.661599247609
10	2803	1067.963880856365	0.070090597786
10	2816	1081.286650176664	0.385640895518
10	2820	1083.112994795618	0.248570931418
10	2823	1083.693598013672	0.411861142014
10	2837	1086.497026786114	0.096888699819
10	2841	1089.572732464595	0.012465828506
10	2846	1091.572260050169	0.588536400438
10	2856	1095.317862057311	0.529862525077
10	2859	1095.805028586156	0.468735024752
10	2866	1097.436427294333	0.655253991098
10	2869	1098.887929232284	0.598306711046
10	2879	1103.556622037784	0.145138248545
10	2892	1110.690708068267	0.022773819194
10	2896	1111.934048057358	0.573038508482
10	2906	1116.682843221851	0.683504352666
10	2917	1120.008919553502	0.333662175983
10	2918	1120.173376132726	0.447106422409
10	2923	1123.214697865113	0.958887851739
10	2931	1126.358748434638	0.763000401084
10	2950	1135.422286098986	0.027032195725
10	2965	1138.919521982241	2.762960475923
10	2966	1139.138166005382	2.632443056645
10	2969	1140.177162786621	3.483605645792
10	2972	1141.597572814779	4.11925606847
10	2973	1141.811182401519	0.874595832539
10	2983	1146.06412480063	0.24578074846
10	2984	1146.200202175683	0.285847759123
10	2994	1148.105659067031	1.124572948875
10	2995	1148.840142099243	1.142860835479
10	2998	1149.018838691726	0.047931759075
10	3001	1149.550305575007	0.139569367977
10	3013	1156.23977620388	0.249336878013
10	3021	1158.22998916657	0.236037370317
10	3029	1164.220738977179	0.657154813979
10	3037	1166.38012772759	0.128431496245
10	3045	1168.791722102988	0.632094625065
10	3046	1169.397225324849	0.952973199126
10	3053	1172.246842922454	1.011447227683
10	3057	1173.947702713889	0.636308990158
10	3061	1175.288466962822	0.431452923064
10	3064	1175.979004882638	0.228010946942
10	3073	1179.955932212692	0.088845993362
10	3083	1182.792783572724	0.190512709689
10	3088	1186.623500406195	0.239447358
10	3109	1193.931916879278	0.242337290719
10	3114	1197.975383153073	0.065071005045
10	3130	1205.150515159259	0.081209860395
10	3133	1205.534917465678	0.19965292449
10	3137	1206.211095408258	0.136299715319
10	3147	1207.945473302838	0.656520604045
10	3152	1209.605125998599	1.954639546467
10	3153	1209.978906205186	0.397518897102
10	3168	1213.447753223648	0.005866275441
10	3183	1217.696959256345	0.566236162924
10	3184	1218.19957304292	0.936656257894
10	3200	1226.134068774868	1.270682669577
10	3209	1229.638067629795	0.171492248694
10	3214	1231.043407404108	0.571980168431
10	3218	1232.656794157522	0.120349775233
10	3233	1235.029953007997	1.334576777016
10	3234	1235.34063395762	0.863701837365
10	3235	1235.717770639328	1.136716682499
10	3239	1237.410904052976	1.594905134113
10	3256	1241.417228446991	2.304502083428
10	3257	1241.481934456487	2.329753491238
10	3258	1241.987730874535	1.257599989825
10	3259	1243.535104253985	2.338509275903
10	3260	1244.568761368263	3.330603049508
10	3265	1245.55890897477	0.047629253644
10	3274	1249.018894775057	0.047990283561
10	3288	1251.621791857702	1.620566908561
10	3289	1252.629649795344	2.229142132004
10	3290	1253.11117625326	1.826481649399
10	3298	1256.230015534296	0.158865074185
10	3299	1256.378586643371	0.204579491238
10	3305	1259.833419446876	0.035928068828
10	3309	1261.19633143153	0.598144874558
10	3320	1268.030144302276	0.392456499315
10	3328	1269.022334597095	0.328795446448
10	3329	1269.185137181124	0.431864264672
10	3337	1272.532716029508	0.526783597488
10	3340	1274.115893268655	0.358265669842
10	3343	1274.345015385857	0.066816156186
10	3356	1275.650900070501	0.758576080875
10	3357	1275.775053342174	0.841335320586
10	3363	1278.571580473074	1.024871578166
10	3372	1283.238203954549	0.530468785394
10	3382	1286.890386992445	0.299504494361
10	3385	1287.082421951144	0.027850263941
10	3396	1292.155154995144	1.114938694356
10	3397	1292.206312077734	0.762834363797
10	3402	1293.546405624679	1.028015298597
10	3413	1296.476096150644	1.493788410412
10	3414	1296.766859869251	0.684547187983
10	3424	1299.506469260726	0.155335860329
10	3427	1300.458408121604	0.295268057142
10	3431	1301.65667614395	0.125618742103
10	3437	1302.916449740576	0.7432524174
10	3442	1303.234058355017	0.821676535709
10	3443	1303.503493922522	0.316450708031
10	3453	1311.11294050528	0.038190942886
10	3461	1315.12040412877	0.309532520118
10	3469	1317.099906524549	1.404113634497
10	3472	1317.895569383319	0.037680103557
10	3477	1319.554352415405	0.540794888772
10	3484	1321.923755293289	0.096311157747
10	3489	1323.82269603127	0.53662726666
10	3492	1324.473444322403	0.173674193217
10	3495	1324.792075128298	0.151567076067
10	3518	1331.738291000087	0.125820964683
10	3534	1347.624090346962	0.321561352384
10	3540	1348.38298116066	0.065540836511
10	3547	1349.795536393353	0.104389930298
10	3552	1350.503322700027	0.162293474006
10	3558	1352.204010874054	0.404665090431
10	3564	1354.546024754641	0.063147614889
10	3578	1366.834961357026	0.174258704563
10	3583	1367.703502737978	0.485398984721
10	3590	1369.269607355451	1.570756105981
10	3591	1369.614425800653	1.80047202526
10	3592	1369.893608520909	0.657163275357
10	3600	1371.317537286716	0.265271640784
10	3603	1372.057895454662	0.51571769884
10	3613	1376.1712971201	0.012593945668
10	3616	1376.668768694929	0.45698004565
10	3619	1377.303720752477	0.434942965549
10	3635	1383.138685506215	0.47057226965
10	3642	1384.622593131932	1.680330773036
10	3649	1387.055195486318	0.312493245013
10	3652	1388.198911478237	0.16629187612
10	3659	1389.819562815237	0.308126611135
10	3663	1390.35800597805	0.062647262113
10	3669	1392.068766622811	0.460716122754
10	3685	1397.405827708563	0.29667339136
10	3692	1399.455740214455	0.534748859501
10	3693	1399.596982930107	0.3038937341
10	3699	1402.048370524564	2.048593840056
10	3711	1404.804227671951	0.113674639347
10	3722	1410.816476503856	1.688740578851
10	3723	1411.037019915399	1.268623990493
10	3726	1411.165533884033	0.364386623436
10	3734	1418.070767346361	0.536150260024
10	3740	1419.623226134345	0.145631011217
10	3741	1419.646668937561	0.042068857079
10	3752	1425.503547637003	0.02842099885
10	3761	1428.60262708735	0.139693594079
10	3766	1429.822178432969	0.128708692175
10	3773	1432.583542414942	0.223917033046
10	3783	1436.30666792048	0.632940554138
10	3786	1436.454011919926	0.037533587935
10	3791	1438.244244571306	0.281258450763
10	3795	1439.695899529407	0.538432337678
10	3806	1449.047361789294	1.315263665166
10	3809	1449.112609093527	0.012974556065
10	3814	1450.452589582673	0.108938100063
10	3836	1456.213322162608	0.454687068342
10	3837	1456.250503626422	0.313752208277
10	3842	1457.160589638553	0.404994267638
10	3853	1461.026737792186	0.945809449462
10	3854	1461.196568369762	0.2840889582
10	3857	1463.228288904344	0.423298183985
10	3864	1465.190672523131	0.210045098514
10	3867	1465.25246735756	0.002007691566
10	3872	1465.997723534888	0.134682539306
10	3882	1469.942332287665	0.644044546548
10	3894	1477.328966441576	0.323928654147
10	3903	1481.786162893995	0.030552092477
10	3908	1482.129273819576	0.012413289147
10	3911	1483.025679107748	0.563191507057
10	3918	1485.654567502424	1.12550401626
10	3924	1486.663335029861	0.128961758047
10	3937	1492.764136485629	0.3437228622
10	3940	1493.669945153505	0.724051806482
10	3953	1498.507246332984	0.361243596052
10	3959	1501.350889890743	0.077478446081
10	3962	1501.818723757085	0.086094525121
10	3969	1503.452716923288	0.336811793599
10	3975	1504.970194526149	0.448147543249
10	3978	1505.429787407206	0.327463888354
10	4000	1515.304927370002	0.268639417494
10	4009	1519.078049073253	0.066163962887
10	4014	1520.79388419036	0.155678733971
10	4020	1523.546412383483	0.080027769624
10	4029	1526.812957904492	0.348935153614
10	4037	1530.021207306764	2.914805787848
10	4040	1531.511710593417	1.101331118119
10	4047	1532.844560387412	1.046469939798
10	4050	1533.889815670788	1.406256805118
10	4057	1535.262603473757	1.300377527182
10	4058	1535.843777878266	0.92467549612
10	4059	1535.867033048463	0.888451009287
10	4069	1540.532220971878	0.064901113192
10	4072	1541.050509849933	0.024489145956
10	4086	1547.04050727734	0.692237052518
10	4089	1547.759593446329	1.116844957429
10	4096	1550.536794717913	0.080956563947
10	4104	1552.066680751417	0.228001178472
10	4111	1555.683677165177	0.604427533042
10	4121	1560.818046892131	0.430256679144
10	4127	1563.115451481411	0.587833509451
10	4138	1564.428699332878	0.513310460817
10	4139	1564.501598111096	0.343560612768
10	4150	1567.225135281075	2.103367971725
10	4151	1567.464930685935	2.276472077109
10	4152	1567.618352534751	1.205225763832
10	4153	1567.774379520821	0.799522957801
10	4164	1570.430679664131	0.002317556988
10	4174	1573.792678207714	0.418580079761
10	4181	1575.976117518761	0.179081939157
10	4184	1576.264906248582	0.232705276612
10	4187	1577.382299879221	0.795859125317
10	4209	1590.396120240628	0.638825106557
10	4219	1593.314066134898	0.054268142044
10	4227	1597.820999068615	0.507172197886
10	4228	1597.848377750911	0.443951813534
10	4231	1598.760279320947	0.495637331419
10	4241	1603.92720412265	0.487347757017
10	4250	1606.646279673452	0.224653228201
10	4267	1611.79087283161	1.122379996738
10	4273	1612.627465037999	0.137318597847
10	4282	1614.846802722217	0.120281471303
10	4287	1619.612245235379	0.218329032083
10	4293	1622.713100256418	0.232754532901
10	4302	1627.453676175468	0.095746715518
10	4310	1634.011679066981	0.15619673244
10	4321	1637.840475764953	0.334582450298
10	4325	1640.764276351186	0.437952489525
10	4330	1643.439026845946	0.820955000585
10	4349	1652.537178944839	0.185258632449
10	4352	1653.444488932483	0.183915438902
10	4362	1655.259466739314	0.190832918475
10	4365	1655.705519208448	0.180651183838
10	4374	1657.515939084466	0.531180348197
10	4377	1658.132606663488	1.036240948631
10	4383	1659.688415639657	0.083931496376
10	4389	1661.78022431307	0.093220164995
10	4405	1669.504041082092	0.575853661688
10	4406	1670.267604430672	0.847509404098
10	4419	1674.616965609303	0.805383727914
10	4422	1674.771973667976	0.908173212028
10	4425	1675.048307098897	0.265171751727
10	4433	1677.649213445796	0.443252219063
10	4438	1679.739187641952	1.143903548666
10	4452	1684.88622452494	0.127865183944
10	4458	1686.219395163411	0.264125897696
10	4462	1687.357225708482	0.594652416528
10	4473	1690.17543784	0.223131288646
10	4480	1691.610439857921	0.237717292965
10	4487	1692.470214032265	0.418724029162
10	4493	1694.346043382375	0.953351626559
10	4494	1694.417218844298	0.542292504257
10	4498	1697.90904181605	0.247177449868
10	4507	1699.101434764005	0.29277091114
10	4514	1700.998271899994	1.172216652112
10	4515	1701.213142768622	1.290445984757
10	4548	1716.022815301715	0.342187420863
10	4553	1719.402004198552	0.019030315241
10	4564	1721.858806494868	0.559814574419
10	4572	1724.40901689608	1.641318157578
10	4573	1724.608198847163	1.761433471968
10	4577	1727.957201885312	0.527862140821
10	4599	1740.600449627042	0.113838523355
10	4602	1741.771008526845	0.518772976222
10	4609	1743.63087145813	0.842359452415
10	4612	1743.960412039407	1.062968515872
10	4615	1744.400101210579	0.853717127737
10	4616	1745.779989641463	1.926427589134
10	4619	1746.953547000117	0.265930974623
10	4638	1755.620914773888	1.058348402508
10	4649	1759.404331469685	0.250169910923
10	4654	1762.686873364461	1.972610076008
10	4660	1765.80041835429	0.51746550842
10	4664	1766.213110727979	0.059775900028
10	4667	1766.566354457665	0.150839274424
10	4673	1767.344159304541	0.469095598469
10	4684	1771.303825023937	0.85744383239
10	4685	1771.604367404746	0.630858796547
10	4688	1774.058405994097	1.519842676884
10	4695	1780.294294632355	1.043117219088
10	4700	1783.006880440853	0.382692396803
10	4701	1783.477246175725	0.823655496868
10	4704	1783.989370980792	0.466673461912
10	4708	1784.776594607115	0.129065455375
10	4720	1786.828042461126	0.14642920325
10	4723	1787.246489060381	0.108079596392
10	4726	1787.814081124649	0.171535352239
10	4729	1789.36144063695	0.304072333019
10	4737	1793.251363617889	1.354035228903
10	4742	1794.910356979808	0.113238106108
10	4749	1797.374336973146	0.007441550952
10	4763	1801.401319213404	1.207282898808
10	4778	1809.626017489844	0.117696519808
10	4785	1813.977812094368	0.638964120123
10	4793	1816.207522849901	0.518162125865
10	4798	1817.844553792146	1.14178555596
10	4807	1820.810069147521	0.996587463937
10	4808	1820.838200763221	0.570709502072
10	4822	1830.013220855012	0.486668167898
10	4827	1830.625497434972	0.297375514433
10	4828	1830.625818954159	0.165144621263
10	4835	1832.831469637275	0.02628672806
10	4838	1833.683732825391	0.066670180212
10	4844	1835.109507950047	0.038282108036
10	4856	1842.447560604942	0.5124246211
10	4859	1842.967518403915	0.085677881799
10	4862	1844.556744359195	0.304905520144
10	4865	1845.943176399955	0.359648178686
10	4876	1850.339487885561	0.027910340031
10	4882	1852.926443795679	0.43505997571
10	4889	1856.716639750157	0.35516173096
10	4892	1857.263452356227	0.197410046561
10	4895	1857.541507266547	0.116618166082
10	4912	1863.868146533563	0.59459325117
10	4917	1865.176056995857	0.055722068465
10	4921	1865.884212529168	0.246425881213
10	4928	1867.15862951198	0.270869749866
10	4935	1869.754211460872	1.445072246293
10	4957	1876.941448085896	0.241761651603
10	4966	1879.256809767858	0.448518148176
10	4973	1882.468888195449	0.157733446516
10	4992	1892.415608250543	2.558273764513
10	4993	1892.417798792537	0.497054045187
10	5006	1895.863714641924	0.641213371839
10	5007	1896.291630399704	0.73499401591
10	5018	1900.033289096598	0.637469330528
10	5019	1900.319331196814	0.809171501056
10	5024	1902.509835630326	2.851344051138
10	5025	1903.028717260299	0.994637413024
10	5032	1908.314793029672	0.858114526078
10	5055	1922.685274481913	0.826910706261
10	5060	1924.333880267673	0.358718516072
10	5061	1924.367405610079	0.362799757397
10	5068	1927.352585627965	0.255229829153
10	5072	1928.604857378992	0.578313933805
10	5075	1928.846319425596	0.10875077239
10	5086	1933.641162154092	0.265480848121
10	5095	1935.790106172593	0.042359720938
10	5099	1935.981648365045	0.052726815829
10	5106	1943.595240383837	0.270549251897
10	5109	1944.377884035599	0.114299084112
10	5118	1951.964962414331	0.25754315035
10	5125	1953.897902001043	0.152096013707
10	5131	1956.510547951355	0.122456101123
10	5132	1956.78485464453	0.342880528706
10	5150	1962.760966860306	0.180565681974
10	5158	1966.509711595285	0.060575154586
10	5167	1969.586204355004	0.203720135602
10	5176	1970.942584509066	0.113916674413
10	5185	1975.434153666702	0.087847799762
10	5190	1976.919724333784	0.346157139865
10	5198	1981.320181038564	0.950618884229
10	5201	1982.369701980285	0.359095058499
10	5207	1988.913183203863	2.410279700945
10	5211	1990.242380188179	0.230680674073
10	5214	1991.144937299563	0.177237738447
10	5217	1991.764732599356	0.256540966434
10	5226	1995.3150365126	0.719806285998
10	5229	1996.267468468022	0.407561133957
11	5235	2000	0.4805
12	5235	2000	0.3855

