version 2
run Monotonicity_test_recover_rate-385-20221219-18:28:31-16410
attr configname Monotonicity_test_recover_rate
attr datetime 20221219-18:28:31
attr experiment Monotonicity_test_recover_rate
attr inifile omnetpp.ini
attr iterationvars $0=75
attr iterationvarsf 75-
attr measurement $0=75
attr network Network
attr processid 16410
attr repetition 85
attr replication #85
attr resultdir results
attr runnumber 385
attr seedset 85
param *.minion.arrival_mean 2
param *.minion.service_mean 1.5
param *.boss.arrival_mean 2.5
param *.boss.service_mean 0.5
param *.player.recover_rate_x 75
param **.minion.arrival_distribution 0
param **.minion.service_distribution 0
param **.boss.arrival_distribution 0
param **.boss.service_distribution 0

scalar Network.player boss_throughput:mean 0.439
attr source signal_boss_throughput
scalar Network.player boss_throughput:last 0.439
attr source signal_boss_throughput
scalar Network.player boss_defeated_stat:count 879
attr source signal_boss_defeated
scalar Network.player boss_defeated_stat:mean 439
attr source signal_boss_defeated
scalar Network.player boss_waiting_time_stat:mean 0.10851835355838
attr source signal_boss_waiting_time
scalar Network.player boss_response_time_stat:mean 0.60492529814692
attr source signal_boss_response_time
scalar Network.player minion_throughput:mean 0.4545
attr source signal_minion_throughput
scalar Network.player minion_throughput:last 0.4545
attr source signal_minion_throughput
scalar Network.player minion_recovered_stat:count 700
attr source signal_minion_recovered
scalar Network.player minion_recovered_stat:mean 349.5
attr source signal_minion_recovered
scalar Network.player minion_defeated_stat:count 910
attr source signal_minion_defeated
scalar Network.player minion_defeated_stat:mean 454.5
attr source signal_minion_defeated
scalar Network.player minion_waiting_time_stat:mean 62.797921704152
attr source signal_minion_waiting_time
scalar Network.player minion_response_time_stat:mean 64.573115482953
attr source signal_minion_response_time

