version 2
run Monotonicity_test_recover_rate-120-20221219-18:27:37-15067
attr configname Monotonicity_test_recover_rate
attr datetime 20221219-18:27:37
attr experiment Monotonicity_test_recover_rate
attr inifile omnetpp.ini
attr iterationvars $0=25
attr iterationvarsf 25-
attr measurement $0=25
attr network Network
attr processid 15067
attr repetition 20
attr replication #20
attr resultdir results
attr runnumber 120
attr seedset 20
param *.minion.arrival_mean 2
param *.minion.service_mean 1.5
param *.boss.arrival_mean 2.5
param *.boss.service_mean 0.5
param *.player.recover_rate_x 25
param **.minion.arrival_distribution 0
param **.minion.service_distribution 0
param **.boss.arrival_distribution 0
param **.boss.service_distribution 0

vector 0 Network.player minion_jobs_number_stat:vector ETV
attr source signal_minion_jobs_number
vector 1 Network.player minion_jobs_queue_number_stat:vector ETV
attr source signal_minion_jobs_queue_number
vector 2 Network.player minion_recovered_stat:vector ETV
attr source signal_minion_recovered
vector 3 Network.player minion_defeated_stat:vector ETV
attr source signal_minion_defeated
vector 4 Network.player boss_jobs_number_stat:vector ETV
attr source signal_boss_jobs_number
vector 5 Network.player boss_jobs_queue_number_stat:vector ETV
attr source signal_boss_jobs_queue_number
vector 6 Network.player boss_defeated_stat:vector ETV
attr source signal_boss_defeated
vector 7 Network.player boss_waiting_time_stat:vector ETV
attr source signal_boss_waiting_time
vector 8 Network.player boss_response_time_stat:vector ETV
attr source signal_boss_response_time
vector 9 Network.player minion_waiting_time_stat:vector ETV
attr source signal_minion_waiting_time
vector 10 Network.player minion_response_time_stat:vector ETV
attr source signal_minion_response_time
vector 11 Network.player minion_throughput:vector ETV
attr source signal_minion_throughput
vector 12 Network.player boss_throughput:vector ETV
attr source signal_boss_throughput
0	0	0	0
0	8	1.475936466977	1
0	13	3.730925202752	1
0	20	6.134917151617	1
0	25	7.642590788304	1
0	28	8.271653330047	2
0	30	8.608748920118	3
0	33	10.853423156612	3
0	39	14.051777269678	3
0	47	18.82527828976	4
0	55	23.10859048974	5
0	58	25.419909667733	5
0	61	28.121855238539	5
0	64	28.597489964681	5
0	74	34.771138062164	1
0	76	35.534438184687	2
0	80	37.581608524637	1
0	83	38.203644759162	1
0	89	41.746143950221	1
0	91	42.002961748316	2
0	93	42.729746083643	3
0	104	54.254833598278	1
0	107	57.131943526799	1
0	109	57.299662815999	2
0	111	58.156642994317	3
0	115	58.826469190154	4
0	127	61.974182770929	2
0	131	63.506694930179	1
0	140	65.587909603713	1
0	147	69.326946563363	2
0	150	69.877880209654	3
0	152	70.324477668643	4
0	162	74.283910722513	3
0	167	77.627000700964	4
0	173	78.895845455093	4
0	175	79.829261305116	5
0	182	82.797764508767	1
0	188	86.115454005235	1
0	191	90.089106104419	1
0	193	90.113241670634	2
0	197	95.081742684895	1
0	206	97.287401507354	1
0	214	99.711199423089	2
0	216	100.397657196425	3
0	218	101.940672862048	4
0	221	102.72001329184	4
0	223	102.831426718047	5
0	228	103.912999775513	6
0	235	106.643181716138	5
0	237	107.975787179574	6
0	242	109.787763829296	7
0	265	115.505923606742	8
0	268	115.91159488419	8
0	275	118.546234240501	7
0	277	118.710117728145	8
0	287	126.137874734036	7
0	290	126.61421443621	7
0	298	128.343662097308	8
0	304	129.633329320514	8
0	311	131.080050985599	9
0	313	131.268220661301	10
0	320	132.44600878056	10
0	322	133.157667495303	11
0	325	137.173458215421	11
0	327	137.239223899945	12
0	329	139.182009970249	13
0	340	141.494218739722	13
0	345	143.001386461686	14
0	355	144.51634367258	14
0	357	144.654008471758	15
0	364	146.95027499485	14
0	369	148.242294534819	12
0	374	150.784120253166	13
0	376	151.31892698475	14
0	382	152.924687071644	15
0	387	154.43212090337	15
0	389	154.814398138944	16
0	391	155.030548834878	17
0	400	157.061520144166	17
0	402	157.388584264474	18
0	407	159.419955664983	19
0	417	165.352371063195	15
0	419	165.658126119813	16
0	435	172.980181886361	10
0	440	173.859263406751	11
0	442	174.019054385884	12
0	453	175.460712991757	12
0	457	178.904855642887	11
0	461	179.406316794119	12
0	466	179.598142668546	13
0	474	182.05655466561	14
0	478	184.56584297415	15
0	482	185.703598163492	16
0	485	187.532238949279	16
0	487	187.784298569022	17
0	489	188.161420225844	18
0	491	188.177695072658	19
0	494	190.687853466191	19
0	502	193.698194517676	20
0	505	194.300745490017	20
0	513	196.83730573852	15
0	518	201.12258918232	13
0	525	204.970819969699	12
0	529	206.084177022413	11
0	531	206.191579444632	12
0	547	211.043835662652	11
0	549	211.876596570852	12
0	551	211.935572434091	13
0	553	214.571666192232	14
0	564	217.249368388605	15
0	567	217.910311146634	15
0	573	220.23029310268	15
0	578	221.399384626193	16
0	596	227.470469086195	17
0	599	228.287352022287	18
0	603	230.23588514924	18
0	605	230.435103408201	19
0	614	237.434544524416	16
0	616	237.884994139134	17
0	619	238.506725476394	17
0	622	240.660448293186	17
0	627	244.162448847539	15
0	635	246.869587909383	15
0	656	253.817758377252	14
0	659	254.542941132361	15
0	666	256.666923981658	15
0	673	257.706176477161	14
0	675	259.418906018825	15
0	684	262.397852245217	15
0	690	267.350962307868	15
0	692	267.946483211128	16
0	708	272.894973869564	14
0	721	277.860467693215	11
0	723	277.871263860048	12
0	727	278.913272899502	11
0	732	280.703735047665	9
0	734	280.938961320112	10
0	736	280.970592211443	11
0	749	286.145435952426	10
0	751	286.618282700499	11
0	754	287.404069541022	11
0	758	289.980825085914	10
0	769	293.191003872741	5
0	771	293.501274775165	6
0	775	293.8430281191	5
0	781	296.233528864321	5
0	784	298.058319469011	5
0	788	299.053299227771	6
0	805	307.453824252635	5
0	810	309.236937777112	6
0	812	310.226694132705	7
0	823	314.890374174762	5
0	825	315.332255831492	6
0	827	316.517676356446	7
0	843	323.090124222901	4
0	860	327.697217707022	4
0	866	329.647278053593	4
0	868	331.268830258769	5
0	877	334.581026154516	2
0	883	338.367650336779	2
0	893	345.871347170073	1
0	896	347.126416340977	1
0	899	350.114345954886	1
0	901	350.549975900492	2
0	904	350.899433721017	2
0	906	351.626207472882	3
0	908	352.65166488692	4
0	919	354.466025592611	5
0	924	358.943918537656	3
0	927	363.079907595411	3
0	929	363.839653139161	4
0	949	370.630341190005	1
0	954	371.523281820906	2
0	956	372.036871763645	3
0	961	373.286284132562	4
0	965	376.336307644944	4
0	968	377.162125460526	4
0	970	377.828342516418	5
0	977	380.737608762467	1
0	992	383.539151478835	2
0	996	384.597643506745	3
0	1001	385.515804769862	4
0	1011	387.793791547397	3
0	1013	387.821953400228	4
0	1020	389.379853469553	3
0	1033	392.835717535049	2
0	1046	398.272370122322	1
0	1050	398.553114442226	2
0	1052	399.357645999001	3
0	1054	400.409511582907	4
0	1067	406.661720353876	4
0	1069	407.012319754987	5
0	1086	412.330104523347	3
0	1092	415.176337667485	3
0	1094	416.250186839365	4
0	1098	418.44378306365	3
0	1100	418.70932640241	4
0	1105	422.046510022977	2
0	1110	425.005008488502	3
0	1116	427.15610103543	3
0	1119	428.686437830785	3
0	1123	429.473777409455	4
0	1126	431.739581444764	5
0	1134	433.958719302376	3
0	1139	435.593295271204	4
0	1142	438.447400659297	4
0	1144	438.505305757073	5
0	1146	438.778438670068	6
0	1149	439.772653832323	6
0	1152	439.960346291652	6
0	1160	441.564616237292	7
0	1162	442.05210292711	8
0	1164	442.294747539625	9
0	1170	445.853961631764	9
0	1173	448.292659143167	9
0	1176	448.690083148288	9
0	1181	450.282108647456	10
0	1185	450.460773653561	9
0	1190	452.242558016468	9
0	1193	452.639199508373	10
0	1197	452.967747744397	11
0	1203	453.817818717943	12
0	1205	454.068145512012	13
0	1211	455.093644392517	12
0	1217	457.55764385612	13
0	1220	458.776938943584	13
0	1228	461.424836668097	14
0	1233	463.586857785406	15
0	1235	463.815963480455	16
0	1241	468.011244511344	16
0	1243	468.483180281947	17
0	1245	468.510191598005	18
0	1247	469.671652032542	19
0	1253	472.467678623866	16
0	1255	472.784659822929	17
0	1264	475.330568253973	14
0	1275	480.430188403063	14
0	1278	480.930488568374	15
0	1286	486.874396507163	13
0	1290	489.680159310052	12
0	1292	490.247108431444	13
0	1297	490.765623027922	14
0	1299	490.921414792045	15
0	1301	491.206401964836	16
0	1303	492.011585021463	17
0	1305	492.314779303607	18
0	1310	493.771748060312	18
0	1312	494.015217246361	19
0	1332	501.716130277493	12
0	1334	502.71696435715	13
0	1343	507.530555426944	13
0	1349	509.655288919402	13
0	1369	516.39118557003	7
0	1372	516.839715213557	8
0	1379	517.77550777746	9
0	1385	518.512794333994	10
0	1389	519.276254767417	11
0	1396	519.952565213864	12
0	1400	521.000457371777	13
0	1406	521.954551087191	13
0	1409	523.178811713222	13
0	1426	528.81205726796	11
0	1430	529.286981619205	12
0	1433	529.549291941676	13
0	1437	530.638016786312	12
0	1455	538.482842707936	11
0	1468	547.178928317245	5
0	1472	548.733524682854	6
0	1475	549.068661864319	7
0	1477	549.231929400092	8
0	1487	553.294015458879	4
0	1491	554.605854952902	5
0	1495	557.194232830286	5
0	1500	558.884840786187	5
0	1514	564.51258706422	4
0	1521	566.415122661243	3
0	1523	567.770904527871	4
0	1525	569.691712665721	5
0	1532	571.548096124039	4
0	1539	572.668804184654	3
0	1547	574.396268174088	4
0	1550	576.265489326002	4
0	1557	578.040583821386	3
0	1566	579.871234182523	3
0	1574	583.12090100008	4
0	1581	587.045790295191	2
0	1598	593.226080109546	1
0	1601	596.781948355796	1
0	1603	597.26732637985	2
0	1610	599.945547172708	3
0	1620	602.203984983999	4
0	1622	602.399563291095	5
0	1629	603.60727685176	6
0	1632	605.12569644671	6
0	1634	605.466920005807	7
0	1639	606.81354707622	8
0	1642	607.416575171157	8
0	1649	609.840731474337	7
0	1654	610.859101144189	5
0	1656	611.369137611757	6
0	1665	617.562776675681	3
0	1670	618.769337947802	4
0	1675	620.718035131038	5
0	1677	621.829625872356	6
0	1679	622.217239726229	7
0	1684	629.643972522323	5
0	1686	630.149727782335	6
0	1692	631.009769256168	5
0	1702	635.976618438773	2
0	1707	638.968184492199	3
0	1711	640.516370573522	2
0	1713	641.069912800549	3
0	1716	641.54644091009	3
0	1719	643.981146721649	3
0	1721	644.115825591014	4
0	1723	644.465907277349	5
0	1728	647.520704008698	6
0	1742	653.530855961908	4
0	1751	658.109235726838	1
0	1754	660.693820731376	1
0	1757	661.50700729387	1
0	1759	661.873867687979	2
0	1763	664.20031260378	1
0	1769	665.948732693313	1
0	1771	666.078736495538	2
0	1773	666.46805090101	3
0	1776	667.386504659289	3
0	1780	667.996734277791	2
0	1782	668.5108796826	3
0	1784	668.763026276693	4
0	1786	668.975042923258	5
0	1805	677.795183770169	1
0	1811	683.917215583691	1
0	1813	685.89072111622	2
0	1815	686.138788016448	3
0	1817	686.376848784852	4
0	1822	688.011429931945	2
0	1825	690.121331324903	2
0	1829	691.462680991986	1
0	1839	692.608564019734	2
0	1841	693.32804760578	3
0	1844	693.753702052878	4
0	1847	694.873967676181	4
0	1853	695.219388481503	5
0	1857	696.7234403404	6
0	1859	696.725091826252	7
0	1861	696.895628812802	8
0	1863	696.975270312094	9
0	1869	698.316820350825	9
0	1873	699.672511719965	8
0	1875	701.295311429783	9
0	1877	701.645325300869	10
0	1879	701.956755258061	11
0	1881	703.649773176772	12
0	1887	705.105758950785	12
0	1889	705.342402646528	13
0	1892	705.68035356448	13
0	1897	707.920870110858	13
0	1909	714.293120842187	11
0	1911	714.690882029252	12
0	1915	715.959531331558	13
0	1917	717.235989040317	14
0	1920	718.379887934275	15
0	1922	724.331553120244	16
0	1924	724.398563706206	17
0	1928	726.244532535225	16
0	1934	728.765439938125	16
0	1936	730.016198608076	17
0	1938	730.287496088404	18
0	1942	732.092759500267	17
0	1944	732.704122036351	18
0	1946	732.993188548401	19
0	1949	734.438531734723	19
0	1960	736.51587915317	17
0	1970	742.004182598707	13
0	1972	743.054230033811	14
0	1978	744.426417626485	15
0	1983	746.074634584557	15
0	1985	746.331636263245	16
0	1989	747.759774489744	15
0	1995	749.141252221576	15
0	1997	750.208679767284	16
0	1999	750.643701365853	17
0	2005	754.313539426121	17
0	2013	755.139920154413	17
0	2020	761.218189604885	17
0	2024	761.330887145833	18
0	2033	765.010872846737	18
0	2037	765.889722226499	18
0	2046	769.492366584186	15
0	2059	774.312154319452	14
0	2066	777.187916092429	15
0	2073	781.433533200657	12
0	2083	785.774610792791	13
0	2090	787.605065865188	13
0	2092	787.632693773257	14
0	2099	791.812542128832	10
0	2103	792.825630074558	9
0	2105	793.106118645999	10
0	2110	795.983979322456	10
0	2116	797.31547067304	11
0	2121	798.947913671804	12
0	2129	800.734366954587	13
0	2139	806.029631059075	10
0	2144	807.847741533025	10
0	2146	808.260311205554	11
0	2155	813.282516964542	11
0	2161	814.80326033177	11
0	2170	818.380597665156	11
0	2174	820.204965312734	10
0	2179	820.677722622633	10
0	2189	823.250885573292	11
0	2192	823.636215506689	12
0	2194	823.680603697767	13
0	2196	824.140443518389	14
0	2201	824.5663821598	15
0	2216	831.965951881763	13
0	2222	833.975527892492	10
0	2224	834.073187536907	11
0	2235	837.418737714379	6
0	2237	837.747149868744	7
0	2242	838.959011875208	7
0	2249	841.166020368849	8
0	2253	841.685744191678	9
0	2255	841.799011240053	10
0	2260	843.124210790441	11
0	2262	843.46544411402	12
0	2264	843.715834367818	13
0	2267	845.103795560344	13
0	2278	848.061481364927	11
0	2280	848.917083284492	12
0	2287	853.693651716453	11
0	2290	853.911773855917	11
0	2294	857.385069520553	10
0	2296	857.900159935581	11
0	2300	859.230698072923	10
0	2312	865.144344761167	10
0	2318	866.484172554759	10
0	2323	868.062799063376	11
0	2326	868.461943861207	11
0	2335	871.159455576234	11
0	2337	871.273454975753	12
0	2343	872.034504904911	12
0	2345	872.04771715127	13
0	2350	875.058228708188	13
0	2356	878.126773031486	13
0	2360	880.002037860351	13
0	2364	883.70005389078	12
0	2370	889.062400308099	11
0	2373	889.189540069077	12
0	2375	889.612380146626	13
0	2380	898.607801413106	11
0	2388	901.554409570433	9
0	2393	902.361903903002	10
0	2405	907.119633944209	10
0	2407	907.667524238388	11
0	2415	910.654370556012	12
0	2420	914.462906312602	13
0	2429	919.744930545071	12
0	2432	920.095310223823	13
0	2443	925.901466869047	9
0	2456	931.507376905208	7
0	2458	932.216983490642	8
0	2461	933.360039476501	8
0	2464	934.260872373583	8
0	2466	934.569648124422	9
0	2468	934.952087838802	10
0	2470	935.74034302397	11
0	2482	942.690812453095	8
0	2487	943.45587894108	9
0	2491	944.586795422435	8
0	2494	945.542918757345	8
0	2510	951.221910696391	4
0	2514	957.478605080943	3
0	2519	958.774822653768	4
0	2521	959.302037136426	5
0	2523	959.552667700896	6
0	2525	962.020802260956	7
0	2533	964.793223245996	5
0	2539	967.111036862389	5
0	2543	967.152372507332	6
0	2545	967.723845333867	7
0	2553	968.400315165639	6
0	2562	971.673625276461	6
0	2564	971.821424855389	7
0	2572	974.736374890298	5
0	2577	976.527026050755	3
0	2581	978.849575332548	2
0	2583	978.904229455845	3
0	2585	980.519529589722	4
0	2587	980.9335921944	5
0	2590	983.033967220205	5
0	2604	986.349449136726	6
0	2613	988.432299146613	6
0	2621	992.082964898419	1
0	2623	992.736902315575	2
0	2627	993.572343230744	3
0	2631	997.059792217434	3
0	2636	998.524488732491	1
0	2644	1002.948315165793	2
0	2656	1007.309897750726	1
0	2660	1007.846666047912	2
0	2664	1008.538137460777	3
0	2669	1010.316844427901	4
0	2671	1010.32339610515	5
0	2673	1012.661253765336	6
0	2682	1015.847830315247	5
0	2691	1020.002065119623	6
0	2694	1020.529638096667	6
0	2708	1030.630371999522	1
0	2711	1032.131439791749	1
0	2713	1032.535908282347	2
0	2718	1033.550338911019	3
0	2723	1038.133311890602	1
0	2734	1047.34353785101	1
0	2740	1048.452961328502	2
0	2744	1048.851188658538	3
0	2746	1048.965983194782	4
0	2756	1050.296145731878	5
0	2764	1052.889735558881	2
0	2770	1059.556932580499	2
0	2776	1060.473779027897	3
0	2782	1061.366321453799	4
0	2793	1065.666245940433	3
0	2795	1066.322105935879	4
0	2806	1071.917559265743	2
0	2809	1074.285323199861	2
0	2820	1080.756375846712	3
0	2822	1080.803294716724	4
0	2829	1083.920925437386	3
0	2832	1085.632065948788	3
0	2834	1085.881024951777	4
0	2836	1086.526930345249	5
0	2841	1088.677667304748	3
0	2843	1091.090605399845	4
0	2845	1091.572913161553	5
0	2847	1092.470615700581	6
0	2853	1095.209263596196	6
0	2861	1098.909158835205	4
0	2864	1100.130459329658	4
0	2866	1101.199825187616	5
0	2870	1104.758150167743	4
0	2874	1105.003012560043	3
0	2877	1107.394887791978	3
0	2883	1111.081306110806	3
0	2894	1116.157834466965	1
0	2896	1116.872288774698	2
0	2903	1119.514895203193	1
0	2909	1122.145516414426	1
0	2912	1123.23354262624	1
0	2915	1125.169911513354	1
0	2917	1126.779374563809	2
0	2921	1129.209711027372	3
0	2924	1131.038960465685	4
0	2927	1132.557374560692	4
0	2929	1134.187450884406	5
0	2941	1139.438765556535	2
0	2949	1143.290022315633	3
0	2951	1144.501115725244	4
0	2956	1145.921560863155	2
0	2958	1145.938670358564	3
0	2965	1147.238809729512	2
0	2969	1147.4729911281	3
0	2976	1153.077454481509	3
0	2978	1154.077344331839	4
0	2981	1155.040799589928	4
0	2983	1156.148315326523	5
0	2988	1157.433474976802	6
0	2991	1158.522220316812	6
0	2999	1160.106772972285	4
0	3002	1161.375673712814	4
0	3013	1165.765672842169	2
0	3016	1166.205534274449	2
0	3020	1167.338062236198	3
0	3025	1168.099143660134	2
0	3027	1168.168793330247	3
0	3032	1169.928995576489	1
0	3038	1171.720794279516	1
0	3041	1175.452686342609	1
0	3050	1179.13856785774	1
0	3052	1180.480870072571	2
0	3065	1183.491750637775	3
0	3071	1185.497684128544	1
0	3073	1185.662505075319	2
0	3079	1187.418872684063	2
0	3085	1187.584710319416	3
0	3099	1190.460858182918	4
0	3113	1195.173555103475	3
0	3117	1195.598413961956	4
0	3120	1196.454902700783	5
0	3133	1200.219289344093	5
0	3140	1203.159888181434	4
0	3145	1203.847782390463	5
0	3147	1203.956179320445	6
0	3150	1204.297618020684	6
0	3152	1205.172092061761	7
0	3158	1207.694016105792	7
0	3162	1208.270653916928	6
0	3168	1209.470503997461	6
0	3173	1210.23294700089	6
0	3176	1210.870568714365	7
0	3179	1212.298264149774	7
0	3184	1215.056353089888	5
0	3193	1218.453653235772	2
0	3200	1225.935892611531	1
0	3212	1230.571110173611	1
0	3214	1231.081346303788	2
0	3226	1232.216726197292	2
0	3229	1232.986373252132	3
0	3236	1234.754571793928	1
0	3239	1236.248749942962	1
0	3242	1239.389788719175	1
0	3244	1239.393768325231	2
0	3249	1241.136745284186	3
0	3262	1245.328894206735	2
0	3276	1248.453099454901	3
0	3278	1248.988363540226	4
0	3282	1250.012186345676	3
0	3284	1250.189861127574	4
0	3290	1252.294023222415	4
0	3292	1253.419419661115	5
0	3296	1253.67331081511	6
0	3299	1254.689790634648	7
0	3302	1256.781952421222	7
0	3308	1258.164602373172	7
0	3310	1259.674102022718	8
0	3319	1263.258212038806	8
0	3326	1264.993817940483	7
0	3329	1265.449121825671	7
0	3334	1268.994388525007	8
0	3339	1271.727814064513	9
0	3347	1274.342152863859	9
0	3349	1274.420193770631	10
0	3351	1274.507154623989	11
0	3358	1276.472330868062	8
0	3366	1279.905542477467	6
0	3368	1280.686736789309	7
0	3375	1282.808909638685	6
0	3377	1283.667331481048	7
0	3384	1286.551905585352	8
0	3386	1286.84532385459	9
0	3397	1292.112416648227	8
0	3407	1295.340746536063	4
0	3412	1295.932392471978	5
0	3414	1296.50933879653	6
0	3418	1300.094137369838	5
0	3420	1300.873465038817	6
0	3424	1303.373808195003	5
0	3428	1305.049874274615	6
0	3433	1306.058907701242	7
0	3446	1312.707129259891	4
0	3452	1316.864786792839	1
0	3460	1320.418031087507	2
0	3469	1323.07437156518	2
0	3475	1326.133084642322	1
0	3488	1330.578944109867	1
0	3493	1331.185021759995	2
0	3498	1331.598965109403	3
0	3501	1333.422500216951	3
0	3505	1335.22191826534	2
0	3511	1339.831264666098	2
0	3514	1340.390780367065	2
0	3518	1341.679701185789	1
0	3520	1343.005454075102	2
0	3526	1343.229336299774	3
0	3545	1348.327509648797	4
0	3547	1348.938839348954	5
0	3549	1349.052188524187	6
0	3552	1350.002734630147	6
0	3557	1352.95905834314	4
0	3563	1353.8179415929	3
0	3569	1355.850720216032	4
0	3584	1360.458270180457	1
0	3588	1361.273249114121	2
0	3593	1364.234504236699	1
0	3602	1370.116443213195	1
0	3611	1371.52899920864	1
0	3613	1371.534491534158	2
0	3619	1373.091865700613	2
0	3621	1373.949873663053	3
0	3626	1375.75751660706	4
0	3628	1377.356876558237	5
0	3631	1377.791445167085	5
0	3638	1381.812428971341	1
0	3642	1382.958669308845	2
0	3647	1384.575130303071	3
0	3650	1384.818701649873	4
0	3654	1388.276420587099	3
0	3664	1390.847566638563	2
0	3668	1391.268510076198	3
0	3670	1391.47441137179	4
0	3682	1396.778769500508	5
0	3684	1397.494648084326	6
0	3686	1397.498375044314	7
0	3688	1398.71285731209	8
0	3691	1399.50317630287	8
0	3693	1399.698299846551	9
0	3699	1401.580812866988	6
0	3704	1404.379353436096	7
0	3706	1405.977026042735	8
0	3708	1406.490368438304	9
0	3712	1410.158192056012	8
0	3725	1415.103614706921	3
0	3727	1415.394341462439	4
0	3731	1417.395319172212	4
0	3739	1418.627844861155	4
0	3753	1422.827936859465	5
0	3759	1423.80481580921	6
0	3766	1425.775063048871	2
0	3768	1426.400522028149	3
0	3771	1427.959261222197	3
0	3775	1428.237513554132	4
0	3778	1428.997291424554	5
0	3782	1430.56154586651	4
0	3787	1431.791370692697	5
0	3789	1432.364501245154	6
0	3792	1433.056673726956	6
0	3805	1439.542781823638	3
0	3807	1440.526275851162	4
0	3826	1447.684034945384	2
0	3828	1448.165859224861	3
0	3830	1451.26987451218	4
0	3837	1453.365383292978	3
0	3841	1456.158585034071	2
0	3843	1456.45046382558	3
0	3849	1462.31827008628	3
0	3851	1462.419214992148	4
0	3857	1463.808413882489	4
0	3864	1466.756704257698	3
0	3868	1468.706455363855	2
0	3870	1469.697425097923	3
0	3873	1470.671031782863	3
0	3875	1470.94118509425	4
0	3877	1472.612993541756	5
0	3879	1473.450740866124	6
0	3887	1474.882357526786	6
0	3890	1475.046987140616	7
0	3892	1476.905700738086	8
0	3894	1477.103543674936	9
0	3898	1477.892938308454	10
0	3902	1479.646657805214	10
0	3914	1482.344930090856	10
0	3916	1482.747930683245	11
0	3918	1482.782155225829	12
0	3920	1483.184417548009	13
0	3925	1486.142723628993	14
0	3927	1487.243609262194	15
0	3929	1488.24134876254	16
0	3931	1488.74411275498	17
0	3933	1489.25046001659	18
0	3938	1489.752839118277	19
0	3940	1489.864647995392	20
0	3942	1492.244365633252	21
0	3945	1492.486586168886	21
0	3947	1493.284194910397	22
0	3949	1493.881353441835	23
0	3956	1497.896253454439	22
0	3958	1498.306185036506	23
0	3960	1498.801766946637	24
0	3968	1501.6120119012	25
0	3973	1503.607050115098	23
0	3979	1505.836577177949	23
0	3990	1508.2640641251	21
0	3993	1509.975833956702	21
0	3999	1512.085829940584	21
0	4001	1512.44569567584	22
0	4005	1512.669501794383	23
0	4008	1513.363618735028	24
0	4010	1514.634588698105	25
0	4017	1519.194291564833	24
0	4019	1520.049873884956	25
0	4021	1520.679329981912	26
0	4023	1520.727000715399	27
0	4029	1523.116264179861	27
0	4033	1524.70932966556	28
0	4036	1525.895438246071	29
0	4038	1526.042833864235	30
0	4053	1529.585376424713	30
0	4056	1532.403945873472	30
0	4060	1533.636604377575	31
0	4066	1534.791388458157	32
0	4069	1535.060951269148	32
0	4075	1538.084997180854	32
0	4082	1541.297562792853	31
0	4097	1543.118222827375	32
0	4101	1543.547308075887	33
0	4104	1543.830622909133	33
0	4107	1545.156509146558	33
0	4112	1550.183738721464	31
0	4127	1556.216264465597	31
0	4130	1556.670333149843	31
0	4132	1557.032045700026	32
0	4138	1558.588708311076	32
0	4144	1559.250600008565	32
0	4152	1563.937956633301	27
0	4154	1564.024943000036	28
0	4157	1566.597673361496	28
0	4178	1574.452353699369	21
0	4180	1574.510212128625	22
0	4186	1575.223391961702	23
0	4188	1575.30458860804	24
0	4190	1576.419412575943	25
0	4202	1578.260526343212	26
0	4204	1578.998468266163	27
0	4208	1580.312420095478	28
0	4210	1581.99811461902	29
0	4221	1585.197260848078	30
0	4223	1585.666684709244	31
0	4234	1589.110246940739	32
0	4236	1589.896679619321	33
0	4238	1590.978037467298	34
0	4242	1591.294257639751	35
0	4246	1591.560842900328	36
0	4264	1597.544036906989	35
0	4289	1609.607896978516	31
0	4291	1609.713641164872	32
0	4309	1615.882547268257	31
0	4312	1616.382188647343	32
0	4316	1618.059883883054	31
0	4318	1618.211737360709	32
0	4323	1623.335221006784	33
0	4332	1627.139313587098	33
0	4334	1627.194034199063	34
0	4343	1629.949954566335	31
0	4350	1632.501976780952	30
0	4356	1632.955952760892	30
0	4360	1634.970101561144	31
0	4366	1637.364510800185	32
0	4368	1638.509702846288	33
0	4370	1639.014950977312	34
0	4375	1640.413984064595	34
0	4384	1643.217069216035	35
0	4400	1648.278416497043	31
0	4406	1648.491071862436	32
0	4412	1649.881786083118	31
0	4423	1653.358453247724	26
0	4425	1653.937802512837	27
0	4428	1654.650013730847	27
0	4431	1656.397912283482	27
0	4433	1656.939713279971	28
0	4435	1657.444686841537	29
0	4440	1659.608776113447	27
0	4443	1660.21629329052	27
0	4455	1664.326924313352	28
0	4463	1666.871100331792	29
0	4465	1667.094451459834	30
0	4469	1667.188260374575	31
0	4471	1667.448779190795	32
0	4475	1668.083185355501	33
0	4478	1668.175665752626	34
0	4490	1672.178537195357	34
0	4492	1673.099392113966	35
0	4496	1674.85687199392	34
0	4513	1679.933543613541	34
0	4518	1681.727822027512	35
0	4527	1686.911010887301	36
0	4529	1687.239397786158	37
0	4552	1694.6865707735	32
0	4557	1697.617145393358	33
0	4562	1698.900232486959	34
0	4571	1703.018271489841	31
0	4582	1707.789770581291	32
0	4586	1711.927112744821	31
0	4590	1712.69042950407	30
0	4607	1717.937471335721	30
0	4638	1726.122842590563	29
0	4650	1729.109933589582	27
0	4653	1731.418547997972	27
0	4655	1732.997032932728	28
0	4661	1735.470156814804	28
0	4665	1739.36501747703	27
0	4670	1741.385221542883	25
0	4674	1743.571859873223	24
0	4686	1746.482703478967	24
0	4699	1748.729296264803	20
0	4701	1749.156475051153	21
0	4703	1749.567269955612	22
0	4710	1750.344577085544	21
0	4712	1750.582495766292	22
0	4717	1754.60369889294	20
0	4720	1758.077172157404	20
0	4726	1759.031618463979	20
0	4731	1761.837893523546	21
0	4733	1762.085833791782	22
0	4737	1763.926623044167	21
0	4739	1764.747437299975	22
0	4744	1766.658127375794	20
0	4746	1768.606623275514	21
0	4750	1772.395479352622	20
0	4755	1774.332963244348	20
0	4764	1777.231552371419	21
0	4769	1778.826190138181	22
0	4772	1780.534744736915	22
0	4774	1781.168002845825	23
0	4782	1785.721381312958	23
0	4785	1786.376975220256	24
0	4787	1787.184736675019	25
0	4789	1788.92159615462	26
0	4791	1789.14433901361	27
0	4818	1800.857324766478	14
0	4820	1801.775689598277	15
0	4823	1802.363097695196	16
0	4830	1804.641915450888	17
0	4833	1805.298012484273	18
0	4840	1806.666678346741	19
0	4842	1807.183608088958	20
0	4845	1807.461690048178	21
0	4847	1808.329944721451	22
0	4873	1817.047046641728	17
0	4878	1818.041818439602	18
0	4891	1821.070593468562	13
0	4893	1821.767263445641	14
0	4903	1825.166922171412	14
0	4910	1826.839361308503	13
0	4912	1827.038313847445	14
0	4919	1830.647605972788	13
0	4924	1832.980949433625	11
0	4926	1835.180096560522	12
0	4930	1839.019835507447	11
0	4935	1841.997483216748	11
0	4938	1843.303066691574	12
0	4949	1847.58094772392	13
0	4951	1849.877312814886	14
0	4957	1852.685816311952	13
0	4969	1855.361330481861	14
0	4980	1863.440672524591	12
0	4991	1865.949524461633	10
0	4996	1866.690147382722	10
0	4999	1866.95612910475	11
0	5004	1868.288357836215	12
0	5011	1871.308828676687	8
0	5026	1876.048704212131	8
0	5028	1876.883602664767	9
0	5031	1877.966402190146	9
0	5035	1879.465773087009	10
0	5038	1880.530335692416	11
0	5048	1885.626816186748	7
0	5050	1886.365405998186	8
0	5059	1891.761741635233	8
0	5062	1892.222080707508	8
0	5067	1896.593066130908	9
0	5072	1897.189427953506	10
0	5076	1898.245129467002	9
0	5084	1902.058753370833	6
0	5097	1905.704466330056	6
0	5112	1910.193313562957	6
0	5115	1911.99144765468	6
0	5120	1913.169745724595	6
0	5122	1913.938477903036	7
0	5133	1917.548001054411	6
0	5137	1920.42805366936	5
0	5144	1921.538264310811	4
0	5162	1931.883659257907	1
0	5168	1932.129816539447	2
0	5172	1933.240089453454	3
0	5181	1935.821087602153	3
0	5185	1936.801539209352	4
0	5188	1937.877395983014	5
0	5201	1940.844399031135	4
0	5203	1941.78034219676	5
0	5213	1944.056495785594	4
0	5215	1944.200492928881	5
0	5220	1946.023563838666	5
0	5228	1947.53883171644	6
0	5232	1948.592269627586	6
0	5249	1957.222315854522	1
0	5267	1960.765416208088	1
0	5275	1962.377265210755	2
0	5282	1965.085721296682	1
0	5284	1966.230240031188	2
0	5287	1966.904006675467	2
0	5292	1969.569863779232	2
0	5296	1970.368450177818	2
0	5299	1970.776534547479	2
0	5306	1972.412727005375	1
0	5308	1972.424163042593	2
0	5311	1972.509583965115	2
0	5321	1976.077967167774	1
0	5323	1976.302999531291	2
0	5338	1981.426385383304	2
0	5345	1983.94576634012	3
0	5352	1984.991695885974	3
0	5365	1988.308128063356	2
0	5377	1995.709110604959	1
0	5379	1996.644743421628	2
0	5381	1996.83992348177	3
0	5386	1999.385878219508	2
1	0	0	0
1	8	1.475936466977	0
1	9	2.13466891295	0
1	13	3.730925202752	0
1	18	6.088546414924	0
1	20	6.134917151617	0
1	21	6.760120823319	0
1	25	7.642590788304	0
1	28	8.271653330047	1
1	30	8.608748920118	2
1	31	10.423834549554	2
1	33	10.853423156612	2
1	37	13.922675540828	2
1	39	14.051777269678	2
1	47	18.82527828976	3
1	55	23.10859048974	4
1	56	23.580219409247	4
1	58	25.419909667733	4
1	59	26.305509804261	4
1	61	28.121855238539	4
1	62	28.505819995379	4
1	64	28.597489964681	4
1	65	29.808321015011	4
1	66	30.004880086389	3
1	67	30.096876501359	2
1	68	30.134409520448	1
1	69	30.562357337871	0
1	74	34.771138062164	0
1	76	35.534438184687	1
1	77	35.758126218532	1
1	78	36.825457891518	0
1	80	37.581608524637	0
1	81	37.755195670235	0
1	83	38.203644759162	0
1	84	38.344359680564	0
1	89	41.746143950221	0
1	91	42.002961748316	1
1	93	42.729746083643	2
1	94	45.268424620668	2
1	95	47.57515357287	1
1	96	47.94539593469	0
1	104	54.254833598278	0
1	105	55.018852401988	0
1	107	57.131943526799	0
1	109	57.299662815999	1
1	111	58.156642994317	2
1	115	58.826469190154	3
1	117	59.888836479757	3
1	118	59.97754258136	2
1	125	60.967469743125	1
1	127	61.974182770929	1
1	128	63.079740921265	1
1	129	63.425407597384	0
1	131	63.506694930179	0
1	138	65.061098279474	0
1	140	65.587909603713	0
1	147	69.326946563363	1
1	150	69.877880209654	2
1	152	70.324477668643	3
1	156	72.08868236165	3
1	157	73.324229482238	2
1	162	74.283910722513	2
1	167	77.627000700964	3
1	168	77.68518720153	3
1	173	78.895845455093	3
1	175	79.829261305116	4
1	176	80.722730491866	4
1	177	80.956956228368	3
1	178	81.077991936475	2
1	179	81.228935885973	1
1	180	82.122773839672	0
1	182	82.797764508767	0
1	186	85.338820124653	0
1	188	86.115454005235	0
1	189	87.054821897208	0
1	191	90.089106104419	0
1	193	90.113241670634	1
1	194	92.636540854262	1
1	195	94.532607269706	0
1	197	95.081742684895	0
1	201	96.777057778019	0
1	206	97.287401507354	0
1	214	99.711199423089	1
1	216	100.397657196425	2
1	218	101.940672862048	3
1	219	102.625555207634	3
1	221	102.72001329184	3
1	223	102.831426718047	4
1	228	103.912999775513	5
1	229	104.636352568807	5
1	230	105.663351620809	4
1	235	106.643181716138	4
1	237	107.975787179574	5
1	242	109.787763829296	6
1	265	115.505923606742	7
1	266	115.645710900211	7
1	268	115.91159488419	7
1	269	117.745901897346	7
1	270	118.336880519992	6
1	275	118.546234240501	6
1	277	118.710117728145	7
1	278	120.171402719745	7
1	279	123.128495422632	6
1	287	126.137874734036	6
1	288	126.589641285792	6
1	290	126.61421443621	6
1	298	128.343662097308	7
1	299	128.611867046859	7
1	304	129.633329320514	7
1	311	131.080050985599	8
1	313	131.268220661301	9
1	315	131.760898491084	9
1	320	132.44600878056	9
1	322	133.157667495303	10
1	323	133.923130255186	10
1	325	137.173458215421	10
1	327	137.239223899945	11
1	329	139.182009970249	12
1	330	140.653976184079	12
1	340	141.494218739722	12
1	345	143.001386461686	13
1	353	144.260618826201	13
1	355	144.51634367258	13
1	357	144.654008471758	14
1	358	144.666965860875	14
1	359	145.26993517124	13
1	364	146.95027499485	13
1	365	146.975131089881	13
1	366	147.781682009938	12
1	367	147.944016024576	11
1	369	148.242294534819	11
1	374	150.784120253166	12
1	376	151.31892698475	13
1	382	152.924687071644	14
1	385	154.403500120707	14
1	387	154.43212090337	14
1	389	154.814398138944	15
1	391	155.030548834878	16
1	395	155.859653651408	16
1	400	157.061520144166	16
1	402	157.388584264474	17
1	407	159.419955664983	18
1	408	160.277238668473	18
1	409	160.61089905337	17
1	413	162.084976297815	16
1	414	163.384403196066	15
1	415	163.702722702194	14
1	417	165.352371063195	14
1	419	165.658126119813	15
1	423	166.610404422148	15
1	424	167.537474045509	14
1	425	167.657875966527	13
1	426	168.259340437333	12
1	427	168.636107959027	11
1	428	168.763061897702	10
1	429	170.980927884195	9
1	435	172.980181886361	9
1	440	173.859263406751	10
1	442	174.019054385884	11
1	451	175.329206389497	11
1	453	175.460712991757	11
1	454	177.211734469019	11
1	455	178.506603072479	10
1	457	178.904855642887	10
1	461	179.406316794119	11
1	466	179.598142668546	12
1	474	182.05655466561	13
1	478	184.56584297415	14
1	482	185.703598163492	15
1	483	186.072833299241	15
1	485	187.532238949279	15
1	487	187.784298569022	16
1	489	188.161420225844	17
1	491	188.177695072658	18
1	492	189.268687097253	18
1	494	190.687853466191	18
1	502	193.698194517676	19
1	503	194.043746165855	19
1	505	194.300745490017	19
1	506	194.636084949749	19
1	507	195.000469868844	18
1	508	195.058617563221	17
1	509	195.753190231058	16
1	510	196.185491563876	15
1	511	196.511691848393	14
1	513	196.83730573852	14
1	514	199.01463629891	14
1	515	199.644454860589	13
1	516	201.089646233088	12
1	518	201.12258918232	12
1	519	201.346118551056	12
1	520	201.440459943237	11
1	525	204.970819969699	11
1	526	205.5346811225	11
1	527	206.02088368952	10
1	529	206.084177022413	10
1	531	206.191579444632	11
1	544	208.887592338764	11
1	545	209.145050627253	10
1	547	211.043835662652	10
1	549	211.876596570852	11
1	551	211.935572434091	12
1	553	214.571666192232	13
1	564	217.249368388605	14
1	565	217.698977519742	14
1	567	217.910311146634	14
1	571	219.669625723088	14
1	573	220.23029310268	14
1	578	221.399384626193	15
1	596	227.470469086195	16
1	599	228.287352022287	17
1	601	229.83554684984	17
1	603	230.23588514924	17
1	605	230.435103408201	18
1	609	233.203647416145	18
1	610	234.433157375015	17
1	611	236.23063315895	16
1	612	236.250503720737	15
1	614	237.434544524416	15
1	616	237.884994139134	16
1	617	238.274281388116	16
1	619	238.506725476394	16
1	620	240.297225248096	16
1	622	240.660448293186	16
1	623	243.168215183407	16
1	624	243.2016227552	15
1	625	243.676023573566	14
1	627	244.162448847539	14
1	631	245.535735391572	14
1	635	246.869587909383	14
1	643	248.988991061632	14
1	644	249.242687002696	13
1	656	253.817758377252	13
1	659	254.542941132361	14
1	664	256.476605274482	14
1	666	256.666923981658	14
1	667	256.98069556824	14
1	668	256.991161877773	13
1	673	257.706176477161	13
1	675	259.418906018825	14
1	682	260.278787443249	14
1	684	262.397852245217	14
1	688	264.938560692717	14
1	690	267.350962307868	14
1	692	267.946483211128	15
1	693	268.593942694953	15
1	697	269.019514419932	14
1	704	271.910278981557	13
1	708	272.894973869564	13
1	710	273.886666334209	13
1	711	274.315125847063	12
1	715	275.117459440809	11
1	716	275.261938272777	10
1	721	277.860467693215	10
1	723	277.871263860048	11
1	724	278.564062199131	11
1	725	278.583062662319	10
1	727	278.913272899502	10
1	728	279.027191846242	10
1	729	280.512146588465	9
1	730	280.698470425453	8
1	732	280.703735047665	8
1	734	280.938961320112	9
1	736	280.970592211443	10
1	740	283.141181916641	10
1	741	283.580743641973	9
1	749	286.145435952426	9
1	751	286.618282700499	10
1	752	286.96237260282	10
1	754	287.404069541022	10
1	755	287.832820882039	10
1	756	289.901825559594	9
1	758	289.980825085914	9
1	759	290.12212575566	9
1	760	290.341985947061	8
1	761	290.809915607756	7
1	765	292.098955089568	6
1	766	292.502664349222	5
1	767	293.114823435095	4
1	769	293.191003872741	4
1	771	293.501274775165	5
1	772	293.635613682756	5
1	773	293.674700773981	4
1	775	293.8430281191	4
1	776	294.643358899074	4
1	781	296.233528864321	4
1	782	297.996886292437	4
1	784	298.058319469011	4
1	788	299.053299227771	5
1	793	300.828790637056	5
1	794	305.395327550009	4
1	805	307.453824252635	4
1	810	309.236937777112	5
1	812	310.226694132705	6
1	813	310.432446738223	6
1	820	313.40741300705	5
1	821	313.847323573946	4
1	823	314.890374174762	4
1	825	315.332255831492	5
1	827	316.517676356446	6
1	831	317.74231177277	6
1	832	318.08323044268	5
1	836	322.192348787558	4
1	837	322.404413499689	3
1	843	323.090124222901	3
1	849	325.055697618483	3
1	860	327.697217707022	3
1	861	327.76435794855	3
1	866	329.647278053593	3
1	868	331.268830258769	4
1	872	333.021700111631	4
1	873	333.318483494496	3
1	874	333.802663216929	2
1	875	333.865208817788	1
1	877	334.581026154516	1
1	878	335.56567809202	1
1	883	338.367650336779	1
1	887	340.349927066565	1
1	888	341.961805238099	0
1	893	345.871347170073	0
1	894	346.139897650582	0
1	896	347.126416340977	0
1	897	347.295420053729	0
1	899	350.114345954886	0
1	901	350.549975900492	1
1	902	350.555744449076	1
1	904	350.899433721017	1
1	906	351.626207472882	2
1	908	352.65166488692	3
1	919	354.466025592611	4
1	920	355.362659002613	4
1	921	356.276948731615	3
1	922	358.291924576686	2
1	924	358.943918537656	2
1	925	360.015396217038	2
1	927	363.079907595411	2
1	929	363.839653139161	3
1	930	364.349241015186	3
1	931	364.445200988723	2
1	932	364.575274324616	1
1	945	369.092527594345	0
1	949	370.630341190005	0
1	954	371.523281820906	1
1	956	372.036871763645	2
1	961	373.286284132562	3
1	963	376.061680411489	3
1	965	376.336307644944	3
1	966	376.48333401957	3
1	968	377.162125460526	3
1	970	377.828342516418	4
1	971	378.718803394509	4
1	972	379.328996929374	3
1	973	379.846408291311	2
1	974	380.589219231697	1
1	975	380.712848945907	0
1	977	380.737608762467	0
1	992	383.539151478835	1
1	996	384.597643506745	2
1	1001	385.515804769862	3
1	1008	386.846941529127	3
1	1009	387.303143296496	2
1	1011	387.793791547397	2
1	1013	387.821953400228	3
1	1017	388.24724738656	3
1	1018	389.014604540929	2
1	1020	389.379853469553	2
1	1021	389.393917254058	2
1	1028	391.550391951742	1
1	1033	392.835717535049	1
1	1034	393.436645984749	1
1	1035	393.642155760526	0
1	1046	398.272370122322	0
1	1050	398.553114442226	1
1	1052	399.357645999001	2
1	1054	400.409511582907	3
1	1059	402.238855610768	3
1	1067	406.661720353876	3
1	1069	407.012319754987	4
1	1070	407.432241707703	4
1	1077	410.190030249704	3
1	1078	411.47779171535	2
1	1086	412.330104523347	2
1	1090	414.349143271852	2
1	1092	415.176337667485	2
1	1094	416.250186839365	3
1	1095	417.610207025031	3
1	1096	418.244129831257	2
1	1098	418.44378306365	2
1	1100	418.70932640241	3
1	1101	419.6279760096	3
1	1102	419.841361702023	2
1	1103	422.006085607539	1
1	1105	422.046510022977	1
1	1110	425.005008488502	2
1	1111	425.014448274987	2
1	1116	427.15610103543	2
1	1117	428.381746997544	2
1	1119	428.686437830785	2
1	1123	429.473777409455	3
1	1126	431.739581444764	4
1	1127	431.863539852125	4
1	1128	432.358120379816	3
1	1129	433.019122488575	2
1	1134	433.958719302376	2
1	1139	435.593295271204	3
1	1140	438.296308368177	3
1	1142	438.447400659297	3
1	1144	438.505305757073	4
1	1146	438.778438670068	5
1	1147	439.449581565527	5
1	1149	439.772653832323	5
1	1150	439.922615412672	5
1	1152	439.960346291652	5
1	1160	441.564616237292	6
1	1162	442.05210292711	7
1	1164	442.294747539625	8
1	1165	442.842902361563	8
1	1170	445.853961631764	8
1	1171	447.141094230129	8
1	1173	448.292659143167	8
1	1174	448.458753933154	8
1	1176	448.690083148288	8
1	1181	450.282108647456	9
1	1182	450.327112235369	9
1	1183	450.452677834902	8
1	1185	450.460773653561	8
1	1186	451.632592270401	8
1	1190	452.242558016468	8
1	1193	452.639199508373	9
1	1197	452.967747744397	10
1	1203	453.817818717943	11
1	1205	454.068145512012	12
1	1206	454.414083663759	12
1	1207	454.481693465932	11
1	1211	455.093644392517	11
1	1217	457.55764385612	12
1	1218	457.673884532792	12
1	1220	458.776938943584	12
1	1228	461.424836668097	13
1	1233	463.586857785406	14
1	1235	463.815963480455	15
1	1236	466.695988848647	15
1	1241	468.011244511344	15
1	1243	468.483180281947	16
1	1245	468.510191598005	17
1	1247	469.671652032542	18
1	1248	469.709930455593	18
1	1249	470.350212124717	17
1	1250	470.560022351568	16
1	1251	470.770963633768	15
1	1253	472.467678623866	15
1	1255	472.784659822929	16
1	1259	474.164836510402	16
1	1260	474.664700258845	15
1	1261	474.951747705581	14
1	1262	475.045971572503	13
1	1264	475.330568253973	13
1	1265	475.894197524882	13
1	1275	480.430188403063	13
1	1278	480.930488568374	14
1	1279	483.710585865835	14
1	1280	484.065640186967	13
1	1284	486.604815847092	12
1	1286	486.874396507163	12
1	1287	487.331604425685	12
1	1288	488.267665209929	11
1	1290	489.680159310052	11
1	1292	490.247108431444	12
1	1297	490.765623027922	13
1	1299	490.921414792045	14
1	1301	491.206401964836	15
1	1303	492.011585021463	16
1	1305	492.314779303607	17
1	1306	492.76413984312	17
1	1310	493.771748060312	17
1	1312	494.015217246361	18
1	1314	495.031888073024	18
1	1318	496.672165339857	17
1	1319	497.072176711572	16
1	1323	497.892187136635	15
1	1324	498.051269289057	14
1	1325	498.639681056987	13
1	1326	498.940972343752	12
1	1330	501.62609148938	11
1	1332	501.716130277493	11
1	1334	502.71696435715	12
1	1341	505.624745280288	12
1	1343	507.530555426944	12
1	1347	509.410820293458	12
1	1349	509.655288919402	12
1	1353	511.664447426358	12
1	1354	511.77732546406	11
1	1355	511.963531702315	10
1	1359	513.79065986895	9
1	1360	514.056729073075	8
1	1364	514.91750020612	7
1	1365	515.6939151416	6
1	1369	516.39118557003	6
1	1372	516.839715213557	7
1	1379	517.77550777746	8
1	1385	518.512794333994	9
1	1389	519.276254767417	10
1	1396	519.952565213864	11
1	1400	521.000457371777	12
1	1404	521.837243186441	12
1	1406	521.954551087191	12
1	1407	522.009237041355	12
1	1409	523.178811713222	12
1	1410	523.553834562587	12
1	1411	523.881456937377	11
1	1415	525.483970017584	10
1	1426	528.81205726796	10
1	1430	529.286981619205	11
1	1433	529.549291941676	12
1	1434	529.642570790024	12
1	1435	530.393255694401	11
1	1437	530.638016786312	11
1	1441	531.589010793677	11
1	1445	533.30436838087	10
1	1455	538.482842707936	10
1	1457	538.556754403253	10
1	1458	540.294551368008	9
1	1459	541.934560702758	8
1	1463	544.262766826295	7
1	1464	545.419820957515	6
1	1465	545.582913682244	5
1	1466	547.100806480465	4
1	1468	547.178928317245	4
1	1472	548.733524682854	5
1	1475	549.068661864319	6
1	1477	549.231929400092	7
1	1478	549.294603970406	7
1	1479	550.654217236116	6
1	1480	550.81125079931	5
1	1481	551.017950832799	4
1	1485	553.061867401465	3
1	1487	553.294015458879	3
1	1491	554.605854952902	4
1	1493	556.465440394076	4
1	1495	557.194232830286	4
1	1496	558.200877703955	4
1	1500	558.884840786187	4
1	1511	562.139307164786	4
1	1512	562.533652214534	3
1	1514	564.51258706422	3
1	1518	565.581675231203	3
1	1519	565.85671942078	2
1	1521	566.415122661243	2
1	1523	567.770904527871	3
1	1525	569.691712665721	4
1	1526	569.991189139361	4
1	1530	571.461881042237	3
1	1532	571.548096124039	3
1	1533	572.046383477922	3
1	1534	572.238564989611	2
1	1539	572.668804184654	2
1	1547	574.396268174088	3
1	1548	576.039087235713	3
1	1550	576.265489326002	3
1	1551	576.368804545451	3
1	1552	576.679465384082	2
1	1557	578.040583821386	2
1	1558	578.147272464323	2
1	1566	579.871234182523	2
1	1574	583.12090100008	3
1	1575	583.657153047257	3
1	1576	583.671333804602	2
1	1577	586.219803190159	1
1	1581	587.045790295191	1
1	1595	592.262401426478	1
1	1596	592.264128978	0
1	1598	593.226080109546	0
1	1599	595.889658834773	0
1	1601	596.781948355796	0
1	1603	597.26732637985	1
1	1610	599.945547172708	2
1	1620	602.203984983999	3
1	1622	602.399563291095	4
1	1629	603.60727685176	5
1	1630	604.653443791261	5
1	1632	605.12569644671	5
1	1634	605.466920005807	6
1	1639	606.81354707622	7
1	1640	607.094327277144	7
1	1642	607.416575171157	7
1	1643	607.897699587313	7
1	1647	609.724254774589	6
1	1649	609.840731474337	6
1	1650	610.378223408405	6
1	1651	610.741815602582	5
1	1652	610.813215694743	4
1	1654	610.859101144189	4
1	1656	611.369137611757	5
1	1657	611.550132747675	5
1	1658	612.706097483556	4
1	1659	613.038943412821	3
1	1663	614.751056938076	2
1	1665	617.562776675681	2
1	1670	618.769337947802	3
1	1675	620.718035131038	4
1	1677	621.829625872356	5
1	1679	622.217239726229	6
1	1680	622.721699940203	6
1	1681	625.66470636151	5
1	1682	628.713731888597	4
1	1684	629.643972522323	4
1	1686	630.149727782335	5
1	1687	630.451277709215	5
1	1688	630.582172264502	4
1	1692	631.009769256168	4
1	1694	631.967938283596	4
1	1695	632.286254064793	3
1	1696	632.870228760637	2
1	1697	634.793701536524	1
1	1702	635.976618438773	1
1	1707	638.968184492199	2
1	1708	639.207664910011	2
1	1709	640.171678687562	1
1	1711	640.516370573522	1
1	1713	641.069912800549	2
1	1714	641.370926822217	2
1	1716	641.54644091009	2
1	1717	642.215273910392	2
1	1719	643.981146721649	2
1	1721	644.115825591014	3
1	1723	644.465907277349	4
1	1728	647.520704008698	5
1	1729	647.905384894426	5
1	1730	649.013200940075	4
1	1737	653.003336114251	3
1	1742	653.530855961908	3
1	1743	654.509560720728	3
1	1747	654.627784010541	2
1	1748	655.840230784425	1
1	1749	657.27449639051	0
1	1751	658.109235726838	0
1	1752	658.341116533573	0
1	1754	660.693820731376	0
1	1755	661.363982994138	0
1	1757	661.50700729387	0
1	1759	661.873867687979	1
1	1760	662.676788383224	1
1	1761	663.381228741816	0
1	1763	664.20031260378	0
1	1767	665.075268911414	0
1	1769	665.948732693313	0
1	1771	666.078736495538	1
1	1773	666.46805090101	2
1	1774	667.02799894279	2
1	1776	667.386504659289	2
1	1777	667.672187090086	2
1	1778	667.824953227433	1
1	1780	667.996734277791	1
1	1782	668.5108796826	2
1	1784	668.763026276693	3
1	1786	668.975042923258	4
1	1787	669.326634869308	4
1	1788	671.125248546712	3
1	1792	671.732687641511	2
1	1799	673.68632480454	1
1	1800	673.777227789788	0
1	1805	677.795183770169	0
1	1806	679.377941343208	0
1	1811	683.917215583691	0
1	1813	685.89072111622	1
1	1815	686.138788016448	2
1	1817	686.376848784852	3
1	1818	686.966180508875	3
1	1819	686.98698101733	2
1	1820	687.303572376607	1
1	1822	688.011429931945	1
1	1823	688.06179110712	1
1	1825	690.121331324903	1
1	1826	690.375924004563	1
1	1827	690.872205059121	0
1	1829	691.462680991986	0
1	1839	692.608564019734	1
1	1841	693.32804760578	2
1	1844	693.753702052878	3
1	1845	693.889422035892	3
1	1847	694.873967676181	3
1	1853	695.219388481503	4
1	1857	696.7234403404	5
1	1859	696.725091826252	6
1	1861	696.895628812802	7
1	1863	696.975270312094	8
1	1867	697.331854495201	8
1	1869	698.316820350825	8
1	1870	698.823200225136	8
1	1871	699.249593516058	7
1	1873	699.672511719965	7
1	1875	701.295311429783	8
1	1877	701.645325300869	9
1	1879	701.956755258061	10
1	1881	703.649773176772	11
1	1885	703.912932261448	11
1	1887	705.105758950785	11
1	1889	705.342402646528	12
1	1890	705.557423313728	12
1	1892	705.68035356448	12
1	1893	705.983196807104	12
1	1897	707.920870110858	12
1	1902	710.01745174588	12
1	1903	711.444130926187	11
1	1904	711.528873937508	10
1	1909	714.293120842187	10
1	1911	714.690882029252	11
1	1915	715.959531331558	12
1	1917	717.235989040317	13
1	1920	718.379887934275	14
1	1922	724.331553120244	15
1	1924	724.398563706206	16
1	1925	725.796134616896	16
1	1926	726.141486375193	15
1	1928	726.244532535225	15
1	1932	727.072646281292	15
1	1934	728.765439938125	15
1	1936	730.016198608076	16
1	1938	730.287496088404	17
1	1939	731.548335989426	17
1	1940	731.628451378845	16
1	1942	732.092759500267	16
1	1944	732.704122036351	17
1	1946	732.993188548401	18
1	1947	734.252564166236	18
1	1949	734.438531734723	18
1	1950	735.041697486271	18
1	1951	735.2319022496	17
1	1958	736.39643023449	16
1	1960	736.51587915317	16
1	1961	736.791827204902	16
1	1962	737.349354660532	15
1	1963	739.006451955393	14
1	1967	740.828317926184	13
1	1968	741.084939728339	12
1	1970	742.004182598707	12
1	1972	743.054230033811	13
1	1978	744.426417626485	14
1	1981	745.52436804099	14
1	1983	746.074634584557	14
1	1985	746.331636263245	15
1	1986	746.6997894251	15
1	1987	747.513279086097	14
1	1989	747.759774489744	14
1	1993	748.970699344661	14
1	1995	749.141252221576	14
1	1997	750.208679767284	15
1	1999	750.643701365853	16
1	2003	753.291389561552	16
1	2005	754.313539426121	16
1	2009	754.599169590496	16
1	2013	755.139920154413	16
1	2018	759.980086644703	16
1	2020	761.218189604885	16
1	2024	761.330887145833	17
1	2026	764.086818629052	17
1	2033	765.010872846737	17
1	2035	765.808950929903	17
1	2037	765.889722226499	17
1	2041	767.797955691088	17
1	2042	767.806168182946	16
1	2043	769.408399777061	15
1	2044	769.441546406583	14
1	2046	769.492366584186	14
1	2050	771.635093301825	14
1	2054	773.036087178509	13
1	2059	774.312154319452	13
1	2066	777.187916092429	14
1	2068	778.131418955118	14
1	2069	780.553335518824	13
1	2070	781.22670286876	12
1	2071	781.309557439352	11
1	2073	781.433533200657	11
1	2083	785.774610792791	12
1	2085	786.715485346708	12
1	2090	787.605065865188	12
1	2092	787.632693773257	13
1	2093	788.760960756667	13
1	2094	789.511564565963	12
1	2095	789.735714351679	11
1	2096	790.420939951703	10
1	2097	790.619930416962	9
1	2099	791.812542128832	9
1	2100	792.191989135411	9
1	2101	792.399965906477	8
1	2103	792.825630074558	8
1	2105	793.106118645999	9
1	2106	794.701907484375	9
1	2110	795.983979322456	9
1	2116	797.31547067304	10
1	2121	798.947913671804	11
1	2129	800.734366954587	12
1	2130	802.595609706377	12
1	2131	804.322284450195	11
1	2132	804.406594839876	10
1	2133	805.154561090787	9
1	2139	806.029631059075	9
1	2142	807.647198646053	9
1	2144	807.847741533025	9
1	2146	808.260311205554	10
1	2150	810.618079595664	10
1	2155	813.282516964542	10
1	2156	813.680456467843	10
1	2161	814.80326033177	10
1	2162	815.186660768229	10
1	2170	818.380597665156	10
1	2171	818.780521857512	10
1	2172	820.03955860679	9
1	2174	820.204965312734	9
1	2175	820.479391159661	9
1	2179	820.677722622633	9
1	2189	823.250885573292	10
1	2192	823.636215506689	11
1	2194	823.680603697767	12
1	2196	824.140443518389	13
1	2201	824.5663821598	14
1	2203	825.371672180533	14
1	2207	827.02307836964	13
1	2211	828.636987768532	12
1	2216	831.965951881763	12
1	2217	832.054603294307	12
1	2218	832.256867293612	11
1	2219	832.664929485539	10
1	2220	833.297972137036	9
1	2222	833.975527892492	9
1	2224	834.073187536907	10
1	2225	834.085484380349	10
1	2226	834.315993644251	9
1	2230	835.599232728191	8
1	2231	835.917339984429	7
1	2232	836.922295209163	6
1	2233	837.408690966796	5
1	2235	837.418737714379	5
1	2237	837.747149868744	6
1	2238	838.484904414397	6
1	2242	838.959011875208	6
1	2249	841.166020368849	7
1	2253	841.685744191678	8
1	2255	841.799011240053	9
1	2260	843.124210790441	10
1	2262	843.46544411402	11
1	2264	843.715834367818	12
1	2265	844.009102090895	12
1	2267	845.103795560344	12
1	2271	846.273307743408	12
1	2275	847.224614396263	11
1	2276	847.506119146899	10
1	2278	848.061481364927	10
1	2280	848.917083284492	11
1	2284	851.430758117662	11
1	2285	852.637851556218	10
1	2287	853.693651716453	10
1	2288	853.830393005976	10
1	2290	853.911773855917	10
1	2291	854.611835032907	10
1	2292	855.123233956536	9
1	2294	857.385069520553	9
1	2296	857.900159935581	10
1	2297	858.393880504777	10
1	2298	858.601878420553	9
1	2300	859.230698072923	9
1	2304	863.179992616153	9
1	2312	865.144344761167	9
1	2313	865.394229261521	9
1	2318	866.484172554759	9
1	2323	868.062799063376	10
1	2324	868.300079173528	10
1	2326	868.461943861207	10
1	2333	870.85083039109	10
1	2335	871.159455576234	10
1	2337	871.273454975753	11
1	2338	871.637510994289	11
1	2343	872.034504904911	11
1	2345	872.04771715127	12
1	2346	873.786987295027	12
1	2350	875.058228708188	12
1	2352	876.130496413995	12
1	2356	878.126773031486	12
1	2358	878.984032794254	12
1	2360	880.002037860351	12
1	2361	880.689466809888	12
1	2362	881.611547734856	11
1	2364	883.70005389078	11
1	2365	884.103842666285	11
1	2366	886.782288999466	10
1	2370	889.062400308099	10
1	2373	889.189540069077	11
1	2375	889.612380146626	12
1	2376	890.795074978433	12
1	2377	897.24693941405	11
1	2378	897.356586183411	10
1	2380	898.607801413106	10
1	2381	899.301230142875	10
1	2385	901.259695641449	9
1	2386	901.347531815399	8
1	2388	901.554409570433	8
1	2393	902.361903903002	9
1	2403	906.494403311118	9
1	2405	907.119633944209	9
1	2407	907.667524238388	10
1	2415	910.654370556012	11
1	2420	914.462906312602	12
1	2421	914.952946430516	12
1	2422	915.905994564492	11
1	2429	919.744930545071	11
1	2432	920.095310223823	12
1	2433	921.154884342338	12
1	2434	921.277923541747	11
1	2435	921.322965839297	10
1	2436	923.439819540363	9
1	2437	925.102976912714	8
1	2443	925.901466869047	8
1	2446	928.128440240759	8
1	2450	930.291617326602	7
1	2454	931.167605072238	6
1	2456	931.507376905208	6
1	2458	932.216983490642	7
1	2459	932.973450171372	7
1	2461	933.360039476501	7
1	2462	933.975705879217	7
1	2464	934.260872373583	7
1	2466	934.569648124422	8
1	2468	934.952087838802	9
1	2470	935.74034302397	10
1	2471	936.806798585738	10
1	2475	937.471082341987	9
1	2476	938.516874867404	8
1	2480	941.458652544427	7
1	2482	942.690812453095	7
1	2487	943.45587894108	8
1	2488	943.529297949201	8
1	2489	943.656956781022	7
1	2491	944.586795422435	7
1	2492	945.289982651295	7
1	2494	945.542918757345	7
1	2495	945.822838435494	7
1	2496	947.622846682688	6
1	2503	948.85082070143	5
1	2504	950.030767058894	4
1	2505	950.164638458522	3
1	2510	951.221910696391	3
1	2511	954.225069214787	3
1	2512	957.222086374452	2
1	2514	957.478605080943	2
1	2519	958.774822653768	3
1	2521	959.302037136426	4
1	2523	959.552667700896	5
1	2525	962.020802260956	6
1	2526	962.278776534316	6
1	2527	963.331993320834	5
1	2528	963.666933394331	4
1	2533	964.793223245996	4
1	2534	965.399624949622	4
1	2539	967.111036862389	4
1	2543	967.152372507332	5
1	2545	967.723845333867	6
1	2550	968.072892554602	6
1	2551	968.137170819687	5
1	2553	968.400315165639	5
1	2554	970.251893436836	5
1	2562	971.673625276461	5
1	2564	971.821424855389	6
1	2568	972.74590079436	6
1	2569	973.460009390462	5
1	2570	974.561300338539	4
1	2572	974.736374890298	4
1	2573	975.648699128722	4
1	2574	975.659638466248	3
1	2575	976.452881600443	2
1	2577	976.527026050755	2
1	2578	977.528424290979	2
1	2579	977.617235421939	1
1	2581	978.849575332548	1
1	2583	978.904229455845	2
1	2585	980.519529589722	3
1	2587	980.9335921944	4
1	2588	982.787502247044	4
1	2590	983.033967220205	4
1	2604	986.349449136726	5
1	2611	988.097159297136	5
1	2613	988.432299146613	5
1	2614	988.816767511285	5
1	2615	989.882374787853	4
1	2616	990.580867527444	3
1	2617	990.863651447847	2
1	2618	991.624567743654	1
1	2619	991.873336652428	0
1	2621	992.082964898419	0
1	2623	992.736902315575	1
1	2627	993.572343230744	2
1	2629	996.243686058389	2
1	2631	997.059792217434	2
1	2632	997.15284760593	2
1	2633	997.552695445964	1
1	2634	998.510599545626	0
1	2636	998.524488732491	0
1	2644	1002.948315165793	1
1	2645	1003.554098242699	1
1	2649	1005.408325438934	0
1	2656	1007.309897750726	0
1	2660	1007.846666047912	1
1	2664	1008.538137460777	2
1	2669	1010.316844427901	3
1	2671	1010.32339610515	4
1	2673	1012.661253765336	5
1	2674	1013.443937100088	5
1	2678	1014.533526886496	4
1	2682	1015.847830315247	4
1	2691	1020.002065119623	5
1	2692	1020.370383486343	5
1	2694	1020.529638096667	5
1	2695	1020.885396384672	5
1	2696	1021.512221158	4
1	2697	1022.970425169902	3
1	2698	1023.752148883156	2
1	2699	1025.150009719917	1
1	2706	1027.662947332506	0
1	2708	1030.630371999522	0
1	2709	1030.771898321809	0
1	2711	1032.131439791749	0
1	2713	1032.535908282347	1
1	2718	1033.550338911019	2
1	2719	1033.559671256332	2
1	2720	1033.67283849556	1
1	2721	1034.599161415475	0
1	2723	1038.133311890602	0
1	2727	1038.34991648105	0
1	2734	1047.34353785101	0
1	2740	1048.452961328502	1
1	2744	1048.851188658538	2
1	2746	1048.965983194782	3
1	2756	1050.296145731878	4
1	2759	1051.270895491934	4
1	2760	1051.693422230038	3
1	2761	1051.793176346791	2
1	2762	1052.678236060571	1
1	2764	1052.889735558881	1
1	2768	1055.693136120618	1
1	2770	1059.556932580499	1
1	2776	1060.473779027897	2
1	2782	1061.366321453799	3
1	2784	1062.748856236964	3
1	2791	1065.648418144754	2
1	2793	1065.666245940433	2
1	2795	1066.322105935879	3
1	2799	1067.753546167573	3
1	2800	1067.893963585592	2
1	2801	1068.162695165945	1
1	2806	1071.917559265743	1
1	2807	1073.625581341566	1
1	2809	1074.285323199861	1
1	2820	1080.756375846712	2
1	2822	1080.803294716724	3
1	2826	1082.781218601479	3
1	2827	1083.003485076246	2
1	2829	1083.920925437386	2
1	2830	1084.858320903817	2
1	2832	1085.632065948788	2
1	2834	1085.881024951777	3
1	2836	1086.526930345249	4
1	2837	1086.905859821305	4
1	2838	1087.852204876235	3
1	2839	1088.544356676279	2
1	2841	1088.677667304748	2
1	2843	1091.090605399845	3
1	2845	1091.572913161553	4
1	2847	1092.470615700581	5
1	2851	1093.148589836034	5
1	2853	1095.209263596196	5
1	2854	1096.904948622654	5
1	2855	1097.047563041469	4
1	2856	1097.096511853183	3
1	2861	1098.909158835205	3
1	2862	1098.975849535504	3
1	2864	1100.130459329658	3
1	2866	1101.199825187616	4
1	2867	1102.164916288559	4
1	2868	1103.957556673456	3
1	2870	1104.758150167743	3
1	2871	1104.762807814932	3
1	2872	1104.804822652542	2
1	2874	1105.003012560043	2
1	2875	1107.114080430072	2
1	2877	1107.394887791978	2
1	2878	1108.568282145514	2
1	2883	1111.081306110806	2
1	2887	1112.035947313317	2
1	2891	1114.307373052401	1
1	2892	1116.033778079277	0
1	2894	1116.157834466965	0
1	2896	1116.872288774698	1
1	2897	1116.908472918749	1
1	2898	1117.538352443403	0
1	2903	1119.514895203193	0
1	2904	1119.604331779649	0
1	2909	1122.145516414426	0
1	2910	1122.682415035535	0
1	2912	1123.23354262624	0
1	2913	1124.996293824444	0
1	2915	1125.169911513354	0
1	2917	1126.779374563809	1
1	2921	1129.209711027372	2
1	2924	1131.038960465685	3
1	2925	1131.189239217297	3
1	2927	1132.557374560692	3
1	2929	1134.187450884406	4
1	2930	1135.322976307655	4
1	2931	1135.942067654555	3
1	2932	1136.145788910759	2
1	2939	1139.110316929495	1
1	2941	1139.438765556535	1
1	2949	1143.290022315633	2
1	2951	1144.501115725244	3
1	2952	1145.272491523746	3
1	2953	1145.511591945082	2
1	2954	1145.750622250652	1
1	2956	1145.921560863155	1
1	2958	1145.938670358564	2
1	2959	1146.134282877646	2
1	2960	1146.285176271097	1
1	2965	1147.238809729512	1
1	2969	1147.4729911281	2
1	2974	1149.097708242421	2
1	2976	1153.077454481509	2
1	2978	1154.077344331839	3
1	2979	1154.987672133205	3
1	2981	1155.040799589928	3
1	2983	1156.148315326523	4
1	2988	1157.433474976802	5
1	2989	1158.513847390658	5
1	2991	1158.522220316812	5
1	2992	1158.948638459577	5
1	2993	1159.188276555344	4
1	2997	1159.770533781756	3
1	2999	1160.106772972285	3
1	3000	1161.242015264205	3
1	3002	1161.375673712814	3
1	3006	1162.227064379433	3
1	3010	1163.325456205553	2
1	3011	1163.819657734439	1
1	3013	1165.765672842169	1
1	3014	1165.780363198307	1
1	3016	1166.205534274449	1
1	3020	1167.338062236198	2
1	3022	1167.528947483783	2
1	3023	1168.071108021641	1
1	3025	1168.099143660134	1
1	3027	1168.168793330247	2
1	3028	1168.258476054124	2
1	3029	1169.360766060075	1
1	3030	1169.67780682184	0
1	3032	1169.928995576489	0
1	3036	1170.657334686289	0
1	3038	1171.720794279516	0
1	3039	1172.039347283805	0
1	3041	1175.452686342609	0
1	3042	1175.621198564591	0
1	3050	1179.13856785774	0
1	3052	1180.480870072571	1
1	3065	1183.491750637775	2
1	3067	1184.411073454678	2
1	3068	1184.514944530692	1
1	3069	1185.382825535954	0
1	3071	1185.497684128544	0
1	3073	1185.662505075319	1
1	3074	1186.210300633398	1
1	3079	1187.418872684063	1
1	3085	1187.584710319416	2
1	3099	1190.460858182918	3
1	3108	1193.833287138821	3
1	3109	1193.96626029797	2
1	3113	1195.173555103475	2
1	3117	1195.598413961956	3
1	3120	1196.454902700783	4
1	3125	1197.002719749338	4
1	3133	1200.219289344093	4
1	3137	1200.513443574666	4
1	3138	1202.3853666278	3
1	3140	1203.159888181434	3
1	3145	1203.847782390463	4
1	3147	1203.956179320445	5
1	3148	1204.07759910286	5
1	3150	1204.297618020684	5
1	3152	1205.172092061761	6
1	3153	1206.107300488279	6
1	3158	1207.694016105792	6
1	3159	1207.865556212739	6
1	3160	1208.237886057002	5
1	3162	1208.270653916928	5
1	3166	1209.206513097665	5
1	3168	1209.470503997461	5
1	3169	1209.772309298869	5
1	3173	1210.23294700089	5
1	3176	1210.870568714365	6
1	3177	1211.016039152733	6
1	3179	1212.298264149774	6
1	3180	1212.935407722022	6
1	3181	1213.003069078099	5
1	3182	1213.578901035715	4
1	3184	1215.056353089888	4
1	3185	1215.176492757684	4
1	3186	1215.462909657973	3
1	3190	1216.196591194812	2
1	3191	1216.994204190324	1
1	3193	1218.453653235772	1
1	3194	1218.583969686171	1
1	3198	1220.872059982834	0
1	3200	1225.935892611531	0
1	3201	1226.936801716874	0
1	3212	1230.571110173611	0
1	3214	1231.081346303788	1
1	3215	1231.349949304408	1
1	3226	1232.216726197292	1
1	3229	1232.986373252132	2
1	3232	1233.512748036699	2
1	3233	1234.5326997119	1
1	3234	1234.720902209676	0
1	3236	1234.754571793928	0
1	3237	1235.887892409098	0
1	3239	1236.248749942962	0
1	3240	1237.21479162751	0
1	3242	1239.389788719175	0
1	3244	1239.393768325231	1
1	3249	1241.136745284186	2
1	3250	1241.180012312255	2
1	3257	1243.336213546081	1
1	3262	1245.328894206735	1
1	3276	1248.453099454901	2
1	3278	1248.988363540226	3
1	3279	1249.425627415883	3
1	3280	1249.767695638767	2
1	3282	1250.012186345676	2
1	3284	1250.189861127574	3
1	3288	1251.380770478055	3
1	3290	1252.294023222415	3
1	3292	1253.419419661115	4
1	3296	1253.67331081511	5
1	3299	1254.689790634648	6
1	3300	1255.041226413777	6
1	3302	1256.781952421222	6
1	3303	1257.393883230088	6
1	3308	1258.164602373172	6
1	3310	1259.674102022718	7
1	3317	1263.22141324268	7
1	3319	1263.258212038806	7
1	3320	1263.603361776981	7
1	3324	1264.917132295017	6
1	3326	1264.993817940483	6
1	3327	1265.141099507779	6
1	3329	1265.449121825671	6
1	3334	1268.994388525007	7
1	3339	1271.727814064513	8
1	3340	1272.030126135754	8
1	3347	1274.342152863859	8
1	3349	1274.420193770631	9
1	3351	1274.507154623989	10
1	3353	1274.899791273293	10
1	3354	1275.641192964582	9
1	3355	1275.986808664587	8
1	3356	1276.326491464136	7
1	3358	1276.472330868062	7
1	3362	1278.740616303172	7
1	3363	1278.984374793197	6
1	3364	1279.078033628658	5
1	3366	1279.905542477467	5
1	3368	1280.686736789309	6
1	3372	1282.171959331998	6
1	3373	1282.633627518375	5
1	3375	1282.808909638685	5
1	3377	1283.667331481048	6
1	3384	1286.551905585352	7
1	3386	1286.84532385459	8
1	3394	1288.861328828265	8
1	3395	1291.48412116986	7
1	3397	1292.112416648227	7
1	3398	1292.867007888998	7
1	3399	1292.945249189539	6
1	3400	1292.946482825167	5
1	3404	1294.911533405489	4
1	3405	1294.976695245603	3
1	3407	1295.340746536063	3
1	3412	1295.932392471978	4
1	3414	1296.50933879653	5
1	3415	1298.415231569208	5
1	3416	1299.033572097339	4
1	3418	1300.094137369838	4
1	3420	1300.873465038817	5
1	3421	1301.13976744541	5
1	3422	1301.460366470977	4
1	3424	1303.373808195003	4
1	3428	1305.049874274615	5
1	3433	1306.058907701242	6
1	3435	1307.03925333113	6
1	3436	1307.227330050649	5
1	3437	1307.44988695435	4
1	3444	1311.914814791225	3
1	3446	1312.707129259891	3
1	3447	1313.450356487787	3
1	3448	1313.900625693668	2
1	3449	1314.185116351452	1
1	3450	1315.317895488525	0
1	3452	1316.864786792839	0
1	3460	1320.418031087507	1
1	3461	1320.687333751912	1
1	3469	1323.07437156518	1
1	3470	1323.773070242392	1
1	3471	1325.423459426199	0
1	3475	1326.133084642322	0
1	3477	1326.844993313047	0
1	3488	1330.578944109867	0
1	3493	1331.185021759995	1
1	3498	1331.598965109403	2
1	3499	1332.165140800993	2
1	3501	1333.422500216951	2
1	3502	1334.299690022262	2
1	3503	1334.964474550686	1
1	3505	1335.22191826534	1
1	3509	1337.818858521063	1
1	3511	1339.831264666098	1
1	3512	1339.87157885038	1
1	3514	1340.390780367065	1
1	3515	1341.335026944984	1
1	3516	1341.530963770226	0
1	3518	1341.679701185789	0
1	3520	1343.005454075102	1
1	3526	1343.229336299774	2
1	3545	1348.327509648797	3
1	3547	1348.938839348954	4
1	3549	1349.052188524187	5
1	3550	1349.611493820742	5
1	3552	1350.002734630147	5
1	3553	1350.953908060693	5
1	3554	1351.071328393001	4
1	3555	1352.590513400252	3
1	3557	1352.95905834314	3
1	3558	1353.533761968605	3
1	3559	1353.74503113	2
1	3563	1353.8179415929	2
1	3569	1355.850720216032	3
1	3570	1356.733245818893	3
1	3574	1358.200401137388	2
1	3578	1358.890324146443	1
1	3579	1359.46002918261	0
1	3584	1360.458270180457	0
1	3588	1361.273249114121	1
1	3590	1362.007777119159	1
1	3591	1362.088243350978	0
1	3593	1364.234504236699	0
1	3594	1365.216768178323	0
1	3602	1370.116443213195	0
1	3609	1370.909880425343	0
1	3611	1371.52899920864	0
1	3613	1371.534491534158	1
1	3614	1371.785619143461	1
1	3619	1373.091865700613	1
1	3621	1373.949873663053	2
1	3626	1375.75751660706	3
1	3628	1377.356876558237	4
1	3629	1377.637775576212	4
1	3631	1377.791445167085	4
1	3632	1378.720142907458	4
1	3633	1379.155329190941	3
1	3634	1379.727460838142	2
1	3635	1380.619276242909	1
1	3636	1380.655975171505	0
1	3638	1381.812428971341	0
1	3642	1382.958669308845	1
1	3647	1384.575130303071	2
1	3650	1384.818701649873	3
1	3651	1385.384356954512	3
1	3652	1387.114768708485	2
1	3654	1388.276420587099	2
1	3655	1389.014052030248	2
1	3656	1389.61125615309	1
1	3664	1390.847566638563	1
1	3668	1391.268510076198	2
1	3670	1391.47441137179	3
1	3682	1396.778769500508	4
1	3684	1397.494648084326	5
1	3686	1397.498375044314	6
1	3688	1398.71285731209	7
1	3689	1399.251105965636	7
1	3691	1399.50317630287	7
1	3693	1399.698299846551	8
1	3694	1399.837727256022	8
1	3695	1399.873150441924	7
1	3696	1400.392235329528	6
1	3697	1401.31268696069	5
1	3699	1401.580812866988	5
1	3704	1404.379353436096	6
1	3706	1405.977026042735	7
1	3708	1406.490368438304	8
1	3709	1407.560720075043	8
1	3710	1408.923575361939	7
1	3712	1410.158192056012	7
1	3716	1411.828213386571	7
1	3717	1412.164245609879	6
1	3718	1412.224986479906	5
1	3719	1413.425279423298	4
1	3720	1413.536153946543	3
1	3721	1415.047469599844	2
1	3725	1415.103614706921	2
1	3727	1415.394341462439	3
1	3729	1416.028685154958	3
1	3731	1417.395319172212	3
1	3735	1418.333914743825	3
1	3739	1418.627844861155	3
1	3753	1422.827936859465	4
1	3759	1423.80481580921	5
1	3760	1423.893463727142	5
1	3761	1424.014683841803	4
1	3762	1424.348799014307	3
1	3763	1424.512422646852	2
1	3764	1425.582980316684	1
1	3766	1425.775063048871	1
1	3768	1426.400522028149	2
1	3769	1426.701417678662	2
1	3771	1427.959261222197	2
1	3775	1428.237513554132	3
1	3778	1428.997291424554	4
1	3779	1429.8105767803	4
1	3780	1430.137952456546	3
1	3782	1430.56154586651	3
1	3787	1431.791370692697	4
1	3789	1432.364501245154	5
1	3790	1433.030688690977	5
1	3792	1433.056673726956	5
1	3793	1433.588929963459	5
1	3794	1435.136764687252	4
1	3795	1436.321057789231	3
1	3796	1437.156684444857	2
1	3805	1439.542781823638	2
1	3807	1440.526275851162	3
1	3819	1443.811856902965	3
1	3820	1445.1362707824	2
1	3824	1446.061908813773	1
1	3826	1447.684034945384	1
1	3828	1448.165859224861	2
1	3830	1451.26987451218	3
1	3831	1451.507230439556	3
1	3832	1451.768239245107	2
1	3837	1453.365383292978	2
1	3838	1454.115273191913	2
1	3839	1456.008564993464	1
1	3841	1456.158585034071	1
1	3843	1456.45046382558	2
1	3847	1458.557867160534	2
1	3849	1462.31827008628	2
1	3851	1462.419214992148	3
1	3855	1463.730404430913	3
1	3857	1463.808413882489	3
1	3861	1464.711406054607	3
1	3862	1466.136739137557	2
1	3864	1466.756704257698	2
1	3865	1467.200674664769	2
1	3866	1467.289546306087	1
1	3868	1468.706455363855	1
1	3870	1469.697425097923	2
1	3871	1470.314366970066	2
1	3873	1470.671031782863	2
1	3875	1470.94118509425	3
1	3877	1472.612993541756	4
1	3879	1473.450740866124	5
1	3883	1474.165645990206	5
1	3887	1474.882357526786	5
1	3890	1475.046987140616	6
1	3892	1476.905700738086	7
1	3894	1477.103543674936	8
1	3898	1477.892938308454	9
1	3900	1478.196065227682	9
1	3902	1479.646657805214	9
1	3909	1481.049956099996	9
1	3914	1482.344930090856	9
1	3916	1482.747930683245	10
1	3918	1482.782155225829	11
1	3920	1483.184417548009	12
1	3925	1486.142723628993	13
1	3927	1487.243609262194	14
1	3929	1488.24134876254	15
1	3931	1488.74411275498	16
1	3933	1489.25046001659	17
1	3938	1489.752839118277	18
1	3940	1489.864647995392	19
1	3942	1492.244365633252	20
1	3943	1492.255132075971	20
1	3945	1492.486586168886	20
1	3947	1493.284194910397	21
1	3949	1493.881353441835	22
1	3953	1496.257023817938	22
1	3954	1497.242944550951	21
1	3956	1497.896253454439	21
1	3958	1498.306185036506	22
1	3960	1498.801766946637	23
1	3968	1501.6120119012	24
1	3969	1502.801381328272	24
1	3970	1503.189444549778	23
1	3971	1503.193688437192	22
1	3973	1503.607050115098	22
1	3977	1504.852680696907	22
1	3979	1505.836577177949	22
1	3980	1505.837435100387	22
1	3984	1506.778435959593	21
1	3985	1507.073190643239	20
1	3990	1508.2640641251	20
1	3991	1508.890455824457	20
1	3993	1509.975833956702	20
1	3997	1511.37815765841	20
1	3999	1512.085829940584	20
1	4001	1512.44569567584	21
1	4005	1512.669501794383	22
1	4008	1513.363618735028	23
1	4010	1514.634588698105	24
1	4014	1517.189635300854	24
1	4015	1518.679180996557	23
1	4017	1519.194291564833	23
1	4019	1520.049873884956	24
1	4021	1520.679329981912	25
1	4023	1520.727000715399	26
1	4027	1522.479684419716	26
1	4029	1523.116264179861	26
1	4033	1524.70932966556	27
1	4036	1525.895438246071	28
1	4038	1526.042833864235	29
1	4045	1527.612073361618	29
1	4053	1529.585376424713	29
1	4054	1530.869174365341	29
1	4056	1532.403945873472	29
1	4060	1533.636604377575	30
1	4066	1534.791388458157	31
1	4067	1534.964853857323	31
1	4069	1535.060951269148	31
1	4070	1535.999214946352	31
1	4075	1538.084997180854	31
1	4076	1539.052982744581	31
1	4077	1540.187909927965	30
1	4082	1541.297562792853	30
1	4097	1543.118222827375	31
1	4101	1543.547308075887	32
1	4102	1543.586073751697	32
1	4104	1543.830622909133	32
1	4105	1544.964064250421	32
1	4107	1545.156509146558	32
1	4108	1545.806122174828	32
1	4109	1548.779711617878	31
1	4110	1549.535024295981	30
1	4112	1550.183738721464	30
1	4116	1551.014085331462	30
1	4127	1556.216264465597	30
1	4128	1556.34591888747	30
1	4130	1556.670333149843	30
1	4132	1557.032045700026	31
1	4133	1557.438756665204	31
1	4138	1558.588708311076	31
1	4142	1559.058953797689	31
1	4144	1559.250600008565	31
1	4145	1559.811981820692	31
1	4146	1560.860539460557	30
1	4147	1561.430404691285	29
1	4148	1562.381993721973	28
1	4149	1562.711547611991	27
1	4150	1562.723681027845	26
1	4152	1563.937956633301	26
1	4154	1564.024943000036	27
1	4155	1564.430811308303	27
1	4157	1566.597673361496	27
1	4158	1566.622817087232	27
1	4159	1567.951191658172	26
1	4163	1569.365100881128	25
1	4164	1569.533037026821	24
1	4171	1572.155062045255	23
1	4172	1572.250287754411	22
1	4173	1572.699186125273	21
1	4174	1573.363338308323	20
1	4178	1574.452353699369	20
1	4180	1574.510212128625	21
1	4186	1575.223391961702	22
1	4188	1575.30458860804	23
1	4190	1576.419412575943	24
1	4202	1578.260526343212	25
1	4204	1578.998468266163	26
1	4208	1580.312420095478	27
1	4210	1581.99811461902	28
1	4221	1585.197260848078	29
1	4223	1585.666684709244	30
1	4234	1589.110246940739	31
1	4236	1589.896679619321	32
1	4238	1590.978037467298	33
1	4242	1591.294257639751	34
1	4246	1591.560842900328	35
1	4258	1596.059796010413	35
1	4262	1597.364159255966	34
1	4264	1597.544036906989	34
1	4271	1599.302421899039	34
1	4272	1599.747018087663	33
1	4279	1604.1077968553	32
1	4286	1607.038808306612	31
1	4287	1607.680595498502	30
1	4289	1609.607896978516	30
1	4291	1609.713641164872	31
1	4292	1610.752619277816	31
1	4293	1611.123817706049	30
1	4309	1615.882547268257	30
1	4312	1616.382188647343	31
1	4313	1616.608062832275	31
1	4314	1617.121922514918	30
1	4316	1618.059883883054	30
1	4318	1618.211737360709	31
1	4323	1623.335221006784	32
1	4330	1626.327158596398	32
1	4332	1627.139313587098	32
1	4334	1627.194034199063	33
1	4335	1627.471798223033	33
1	4336	1627.582178558687	32
1	4340	1628.474252094733	31
1	4341	1629.227629283099	30
1	4343	1629.949954566335	30
1	4344	1630.342068662013	30
1	4348	1632.081302081513	29
1	4350	1632.501976780952	29
1	4351	1632.719634865389	29
1	4356	1632.955952760892	29
1	4360	1634.970101561144	30
1	4366	1637.364510800185	31
1	4368	1638.509702846288	32
1	4370	1639.014950977312	33
1	4371	1639.310572324803	33
1	4375	1640.413984064595	33
1	4384	1643.217069216035	34
1	4385	1643.678416058484	34
1	4386	1644.908627377137	33
1	4387	1645.346480678778	32
1	4397	1646.739867655614	31
1	4398	1647.24257773693	30
1	4400	1648.278416497043	30
1	4406	1648.491071862436	31
1	4409	1649.093303376401	31
1	4410	1649.23337156586	30
1	4412	1649.881786083118	30
1	4413	1650.024395607313	30
1	4414	1650.797691762196	29
1	4415	1650.831904263272	28
1	4416	1651.071176543509	27
1	4420	1652.239952516172	26
1	4421	1652.702477895278	25
1	4423	1653.358453247724	25
1	4425	1653.937802512837	26
1	4426	1654.037983706105	26
1	4428	1654.650013730847	26
1	4429	1656.362155855573	26
1	4431	1656.397912283482	26
1	4433	1656.939713279971	27
1	4435	1657.444686841537	28
1	4436	1658.144387814881	28
1	4437	1658.297757442891	27
1	4438	1658.779401611352	26
1	4440	1659.608776113447	26
1	4441	1660.170735433057	26
1	4443	1660.21629329052	26
1	4455	1664.326924313352	27
1	4463	1666.871100331792	28
1	4465	1667.094451459834	29
1	4469	1667.188260374575	30
1	4471	1667.448779190795	31
1	4475	1668.083185355501	32
1	4478	1668.175665752626	33
1	4488	1671.719053233146	33
1	4490	1672.178537195357	33
1	4492	1673.099392113966	34
1	4493	1673.179643879028	34
1	4494	1673.745800913256	33
1	4496	1674.85687199392	33
1	4506	1677.93837728597	33
1	4513	1679.933543613541	33
1	4518	1681.727822027512	34
1	4527	1686.911010887301	35
1	4529	1687.239397786158	36
1	4530	1687.442804119481	36
1	4537	1690.720434992165	35
1	4538	1690.750298587247	34
1	4539	1690.787150750394	33
1	4546	1693.563579613125	32
1	4547	1693.724886496092	31
1	4552	1694.6865707735	31
1	4557	1697.617145393358	32
1	4562	1698.900232486959	33
1	4563	1699.705950591908	33
1	4564	1699.782401380544	32
1	4565	1700.576878313084	31
1	4569	1702.795325231828	30
1	4571	1703.018271489841	30
1	4582	1707.789770581291	31
1	4583	1708.810606470253	31
1	4584	1711.308908444408	30
1	4586	1711.927112744821	30
1	4587	1712.36097501608	30
1	4588	1712.368595974109	29
1	4590	1712.69042950407	29
1	4591	1713.465159627823	29
1	4607	1717.937471335721	29
1	4621	1721.853922903538	29
1	4634	1725.716592560235	28
1	4638	1726.122842590563	28
1	4640	1726.362269957528	28
1	4641	1726.772499849516	27
1	4642	1726.787909080962	26
1	4650	1729.109933589582	26
1	4651	1731.142569718472	26
1	4653	1731.418547997972	26
1	4655	1732.997032932728	27
1	4656	1733.827827603078	27
1	4661	1735.470156814804	27
1	4662	1737.357413911955	27
1	4663	1739.219195566497	26
1	4665	1739.36501747703	26
1	4666	1739.469130181422	26
1	4667	1739.872621938975	25
1	4668	1740.056868863992	24
1	4670	1741.385221542883	24
1	4671	1741.490192669034	24
1	4672	1741.664178419096	23
1	4674	1743.571859873223	23
1	4678	1744.604598042963	23
1	4686	1746.482703478967	23
1	4687	1746.610219885303	23
1	4688	1746.666531159719	22
1	4689	1746.674167782666	21
1	4696	1748.258056614773	20
1	4697	1748.712759494253	19
1	4699	1748.729296264803	19
1	4701	1749.156475051153	20
1	4703	1749.567269955612	21
1	4704	1749.576356007063	21
1	4705	1749.872252161976	20
1	4710	1750.344577085544	20
1	4712	1750.582495766292	21
1	4713	1751.908294614399	21
1	4714	1753.031373508342	20
1	4715	1754.517985103876	19
1	4717	1754.60369889294	19
1	4718	1754.85761453865	19
1	4720	1758.077172157404	19
1	4721	1758.193858443391	19
1	4726	1759.031618463979	19
1	4731	1761.837893523546	20
1	4733	1762.085833791782	21
1	4734	1762.327802441443	21
1	4735	1762.988775002441	20
1	4737	1763.926623044167	20
1	4739	1764.747437299975	21
1	4740	1765.200796548485	21
1	4741	1765.249110309579	20
1	4742	1765.570210083488	19
1	4744	1766.658127375794	19
1	4746	1768.606623275514	20
1	4747	1768.749336916148	20
1	4748	1771.597952985154	19
1	4750	1772.395479352622	19
1	4751	1772.965225416209	19
1	4755	1774.332963244348	19
1	4764	1777.231552371419	20
1	4769	1778.826190138181	21
1	4770	1779.966608051474	21
1	4772	1780.534744736915	21
1	4774	1781.168002845825	22
1	4778	1782.958867411349	22
1	4782	1785.721381312958	22
1	4785	1786.376975220256	23
1	4787	1787.184736675019	24
1	4789	1788.92159615462	25
1	4791	1789.14433901361	26
1	4792	1789.227911232782	26
1	4793	1790.636224191243	25
1	4797	1794.36113252393	24
1	4798	1794.64939009474	23
1	4802	1795.333456922202	22
1	4803	1796.188552852287	21
1	4804	1797.141797971664	20
1	4805	1797.679072480245	19
1	4806	1797.929609100185	18
1	4810	1799.006230455338	17
1	4811	1799.366392447206	16
1	4812	1799.563281206489	15
1	4813	1799.873351443742	14
1	4814	1799.893030640991	13
1	4818	1800.857324766478	13
1	4820	1801.775689598277	14
1	4823	1802.363097695196	15
1	4830	1804.641915450888	16
1	4833	1805.298012484273	17
1	4840	1806.666678346741	18
1	4842	1807.183608088958	19
1	4845	1807.461690048178	20
1	4847	1808.329944721451	21
1	4848	1808.634389233627	21
1	4864	1812.913019934289	20
1	4865	1813.819101113906	19
1	4869	1816.718667618903	18
1	4870	1816.840515099015	17
1	4871	1816.973059701074	16
1	4873	1817.047046641728	16
1	4878	1818.041818439602	17
1	4882	1819.718575856461	17
1	4883	1819.744333052854	16
1	4884	1819.753704784855	15
1	4885	1819.920963156792	14
1	4886	1820.592176209708	13
1	4887	1820.651767416141	12
1	4891	1821.070593468562	12
1	4893	1821.767263445641	13
1	4895	1822.689991167206	13
1	4903	1825.166922171412	13
1	4904	1825.378129196865	13
1	4908	1826.69999001745	12
1	4910	1826.839361308503	12
1	4912	1827.038313847445	13
1	4913	1827.11324070938	13
1	4917	1828.930016316452	12
1	4919	1830.647605972788	12
1	4920	1831.026995365115	12
1	4921	1831.10435917948	11
1	4922	1831.202091046179	10
1	4924	1832.980949433625	10
1	4926	1835.180096560522	11
1	4927	1836.35220951254	11
1	4928	1837.894545544298	10
1	4930	1839.019835507447	10
1	4931	1840.376931103522	10
1	4935	1841.997483216748	10
1	4938	1843.303066691574	11
1	4949	1847.58094772392	12
1	4951	1849.877312814886	13
1	4952	1852.19151100368	13
1	4953	1852.261619128696	12
1	4957	1852.685816311952	12
1	4969	1855.361330481861	13
1	4970	1855.806769733092	13
1	4971	1857.023394012779	12
1	4978	1863.151102142089	11
1	4980	1863.440672524591	11
1	4984	1864.707313899891	11
1	4985	1865.018566796066	10
1	4989	1865.67778333561	9
1	4991	1865.949524461633	9
1	4992	1866.58550140128	9
1	4996	1866.690147382722	9
1	4999	1866.95612910475	10
1	5004	1868.288357836215	11
1	5005	1868.429085142822	11
1	5006	1868.661757804992	10
1	5007	1870.231169783598	9
1	5008	1871.208410918246	8
1	5009	1871.301159971502	7
1	5011	1871.308828676687	7
1	5018	1874.141057247288	7
1	5026	1876.048704212131	7
1	5028	1876.883602664767	8
1	5029	1877.772041893906	8
1	5031	1877.966402190146	8
1	5035	1879.465773087009	9
1	5038	1880.530335692416	10
1	5039	1882.426228595433	10
1	5040	1882.444836161594	9
1	5044	1882.854464974849	8
1	5045	1883.803048824733	7
1	5046	1885.164063929554	6
1	5048	1885.626816186748	6
1	5050	1886.365405998186	7
1	5051	1887.46843148495	7
1	5059	1891.761741635233	7
1	5060	1892.166400821316	7
1	5062	1892.222080707508	7
1	5067	1896.593066130908	8
1	5072	1897.189427953506	9
1	5073	1897.593545611191	9
1	5074	1897.873729183796	8
1	5076	1898.245129467002	8
1	5077	1899.145155825904	8
1	5078	1899.982777333686	7
1	5079	1900.208404833063	6
1	5080	1901.475399806966	5
1	5084	1902.058753370833	5
1	5086	1903.001387643955	5
1	5097	1905.704466330056	5
1	5104	1906.871366780362	5
1	5112	1910.193313562957	5
1	5113	1910.619019759	5
1	5115	1911.99144765468	5
1	5116	1912.063748846961	5
1	5120	1913.169745724595	5
1	5122	1913.938477903036	6
1	5130	1917.437374151286	6
1	5131	1917.448702426483	5
1	5133	1917.548001054411	5
1	5134	1917.8505231672	5
1	5135	1919.083258197615	4
1	5137	1920.42805366936	4
1	5138	1920.803905799568	4
1	5142	1921.495252218383	3
1	5144	1921.538264310811	3
1	5145	1921.74460142369	3
1	5149	1923.66796152966	2
1	5153	1924.96177427509	1
1	5154	1925.993991027424	0
1	5162	1931.883659257907	0
1	5168	1932.129816539447	1
1	5172	1933.240089453454	2
1	5173	1933.250767342822	2
1	5181	1935.821087602153	2
1	5185	1936.801539209352	3
1	5188	1937.877395983014	4
1	5195	1939.054738403364	4
1	5196	1939.264918046428	3
1	5201	1940.844399031135	3
1	5203	1941.78034219676	4
1	5210	1942.494846602321	4
1	5211	1943.381979197649	3
1	5213	1944.056495785594	3
1	5215	1944.200492928881	4
1	5216	1944.223128092162	4
1	5220	1946.023563838666	4
1	5228	1947.53883171644	5
1	5230	1947.704240081044	5
1	5232	1948.592269627586	5
1	5233	1948.678814333707	5
1	5240	1949.854457025675	4
1	5241	1950.516536193856	3
1	5242	1950.730963338275	2
1	5246	1951.798571621292	1
1	5247	1952.4072315541	0
1	5249	1957.222315854522	0
1	5253	1957.733915294026	0
1	5267	1960.765416208088	0
1	5275	1962.377265210755	1
1	5279	1964.424901426332	1
1	5280	1964.869636517494	0
1	5282	1965.085721296682	0
1	5284	1966.230240031188	1
1	5285	1966.354574703058	1
1	5287	1966.904006675467	1
1	5288	1967.733405948775	1
1	5292	1969.569863779232	1
1	5294	1970.071125100191	1
1	5296	1970.368450177818	1
1	5297	1970.436867806599	1
1	5299	1970.776534547479	1
1	5300	1970.834811381272	1
1	5301	1971.425223325804	0
1	5306	1972.412727005375	0
1	5308	1972.424163042593	1
1	5309	1972.459859577925	1
1	5311	1972.509583965115	1
1	5312	1973.394007181896	1
1	5313	1974.26359057387	0
1	5321	1976.077967167774	0
[...]
10	2678	1014.533526886496	4.65940600752
10	2692	1020.370383486343	7.709129721007
10	2695	1020.885396384672	7.404642522283
10	2696	1021.512221158	6.385662653289
10	2697	1022.970425169902	7.122594854655
10	2698	1023.752148883156	6.959871378872
10	2699	1025.150009719917	5.147944600294
10	2706	1027.662947332506	2.324820947483
10	2709	1030.771898321809	0.141526322287
10	2719	1033.559671256332	1.023762973985
10	2720	1033.67283849556	0.96774997736
10	2721	1034.599161415475	1.048822504456
10	2727	1038.34991648105	0.153797454869
10	2759	1051.270895491934	2.419706833396
10	2760	1051.693422230038	2.727439035256
10	2761	1051.793176346791	1.888639198918
10	2762	1052.678236060571	2.733401833812
10	2768	1055.693136120618	2.803400561737
10	2784	1062.748856236964	3.191923656465
10	2791	1065.648418144754	4.282096690955
10	2799	1067.753546167573	4.246123751162
10	2800	1067.893963585592	2.227717645159
10	2801	1068.162695165945	1.840589230066
10	2807	1073.625581341566	5.209363325631
10	2826	1082.781218601479	2.363127716708
10	2827	1083.003485076246	2.247109229534
10	2830	1084.858320903817	4.055026187093
10	2837	1086.905859821305	5.570737674651
10	2838	1087.852204876235	3.931279438849
10	2839	1088.544356676279	2.912290727491
10	2851	1093.148589836034	6.621659490785
10	2854	1096.904948622654	8.227281317906
10	2855	1097.047563041469	5.956957641624
10	2856	1097.096511853183	5.52359869163
10	2862	1098.975849535504	6.311941199865
10	2867	1102.164916288559	6.955652692363
10	2868	1103.957556673456	5.428462417284
10	2871	1104.762807814932	5.853648979727
10	2872	1104.804822652542	4.674363322884
10	2875	1107.114080430072	5.914255242456
10	2878	1108.568282145514	3.810131977771
10	2887	1112.035947313317	2.964497501834
10	2891	1114.307373052401	2.614847362142
10	2892	1116.033778079277	3.350946477782
10	2897	1116.908472918749	0.750638451784
10	2898	1117.538352443403	0.666063668705
10	2904	1119.604331779649	0.089436576456
10	2910	1122.682415035535	0.536898621109
10	2913	1124.996293824444	1.762751198204
10	2925	1131.189239217297	4.409864653488
10	2930	1135.322976307655	6.325953230963
10	2931	1135.942067654555	6.732356627183
10	2932	1136.145788910759	5.106828445074
10	2939	1139.110316929495	4.922866045089
10	2952	1145.272491523746	5.833725967211
10	2953	1145.511591945082	4.952522870312
10	2954	1145.750622250652	2.460599935019
10	2959	1146.134282877646	1.633167152402
10	2960	1146.285176271097	0.363615407942
10	2974	1149.097708242421	1.782224062143
10	2979	1154.987672133205	7.514681005105
10	2989	1158.513847390658	5.436392909149
10	2992	1158.948638459577	4.871294127738
10	2993	1159.188276555344	4.147476965416
10	2997	1159.770533781756	3.072582545852
10	3000	1161.242015264205	3.808540287403
10	3006	1162.227064379433	3.034572283727
10	3010	1163.325456205553	1.949782492739
10	3011	1163.819657734439	2.285665874978
10	3014	1165.780363198307	3.492263696178
10	3022	1167.528947483783	1.323413209334
10	3023	1168.071108021641	1.277102929668
10	3028	1168.258476054124	0.920413817926
10	3029	1169.360766060075	1.261622399941
10	3030	1169.67780682184	1.509013491593
10	3036	1170.657334686289	0.509597955006
10	3039	1172.039347283805	0.318553004289
10	3042	1175.621198564591	0.168512221982
10	3067	1184.411073454678	3.930203382107
10	3068	1184.514944530692	3.572676758867
10	3069	1185.382825535954	1.891074898179
10	3074	1186.210300633398	0.712616504854
10	3108	1193.833287138821	6.248576819405
10	3109	1193.96626029797	3.505402115052
10	3125	1197.002719749338	2.283360056323
10	3137	1200.513443574666	3.540631505384
10	3138	1202.3853666278	4.040082500774
10	3148	1204.07759910286	3.858309758767
10	3153	1206.107300488279	5.831021292351
10	3159	1207.865556212739	4.478642657943
10	3160	1208.237886057002	4.390103666539
10	3166	1209.206513097665	4.908895076981
10	3169	1209.772309298869	4.600217237108
10	3177	1211.016039152733	3.322023046941
10	3180	1212.935407722022	4.664753805094
10	3181	1213.003069078099	4.668732243097
10	3182	1213.578901035715	4.108397038254
10	3185	1215.176492757684	5.123061652869
10	3186	1215.462909657973	5.229962657083
10	3190	1216.196591194812	3.898327045038
10	3191	1216.994204190324	1.937851100436
10	3194	1218.583969686171	2.63816046683
10	3198	1220.872059982834	1.729789778014
10	3201	1226.936801716874	1.000909105343
10	3215	1231.349949304408	0.778839130797
10	3232	1233.512748036699	2.143215865589
10	3233	1234.5326997119	2.315973514608
10	3234	1234.720902209676	1.734528957544
10	3237	1235.887892409098	1.13332061517
10	3240	1237.21479162751	0.966041684548
10	3250	1241.180012312255	1.786243987024
10	3257	1243.336213546081	2.023744254915
10	3279	1249.425627415883	2.45226586599
10	3280	1249.767695638767	1.509487155575
10	3288	1251.380770478055	2.392406937829
10	3300	1255.041226413777	4.851365286203
10	3303	1257.393883230088	7.090636665293
10	3317	1263.22141324268	9.54810242757
10	3320	1263.603361776981	8.913571142333
10	3324	1264.917132295017	7.388911804324
10	3327	1265.141099507779	6.976497134607
10	3340	1272.030126135754	9.67439484264
10	3353	1274.899791273293	9.90597333281
10	3354	1275.641192964582	10.192071138911
10	3355	1275.986808664587	8.527725997358
10	3356	1276.326491464136	7.332102939129
10	3362	1278.740616303172	7.012802238659
10	3363	1278.984374793197	6.004487881329
10	3364	1279.078033628658	4.937825979749
10	3372	1282.171959331998	7.751765561367
10	3373	1282.633627518375	8.126472894386
10	3394	1288.861328828265	8.955786350798
10	3395	1291.48412116986	10.797384380551
10	3398	1292.867007888998	11.579214128119
10	3399	1292.945249189539	10.136339550854
10	3400	1292.946482825167	9.279151344119
10	3404	1294.911533405489	8.492112208417
10	3405	1294.976695245603	8.424789660251
10	3415	1298.415231569208	6.302814920981
10	3416	1299.033572097339	5.039739334433
10	3421	1301.13976744541	5.799020909347
10	3422	1301.460366470977	5.830807100095
10	3435	1307.03925333113	10.5299145346
10	3436	1307.227330050649	7.133192680811
10	3437	1307.44988695435	6.576421915533
10	3444	1311.914814791225	6.86494051661
10	3447	1313.450356487787	7.391448786545
10	3448	1313.900625693668	5.159437451024
10	3449	1314.185116351452	4.108133740341
10	3450	1315.317895488525	2.610766228634
10	3461	1320.687333751912	1.142721608383
10	3470	1323.773070242392	1.570284715065
10	3471	1325.423459426199	2.349087861019
10	3477	1326.844993313047	0.711908670725
10	3499	1332.165140800993	0.980119040998
10	3502	1334.299690022262	2.902622620017
10	3503	1334.964474550686	3.365509441283
10	3509	1337.818858521063	2.596940255723
10	3512	1339.87157885038	2.82150080014
10	3515	1341.335026944984	1.503762278886
10	3516	1341.530963770226	1.140183403161
10	3550	1349.611493820742	6.382157520968
10	3553	1350.953908060693	6.726619937722
10	3554	1351.071328393001	3.435698440521
10	3555	1352.590513400252	4.263003751455
10	3558	1353.533761968605	4.594922619651
10	3559	1353.74503113	4.692842605813
10	3570	1356.733245818893	2.98158278713
10	3574	1358.200401137388	2.785633966396
10	3578	1358.890324146443	1.149619964738
10	3579	1359.46002918261	0.892105864776
10	3590	1362.007777119159	1.276055394359
10	3591	1362.088243350978	0.814994236857
10	3594	1365.216768178323	0.982263941624
10	3609	1370.909880425343	0.762641407975
10	3614	1371.785619143461	0.256619934821
10	3629	1377.637775576212	4.545909875599
10	3632	1378.720142907458	4.770269244405
10	3633	1379.155329190941	3.942916441006
10	3634	1379.727460838142	3.969944231082
10	3635	1380.619276242909	3.262399684672
10	3636	1380.655975171505	2.86453000442
10	3651	1385.384356954512	2.425687645667
10	3652	1387.114768708485	2.677395141118
10	3655	1389.014052030248	4.438921727177
10	3656	1389.61125615309	4.792554503217
10	3689	1399.251105965636	7.776694593846
10	3694	1399.837727256022	7.231707979035
10	3695	1399.873150441924	6.338340112721
10	3696	1400.392235329528	5.077568315105
10	3697	1401.31268696069	4.533917460182
10	3709	1407.560720075043	10.062345030729
10	3710	1408.923575361939	10.210718049849
10	3716	1411.828213386571	12.12991354002
10	3717	1412.164245609879	10.583432742891
10	3718	1412.224986479906	8.486784944813
10	3719	1413.425279423298	9.045925987202
10	3720	1413.536153946543	7.559127903808
10	3721	1415.047469599844	8.55710116154
10	3729	1416.028685154958	4.828987425104
10	3735	1418.333914743825	3.230300036904
10	3760	1423.893463727142	4.650816895096
10	3761	1424.014683841803	3.599355204212
10	3762	1424.348799014307	2.622649343955
10	3763	1424.512422646852	1.689617029272
10	3764	1425.582980316684	2.755043457219
10	3769	1426.701417678662	2.896601869452
10	3779	1429.8105767803	3.410054752151
10	3780	1430.137952456546	2.178691234349
10	3790	1433.030688690977	4.793175136845
10	3793	1433.588929963459	4.591638538905
10	3794	1435.136764687252	4.575218820742
10	3795	1436.321057789231	4.957197965457
10	3796	1437.156684444857	5.36531375216
10	3819	1443.811856902965	4.269075079327
10	3820	1445.1362707824	4.609994931238
10	3824	1446.061908813773	3.36863201603
10	3831	1451.507230439556	6.205689465867
10	3832	1451.768239245107	4.084204299723
10	3838	1454.115273191913	2.845398679733
10	3839	1456.008564993464	3.570746156386
10	3847	1458.557867160534	2.399282126463
10	3855	1463.730404430913	6.0581825864
10	3861	1464.711406054607	2.292191062459
10	3862	1466.136739137557	3.253494432772
10	3865	1467.200674664769	3.39226078228
10	3866	1467.289546306087	3.062424738876
10	3871	1470.314366970066	3.557662712368
10	3883	1474.165645990206	4.468220892283
10	3900	1478.196065227682	5.583071685926
10	3909	1481.049956099996	6.594916677528
10	3943	1492.255132075971	15.151588401035
10	3953	1496.257023817938	18.364085509484
10	3954	1497.242944550951	17.596286745737
10	3969	1502.801381328272	21.904465154227
10	3970	1503.189444549778	21.811456434027
10	3971	1503.193688437192	20.848758346336
10	3977	1504.852680696907	22.070525471078
10	3980	1505.837435100387	22.653017552378
10	3984	1506.778435959593	20.6357123306
10	3985	1507.073190643239	19.829581381045
10	3991	1508.890455824457	20.146343069477
10	3997	1511.37815765841	22.040426123709
10	4014	1517.189635300854	24.945269667602
10	4015	1518.679180996557	26.192594827671
10	4027	1522.479684419716	28.598330977881
10	4045	1527.612073361618	29.305888325112
10	4054	1530.869174365341	29.257162464141
10	4067	1534.964853857323	29.128276679374
10	4070	1535.999214946352	30.081903811244
10	4076	1539.052982744581	30.788918619481
10	4077	1540.187909927965	30.212075971263
10	4102	1543.586073751697	31.062247722189
10	4105	1544.964064250421	32.294562456038
10	4108	1545.806122174828	32.4425034398
10	4109	1548.779711617878	34.145122919773
10	4110	1549.535024295981	34.846510539245
10	4116	1551.014085331462	30.964211446506
10	4128	1556.34591888747	33.229654707609
10	4133	1557.438756665204	33.426917208627
10	4142	1559.058953797689	33.016119933454
10	4145	1559.811981820692	33.360389845181
10	4146	1560.860539460557	33.065092831015
10	4147	1561.430404691285	32.689309209685
10	4148	1562.381993721973	32.79661729726
10	4149	1562.711547611991	30.307601738519
10	4150	1562.723681027845	29.097647165791
10	4155	1564.430811308303	30.794206930728
10	4158	1566.622817087232	32.136165433732
10	4159	1567.951191658172	33.159803200015
10	4163	1569.365100881128	33.279066649711
10	4164	1569.533037026821	31.448039845967
10	4171	1572.155062045255	30.857499252402
10	4172	1572.250287754411	30.890362384743
10	4173	1572.699186125273	31.300004877399
10	4174	1573.363338308323	30.245115480948
10	4258	1596.059796010413	37.286258588515
10	4262	1597.364159255966	33.426202622665
10	4271	1599.302421899039	32.704748537543
10	4272	1599.747018087663	31.639646328274
10	4279	1604.1077968553	29.786210928682
10	4286	1607.038808306612	32.186498821314
10	4287	1607.680595498502	32.4572035368
10	4292	1610.752619277816	35.448030669776
10	4293	1611.123817706049	34.704405130106
10	4313	1616.608062832275	39.3079331538
10	4314	1617.121922514918	38.861396171706
10	4330	1626.327158596398	43.557246418758
10	4335	1627.471798223033	43.156195989938
10	4336	1627.582178558687	42.601279486085
10	4340	1628.474252094733	42.807567385489
10	4341	1629.227629283099	42.597410090628
10	4344	1630.342068662013	43.204634432171
10	4348	1632.081302081513	42.971055140774
10	4351	1632.719634865389	42.822955246068
10	4371	1639.310572324803	48.016314685052
10	4385	1643.678416058484	49.51866669517
10	4386	1644.908627377137	47.719608107392
10	4387	1645.346480678778	47.802443771789
10	4397	1646.739867655614	46.951998141758
10	4398	1647.24257773693	42.339631531745
10	4409	1649.093303376401	39.485406397885
10	4410	1649.23337156586	39.519730400988
10	4413	1650.024395607313	38.523731925987
10	4414	1650.797691762196	37.724588942673
10	4415	1650.831904263272	34.949356995015
10	4416	1651.071176543509	34.688987896166
10	4420	1652.239952516172	34.028215155463
10	4421	1652.702477895278	31.185867561087
10	4426	1654.037983706105	30.702762699321
10	4429	1656.362155855573	31.674069593959
10	4436	1658.144387814881	33.290376084853
10	4437	1658.297757442891	31.158443855793
10	4438	1658.779401611352	31.585367412289
10	4441	1660.170735433057	32.442361807167
10	4488	1671.719053233146	38.907522976091
10	4493	1673.179643879028	40.223691118136
10	4494	1673.745800913256	38.834443731241
10	4506	1677.93837728597	39.428674439682
10	4530	1687.442804119481	39.164387622438
10	4537	1690.720434992165	40.838648909047
10	4538	1690.750298587247	39.271894071359
10	4539	1690.787150750394	37.42869750267
10	4546	1693.563579613125	38.913565882278
10	4547	1693.724886496092	37.32697421261
10	4563	1699.705950591908	39.489657301388
10	4564	1699.782401380544	39.352283055104
10	4565	1700.576878313084	39.490353904817
10	4569	1702.795325231828	38.468400918476
10	4583	1708.810606470253	41.622346095678
10	4584	1711.308908444408	43.860129253613
10	4587	1712.36097501608	44.277789660579
10	4588	1712.368595974109	44.192930221483
10	4591	1713.465159627823	41.286622432466
10	4621	1721.853922903538	42.328432278561
10	4634	1725.716592560235	42.719076756831
10	4640	1726.362269957528	39.451259070227
10	4641	1726.772499849516	39.533102063358
10	4642	1726.787909080962	38.633413546487
10	4651	1731.142569718472	36.997410095582
10	4656	1733.827827603078	39.141256829578
10	4662	1737.357413911955	39.740268518597
10	4663	1739.219195566497	41.085796695207
10	4666	1739.469130181422	40.568897694463
10	4667	1739.872621938975	38.596809350218
10	4668	1740.056868863992	37.038597374151
10	4671	1741.490192669034	38.389254862242
10	4672	1741.664178419096	34.427553103855
10	4678	1744.604598042963	32.677485298142
10	4687	1746.610219885303	31.629193835356
10	4688	1746.666531159719	30.815529128015
10	4689	1746.674167782666	28.736696446945
10	4696	1748.258056614773	25.888798424301
10	4697	1748.712759494253	25.16827015066
10	4704	1749.576356007063	25.237500353255
10	4705	1749.872252161976	23.847240099828
10	4713	1751.908294614399	24.801455971506
10	4714	1753.031373508342	24.966342909502
10	4715	1754.517985103876	25.408051514294
10	4718	1754.85761453865	23.439066540678
10	4721	1758.193858443391	25.196825510663
10	4734	1762.327802441443	22.962784964413
10	4735	1762.988775002441	21.603553459558
10	4740	1765.200796548485	21.628936675262
10	4741	1765.249110309579	21.676425647684
10	4742	1765.570210083488	20.606920150259
10	4747	1768.749336916148	22.579710239009
10	4748	1771.597952985154	25.115249506187
10	4751	1772.965225416209	25.10659465819
10	4770	1779.966608051474	30.399338095862
10	4778	1782.958867411349	32.614290325805
10	4792	1789.227911232782	34.624212339842
10	4793	1790.636224191243	32.559052033839
10	4797	1794.36113252393	35.329514059951
10	4798	1794.64939009474	35.34584709172
10	4802	1795.333456922202	33.24762313042
10	4803	1796.188552852287	32.26192980812
10	4804	1797.141797971664	32.394360671689
10	4805	1797.679072480245	31.020945104451
10	4806	1797.929609100185	29.322985824671
10	4810	1799.006230455338	25.519043747677
10	4811	1799.366392447206	25.033429202858
10	4812	1799.563281206489	24.446466818891
10	4813	1799.873351443742	22.641799072323
10	4814	1799.893030640991	22.075930473298
10	4848	1808.634389233627	23.695954167809
10	4864	1812.913019934289	26.536044714033
10	4865	1813.819101113906	26.634364438887
10	4869	1816.718667618903	27.574328605293
10	4870	1816.840515099015	25.762403346388
10	4871	1816.973059701074	22.119420991941
10	4882	1819.718575856461	18.861251089983
10	4883	1819.744333052854	17.968643454577
10	4884	1819.753704784855	17.390607089659
10	4885	1819.920963156792	17.468921581612
10	4886	1820.592176209708	16.170986519775
10	4887	1820.651767416141	16.009851965253
10	4895	1822.689991167206	16.890260608798
10	4904	1825.378129196865	17.916439148687
10	4908	1826.69999001745	17.895040505033
10	4913	1827.11324070938	12.023620554763
10	4917	1828.930016316452	11.240328360254
10	4920	1831.026995365115	12.985176925513
10	4921	1831.10435917948	12.60606507136
10	4922	1831.202091046179	10.314702420589
10	4927	1836.35220951254	15.281616043978
10	4928	1837.894545544298	16.127282098657
10	4931	1840.376931103522	17.471941574196
10	4952	1852.19151100368	25.153197156235
10	4953	1852.261619128696	24.598420037038
10	4970	1855.806769733092	16.786934225645
10	4971	1857.023394012779	15.354694876015
10	4978	1863.151102142089	19.750102243026
10	4984	1864.707313899891	18.664645999871
10	4985	1865.018566796066	17.437619072146
10	4989	1865.67778333561	13.065288313937
10	4992	1866.58550140128	13.899685089328
10	5005	1868.429085142822	13.067754660961
10	5006	1868.661757804992	11.032093651045
10	5007	1870.231169783598	12.079312563531
10	5008	1871.208410918246	7.767738393655
10	5009	1871.301159971502	7.31444394778
10	5018	1874.141057247288	7.536037645928
10	5029	1877.772041893906	10.194770769691
10	5039	1882.426228595433	11.117399918746
10	5040	1882.444836161594	10.328263366104
10	5044	1882.854464974849	8.42218752642
10	5045	1883.803048824733	7.767938205013
10	5046	1885.164063929554	9.115359717423
10	5051	1887.46843148495	10.584828820183
10	5060	1892.166400821316	12.719570148037
10	5073	1897.593545611191	15.002296881604
10	5074	1897.873729183796	12.246912997048
10	5077	1899.145155825904	12.779749827718
10	5078	1899.982777333686	10.329803244976
10	5079	1900.208404833063	8.44666319783
10	5080	1901.475399806966	9.253319099458
10	5086	1903.001387643955	6.408321513047
10	5104	1906.871366780362	4.812613409529
10	5113	1910.619019759	4.914553428944
10	5116	1912.063748846961	6.338594832341
10	5130	1917.437374151286	7.244060588329
10	5131	1917.448702426483	5.457254771803
10	5134	1917.8505231672	4.895833398096
10	5135	1919.083258197615	5.91351247302
10	5138	1920.803905799568	6.865427896532
10	5142	1921.495252218383	4.707865772628
10	5145	1921.74460142369	4.196600369279
10	5149	1923.66796152966	2.799496552808
10	5153	1924.96177427509	2.155373736725
10	5154	1925.993991027424	1.582262721772
10	5173	1933.250767342822	1.21811061657
10	5195	1939.054738403364	2.848352437013
10	5196	1939.264918046428	2.463378837076
10	5210	1942.494846602321	3.016685773842
10	5211	1943.381979197649	2.537580166514
10	5216	1944.223128092162	2.442785895402
10	5230	1947.704240081044	5.523609102318
10	5233	1948.678814333707	4.622318548113
10	5240	1949.854457025675	3.830893187009
10	5241	1950.516536193856	2.977704477416
10	5242	1950.730963338275	2.138693710689
10	5246	1951.798571621292	2.36188250677
10	5247	1952.4072315541	1.105555569124
10	5253	1957.733915294026	0.508255728719
10	5279	1964.424901426332	3.659485218244
10	5280	1964.869636517494	2.492371306739
10	5285	1966.354574703058	1.268853406376
10	5288	1967.733405948775	1.503165917587
10	5294	1970.071125100191	1.298527293829
10	5297	1970.436867806599	0.867004027367
10	5300	1970.834811381272	0.466361203454
10	5301	1971.425223325804	0.648688778325
10	5309	1972.459859577925	0.04713257255
10	5312	1973.394007181896	0.969844139303
10	5313	1974.26359057387	1.754006608755
10	5327	1977.293811644018	0.990812112727
10	5350	1984.865273378386	0.976449799953
10	5353	1985.389573821205	1.443807481085
10	5354	1985.488324204076	1.177600519632
10	5366	1989.423396410126	1.881970346477
10	5367	1990.092394064542	1.784266001186
10	5383	1997.510378922354	1.801268317395
10	5384	1998.544952366713	1.900208945085
11	5387	2000	0.492
12	5387	2000	0.405

