file 357188 1671470935                                          
version 2
run Monotonicity_test_recover_rate-499-20221219-18:28:55-16992
attr configname Monotonicity_test_recover_rate
attr datetime 20221219-18:28:55
attr experiment Monotonicity_test_recover_rate
attr inifile omnetpp.ini
attr iterationvars $0=100
attr iterationvarsf 100-
attr measurement $0=100
attr network Network
attr processid 16992
attr repetition 99
attr replication #99
attr resultdir results
attr runnumber 499
attr seedset 99
param *.minion.arrival_mean 2
param *.minion.service_mean 1.5
param *.boss.arrival_mean 2.5
param *.boss.service_mean 0.5
param *.player.recover_rate_x 100
param **.minion.arrival_distribution 0
param **.minion.service_distribution 0
param **.boss.arrival_distribution 0
param **.boss.service_distribution 0

vector 0 Network.player minion_jobs_number_stat:vector ETV
attr source signal_minion_jobs_number
vector 1 Network.player minion_jobs_queue_number_stat:vector ETV
attr source signal_minion_jobs_queue_number
vector 2 Network.player minion_recovered_stat:vector ETV
attr source signal_minion_recovered
vector 3 Network.player minion_defeated_stat:vector ETV
attr source signal_minion_defeated
vector 4 Network.player boss_jobs_number_stat:vector ETV
attr source signal_boss_jobs_number
vector 5 Network.player boss_jobs_queue_number_stat:vector ETV
attr source signal_boss_jobs_queue_number
vector 6 Network.player boss_defeated_stat:vector ETV
attr source signal_boss_defeated
vector 7 Network.player minion_waiting_time_stat:vector ETV
attr source signal_minion_waiting_time
vector 8 Network.player minion_response_time_stat:vector ETV
attr source signal_minion_response_time
vector 9 Network.player boss_waiting_time_stat:vector ETV
attr source signal_boss_waiting_time
vector 10 Network.player boss_response_time_stat:vector ETV
attr source signal_boss_response_time
vector 11 Network.player minion_throughput:vector ETV
attr source signal_minion_throughput
vector 12 Network.player boss_throughput:vector ETV
attr source signal_boss_throughput
0	1994 27017 0 5257 0 1996.569840663799 999 0 104 47225 2926517
1	29011 51189 0 5257 0 1996.569840663799 1893 0 103 87098 5296566
2	80200 17530 0 5252 0 1995.319792749004 628 0 627 196878 82360630
3	97730 25063 0 5248 0 1994.379897365252 895 0 894 400065 238572095
4	122793 20596 0 5252 0 1995.319792749004 790 0 5 999 1567
5	143389 41223 0 5253 0 1996.308165574241 1579 0 4 420 716
6	184612 22105 0 5253 0 1996.308165574241 790 0 789 311655 164034415
7	206717 60575 2 5253 0.736558478414 1996.308165574241 1522 0 115.99870224631 84376.109319944 6221563.7344708
8	267292 35700 5 5248 1.094554611257 1994.379897365252 894 0.042877900635 116.8599756003 51149.164244882 3827412.0193069
9	302992 22556 11 5252 3.380592364244 1995.319792749004 789 0 3.127055719871 115.83498773269 151.53885965741
10	325548 31600 12 5253 3.615640639493 1996.308165574241 789 0.000356792501 4.733683534147 507.13455087076 656.4418855483
11	357148 19 5258 5258 2000 2000 1 0.447 0.447 0.447 0.199809
12	357167 20 5258 5258 2000 2000 1 0.3945 0.3945 0.3945 0.15563025

