file 360447 1671470904                                          
version 2
run Monotonicity_test_recover_rate-350-20221219-18:28:24-16233
attr configname Monotonicity_test_recover_rate
attr datetime 20221219-18:28:24
attr experiment Monotonicity_test_recover_rate
attr inifile omnetpp.ini
attr iterationvars $0=75
attr iterationvarsf 75-
attr measurement $0=75
attr network Network
attr processid 16233
attr repetition 50
attr replication #50
attr resultdir results
attr runnumber 350
attr seedset 50
param *.minion.arrival_mean 2
param *.minion.service_mean 1.5
param *.boss.arrival_mean 2.5
param *.boss.service_mean 0.5
param *.player.recover_rate_x 75
param **.minion.arrival_distribution 0
param **.minion.service_distribution 0
param **.boss.arrival_distribution 0
param **.boss.service_distribution 0

vector 0 Network.player minion_jobs_number_stat:vector ETV
attr source signal_minion_jobs_number
vector 1 Network.player minion_jobs_queue_number_stat:vector ETV
attr source signal_minion_jobs_queue_number
vector 2 Network.player minion_recovered_stat:vector ETV
attr source signal_minion_recovered
vector 3 Network.player minion_defeated_stat:vector ETV
attr source signal_minion_defeated
vector 4 Network.player boss_jobs_number_stat:vector ETV
attr source signal_boss_jobs_number
vector 5 Network.player boss_jobs_queue_number_stat:vector ETV
attr source signal_boss_jobs_queue_number
vector 6 Network.player boss_defeated_stat:vector ETV
attr source signal_boss_defeated
vector 7 Network.player boss_waiting_time_stat:vector ETV
attr source signal_boss_waiting_time
vector 8 Network.player boss_response_time_stat:vector ETV
attr source signal_boss_response_time
vector 9 Network.player minion_waiting_time_stat:vector ETV
attr source signal_minion_waiting_time
vector 10 Network.player minion_response_time_stat:vector ETV
attr source signal_minion_response_time
vector 11 Network.player minion_throughput:vector ETV
attr source signal_minion_throughput
vector 12 Network.player boss_throughput:vector ETV
attr source signal_boss_throughput
0	1990 25844 0 5219 0 1995.455716124384 961 0 45 18656 471670
1	27834 51129 0 5221 0 1998.375569044468 1901 0 44 35202 868166
2	78963 17381 0 5223 0 1998.630911692128 622 0 621 193131 80020611
3	96344 26374 0 5221 0 1998.375569044468 941 0 940 442270 277303290
4	122718 20603 0 5225 0 1998.765930947021 790 0 4 970 1392
5	143321 41209 0 5227 0 1999.254246882955 1579 0 3 362 482
6	184530 22084 0 5227 0 1999.254246882955 790 0 789 311655 164034415
7	206614 22592 2 5226 0.634671237206 1998.882108526147 789 0 2.66839611781 81.63689960083 83.699262704735
8	229206 30766 5 5227 1.576279968198 1999.254246882955 789 3.5511427e-05 4.512230141619 484.63630895379 584.35006446874
9	259972 62032 14 5227 5.898929022548 1999.254246882955 1562 0 60.131728561213 36032.032246396 1154689.7221961
10	322004 38404 15 5221 6.080325003564 1998.375569044468 940 0.081161374682 60.387374749595 23145.397184201 769920.77135899
11	360408 18 5228 5228 2000 2000 1 0.47 0.47 0.47 0.2209
12	360426 20 5228 5228 2000 2000 1 0.3945 0.3945 0.3945 0.15563025

