file 363038 1671470927                                          
version 2
run Monotonicity_test_recover_rate-462-20221219-18:28:47-16800
attr configname Monotonicity_test_recover_rate
attr datetime 20221219-18:28:47
attr experiment Monotonicity_test_recover_rate
attr inifile omnetpp.ini
attr iterationvars $0=100
attr iterationvarsf 100-
attr measurement $0=100
attr network Network
attr processid 16800
attr repetition 62
attr replication #62
attr resultdir results
attr runnumber 462
attr seedset 62
param *.minion.arrival_mean 2
param *.minion.service_mean 1.5
param *.boss.arrival_mean 2.5
param *.boss.service_mean 0.5
param *.player.recover_rate_x 100
param **.minion.arrival_distribution 0
param **.minion.service_distribution 0
param **.boss.arrival_distribution 0
param **.boss.service_distribution 0

vector 0 Network.player minion_jobs_number_stat:vector ETV
attr source signal_minion_jobs_number
vector 1 Network.player minion_jobs_queue_number_stat:vector ETV
attr source signal_minion_jobs_queue_number
vector 2 Network.player minion_recovered_stat:vector ETV
attr source signal_minion_recovered
vector 3 Network.player minion_defeated_stat:vector ETV
attr source signal_minion_defeated
vector 4 Network.player boss_jobs_number_stat:vector ETV
attr source signal_boss_jobs_number
vector 5 Network.player boss_jobs_queue_number_stat:vector ETV
attr source signal_boss_jobs_queue_number
vector 6 Network.player boss_defeated_stat:vector ETV
attr source signal_boss_defeated
vector 7 Network.player boss_waiting_time_stat:vector ETV
attr source signal_boss_waiting_time
vector 8 Network.player boss_response_time_stat:vector ETV
attr source signal_boss_response_time
vector 9 Network.player minion_waiting_time_stat:vector ETV
attr source signal_minion_waiting_time
vector 10 Network.player minion_response_time_stat:vector ETV
attr source signal_minion_response_time
vector 11 Network.player minion_throughput:vector ETV
attr source signal_minion_throughput
vector 12 Network.player boss_throughput:vector ETV
attr source signal_boss_throughput
0	1994 27354 0 5379 0 1999.907914121728 1008 0 131 58483 5049465
1	29348 51145 0 5379 0 1999.907914121728 1886 0 130 106696 9159748
2	80493 17647 0 5376 0 1999.261020088997 630 0 629 198135 83150655
3	98140 24620 0 5374 0 1998.753001595715 879 0 878 385881 225997639
4	122760 21679 0 5376 0 1999.261020088997 830 0 4 1047 1581
5	144439 43339 0 5377 0 1999.370909821029 1659 0 3 436 632
6	187778 23218 0 5377 0 1999.370909821029 830 0 829 344035 190251355
7	210996 23929 2 5376 0.604476272416 1999.261020088997 829 0 2.527473027808 98.763650109067 104.62591777854
8	234925 32322 3 5377 1.111995120466 1999.370909821029 829 0.00032758883 3.569004631978 506.08432628267 608.24464691164
9	267247 59880 8 5377 2.355224110531 1999.370909821029 1508 0 171.72901888903 99103.423969137 9778443.7261644
10	327127 35871 12 5374 3.758549600369 1998.753001595715 878 0.022859585704 172.83376566337 58433.244488752 5866117.5906821
11	362998 19 5380 5380 2000 2000 1 0.439 0.439 0.439 0.192721
12	363017 20 5380 5380 2000 2000 1 0.4145 0.4145 0.4145 0.17181025

