version 2
run Monotonicity_test_recover_rate-360-20221219-18:28:26-16285
attr configname Monotonicity_test_recover_rate
attr datetime 20221219-18:28:26
attr experiment Monotonicity_test_recover_rate
attr inifile omnetpp.ini
attr iterationvars $0=75
attr iterationvarsf 75-
attr measurement $0=75
attr network Network
attr processid 16285
attr repetition 60
attr replication #60
attr resultdir results
attr runnumber 360
attr seedset 60
param *.minion.arrival_mean 2
param *.minion.service_mean 1.5
param *.boss.arrival_mean 2.5
param *.boss.service_mean 0.5
param *.player.recover_rate_x 75
param **.minion.arrival_distribution 0
param **.minion.service_distribution 0
param **.boss.arrival_distribution 0
param **.boss.service_distribution 0

vector 0 Network.player minion_jobs_number_stat:vector ETV
attr source signal_minion_jobs_number
vector 1 Network.player minion_jobs_queue_number_stat:vector ETV
attr source signal_minion_jobs_queue_number
vector 2 Network.player minion_recovered_stat:vector ETV
attr source signal_minion_recovered
vector 3 Network.player minion_defeated_stat:vector ETV
attr source signal_minion_defeated
vector 4 Network.player boss_jobs_number_stat:vector ETV
attr source signal_boss_jobs_number
vector 5 Network.player boss_jobs_queue_number_stat:vector ETV
attr source signal_boss_jobs_queue_number
vector 6 Network.player boss_defeated_stat:vector ETV
attr source signal_boss_defeated
vector 7 Network.player minion_waiting_time_stat:vector ETV
attr source signal_minion_waiting_time
vector 8 Network.player minion_response_time_stat:vector ETV
attr source signal_minion_response_time
vector 9 Network.player boss_waiting_time_stat:vector ETV
attr source signal_boss_waiting_time
vector 10 Network.player boss_response_time_stat:vector ETV
attr source signal_boss_response_time
vector 11 Network.player minion_throughput:vector ETV
attr source signal_minion_throughput
vector 12 Network.player boss_throughput:vector ETV
attr source signal_boss_throughput
0	0	0	0
0	2	0.69488265741	1
0	17	7.541329220487	1
0	22	8.666889833078	2
0	24	8.879579324367	3
0	36	11.942060905579	2
0	39	12.236337079324	3
0	43	12.795534083483	4
0	54	15.886566440069	3
0	56	16.693455615278	4
0	60	17.22845451696	5
0	66	20.376517782633	6
0	68	21.154334546112	7
0	73	23.748967450493	8
0	81	27.150141074743	8
0	102	34.231508303605	9
0	106	35.241978404208	8
0	108	35.676378221532	9
0	114	40.229319627398	9
0	116	40.337912791924	10
0	132	45.447040591361	8
0	149	49.322415620058	4
0	157	50.513382043086	5
0	160	51.66223232748	5
0	171	56.601401488034	3
0	186	60.251304807125	2
0	191	64.693041810991	1
0	196	68.339486520209	1
0	198	69.091901354917	2
0	201	71.753572194607	3
0	210	74.02376996692	2
0	215	78.205537629709	1
0	220	79.585525196755	2
0	224	81.464164824745	1
0	226	81.821200089941	2
0	230	84.144558912947	3
0	233	85.740962341272	4
0	235	87.324777622484	5
0	237	87.413930961573	6
0	239	87.640146937723	7
0	241	88.088931050997	8
0	243	89.117092369584	9
0	245	90.026842512175	10
0	254	91.350761490185	9
0	257	91.43149767544	10
0	259	92.47173192344	11
0	262	94.082766802649	11
0	271	99.218918360408	8
0	273	99.272943489547	9
0	275	99.749404083014	10
0	283	105.426546655294	8
0	288	106.946120175832	9
0	294	110.133333736324	9
0	298	112.459899190945	8
0	301	113.749611478438	8
0	307	115.590177774846	9
0	318	119.261753215656	9
0	326	123.61892475274	9
0	344	131.949636176052	7
0	351	137.580744388702	3
0	353	138.194192394921	4
0	355	139.247886948269	5
0	359	139.800936224485	6
0	365	142.709029716443	4
0	371	146.375942926286	4
0	373	148.437800249989	5
0	379	150.286174675346	5
0	393	152.457262479037	6
0	395	152.890472849074	7
0	398	153.479147879001	7
0	400	153.517309030536	8
0	410	159.053318406556	7
0	417	161.29234457244	6
0	419	161.691820550784	7
0	421	164.332774448103	8
0	423	164.908879842088	9
0	428	166.769987436783	10
0	435	169.835225938454	11
0	439	170.519143455589	11
0	442	171.218076302154	11
0	446	172.530081792602	10
0	449	172.743716329441	10
0	451	172.87654137284	11
0	457	173.779453959103	11
0	466	179.540876345285	8
0	487	185.382646166974	9
0	513	193.902911983628	3
0	520	195.149283457931	2
0	524	197.753486546117	1
0	529	198.901643088541	2
0	535	201.534178512971	1
0	545	204.978082421426	1
0	560	211.245399824886	1
0	563	214.429326528509	1
0	566	215.492442720866	1
0	570	215.944748824022	2
0	573	216.608240056335	3
0	577	217.307619492499	2
0	579	219.682824106945	3
0	584	220.405620616034	4
0	587	221.339447132541	4
0	589	221.766479781828	5
0	591	223.071393024387	6
0	599	227.506237491284	6
0	609	230.076897878702	6
0	631	241.516562695656	5
0	639	242.347739160494	5
0	643	243.454340862581	5
0	647	245.837965397036	4
0	653	250.894775171419	1
0	655	251.190567318029	2
0	659	252.207619812068	3
0	671	257.933553262058	4
0	675	261.586668827073	3
0	677	261.612220974395	4
0	679	262.431349094009	5
0	682	264.002523389638	5
0	685	264.877223487575	5
0	692	270.7700719717	4
0	696	273.675027519337	3
0	716	289.526168308414	1
0	724	290.340444889395	2
0	728	292.038911150649	3
0	741	298.034757792999	2
0	745	299.968411046567	2
0	750	302.127009595616	3
0	752	302.214721937709	4
0	762	309.003985291935	2
0	764	309.431376529093	3
0	767	309.850238387885	4
0	771	310.225530456778	5
0	774	312.135436661634	6
0	778	316.526437188276	5
0	783	317.08093955853	6
0	790	321.254713512809	5
0	792	322.124387122743	6
0	794	322.215208790092	7
0	806	328.530511279517	5
0	808	328.889027973731	6
0	811	329.958421945395	7
0	816	330.312554135493	8
0	822	332.931067119899	9
0	828	336.60220041364	9
0	830	336.827907059428	10
0	841	341.095766052493	7
0	845	342.089633334622	8
0	847	342.298567476974	9
0	850	342.653219764303	10
0	856	344.878404320038	11
0	859	346.27803496247	11
0	861	346.702583026039	12
0	864	348.286310978876	12
0	870	350.689480505663	9
0	872	350.78834793095	10
0	878	352.891239183704	10
0	882	354.309026285121	9
0	886	356.681555115804	8
0	891	358.015127447851	9
0	893	358.057347909377	10
0	895	359.537659790415	11
0	897	360.409016194244	12
0	904	362.571103598718	11
0	906	362.604754973083	12
0	913	368.176270410179	8
0	916	368.946950995111	8
0	918	370.196525059139	9
0	920	370.338659309642	10
0	926	374.432098189317	10
0	930	374.794656187781	11
0	950	386.354659454049	1
0	952	387.379449817568	2
0	956	390.809024229728	1
0	959	391.64933335984	1
0	962	393.21280410074	1
0	964	393.842698316142	2
0	966	394.064496881773	3
0	970	397.246383984262	2
0	977	399.166662078885	3
0	983	401.057269493453	4
0	989	402.920399421447	3
0	998	405.023490191079	4
0	1002	405.307637244338	5
0	1010	409.719805592638	6
0	1012	409.836309744904	7
0	1019	411.786165153759	7
0	1022	413.078036701806	7
0	1035	417.524920301397	8
0	1037	417.572690850776	9
0	1041	419.659540373727	9
0	1053	423.797930577108	10
0	1062	428.827960121435	6
0	1066	429.581543897607	7
0	1073	432.391167140864	7
0	1075	433.909581012014	8
0	1078	434.241658775839	8
0	1080	434.784474406003	9
0	1084	438.42847580738	8
0	1086	438.812519697659	9
0	1090	440.09608079352	10
0	1095	441.544905999447	11
0	1098	442.754716901142	12
0	1101	444.293367324961	12
0	1106	445.807587866359	13
0	1112	448.539566449267	13
0	1117	452.155838712484	13
0	1122	453.384447509604	14
0	1128	456.075581232431	15
0	1137	458.493961572108	14
0	1141	459.956279314579	14
0	1144	460.363477668521	14
0	1152	463.565960393623	12
0	1164	467.561187302739	11
0	1168	468.148409051901	12
0	1171	468.444650912103	13
0	1182	472.717789761307	11
0	1189	473.862598247275	11
0	1197	479.039107916408	9
0	1200	481.714353205259	9
0	1202	482.525554056281	10
0	1204	482.689613563001	11
0	1209	484.042794557491	12
0	1211	484.448020557903	13
0	1213	484.621384976878	14
0	1234	495.490832160866	11
0	1238	496.731781664279	12
0	1255	500.676590985896	13
0	1259	501.744809904796	13
0	1266	503.40644579679	14
0	1268	503.75086452177	15
0	1274	506.94726559387	16
0	1276	507.096753167936	17
0	1284	509.115447491129	17
0	1295	516.795686035	16
0	1298	518.895832085805	16
0	1302	522.18649084237	15
0	1304	525.219540389084	16
0	1307	525.733501046814	16
0	1311	529.033395490103	15
0	1317	532.130766353958	12
0	1324	534.74528567809	11
0	1326	535.254444246519	12
0	1335	539.744919939461	12
0	1339	540.074903563299	13
0	1341	540.098420032657	14
0	1343	540.745299833336	15
0	1347	541.364300883885	16
0	1349	541.400276697977	17
0	1354	543.548639434852	18
0	1356	543.585504176202	19
0	1360	544.386445550417	20
0	1362	546.468316925354	21
0	1364	547.503514239205	22
0	1377	549.867107533361	23
0	1380	550.010785649336	24
0	1382	550.524566867303	25
0	1390	552.491882738927	25
0	1394	552.939823656357	26
0	1401	557.1211165081	24
0	1412	559.881390242339	24
0	1415	560.38831158734	25
0	1418	561.174094459645	25
0	1420	561.635716587592	26
0	1426	564.1025862667	26
0	1439	569.394213197531	22
0	1448	571.171007885162	21
0	1450	571.448834419531	22
0	1457	576.361025063858	22
0	1464	579.709494638386	21
0	1467	583.539622627551	21
0	1474	587.126269543323	20
0	1477	588.278055788213	20
0	1482	589.520954544459	20
0	1484	591.712191394521	21
0	1491	594.906108300142	21
0	1493	594.971276667694	22
0	1498	596.450866852477	23
0	1500	596.676600755286	24
0	1511	601.700579618472	22
0	1516	603.307102958403	22
0	1519	603.714930205474	23
0	1521	604.821333287131	24
0	1530	606.781001614779	24
0	1534	607.500627486656	25
0	1539	608.432633475248	26
0	1550	609.804873909436	27
0	1553	611.148304178892	28
0	1557	611.38413885981	29
0	1565	613.543380194149	30
0	1571	614.322653244881	31
0	1573	614.88331484624	32
0	1577	616.016132647134	31
0	1584	618.929583555425	30
0	1586	619.285430752383	31
0	1589	620.545326140106	31
0	1592	621.019907099297	31
0	1594	623.976787104712	32
0	1601	624.627767227532	33
0	1603	624.880409349551	34
0	1610	625.936453952841	35
0	1616	628.991740924662	36
0	1619	629.742254169924	37
0	1641	636.151538784616	33
0	1643	636.231375205383	34
0	1647	637.246485746772	33
0	1657	642.016756106515	32
0	1659	642.662786730018	33
0	1661	642.916445230691	34
0	1668	646.011654311997	35
0	1671	647.301881918647	36
0	1676	648.833650018626	34
0	1682	650.783121909921	34
0	1688	654.67165366108	31
0	1698	657.917468348144	30
0	1709	660.93276723206	27
0	1716	661.919511185232	28
0	1725	666.515986651384	27
0	1727	668.078936098214	28
0	1730	668.58055345329	28
0	1738	671.463964737836	28
0	1742	672.43676795107	28
0	1744	672.683543593772	29
0	1750	673.796602833992	30
0	1753	674.335334239701	31
0	1759	678.212883946795	31
0	1761	678.3194033194	32
0	1767	681.122271998929	33
0	1769	681.156614325347	34
0	1775	681.805908027308	34
0	1793	693.941186289653	28
0	1802	699.510312842282	25
0	1804	700.075769345633	26
0	1806	700.098970110062	27
0	1808	700.54709700384	28
0	1811	701.923548899478	28
0	1815	702.723902879466	29
0	1819	705.17921463586	29
0	1822	707.682852082939	29
0	1825	708.329353105129	29
0	1833	711.473066779495	27
0	1835	711.719184189249	28
0	1839	712.099690190478	29
0	1842	713.029545300396	30
0	1844	713.730184040653	31
0	1847	715.197457961867	31
0	1849	716.676322354396	32
0	1857	718.531960482992	32
0	1861	720.136536071014	32
0	1863	720.339046120335	33
0	1868	723.543740296677	33
0	1871	723.700856533533	34
0	1874	726.242508270071	34
0	1880	727.988230986285	34
0	1890	730.784082175991	33
0	1903	733.534717138397	32
0	1907	735.13994299102	31
0	1910	736.416271596693	31
0	1913	738.498968073479	31
0	1918	740.167376001954	32
0	1922	740.505938344248	33
0	1925	741.966855189516	34
0	1929	742.396463201937	33
0	1933	744.370878328315	32
0	1935	744.436577381182	33
0	1938	745.247356259946	33
0	1940	746.221030071964	34
0	1953	752.405254643405	30
0	1962	754.512887069699	30
0	1965	755.738469342166	30
0	1967	756.458840316816	31
0	1990	764.936293198453	29
0	2011	771.375256398224	26
0	2017	773.285932947762	26
0	2023	775.730491877671	26
0	2026	776.936848317173	26
0	2031	777.974856415614	27
0	2033	778.559792629437	28
0	2035	778.620751903059	29
0	2041	780.814101072242	29
0	2043	781.293515058	30
0	2045	781.399722317809	31
0	2047	783.002883149795	32
0	2049	783.038231608358	33
0	2055	785.973297959481	32
0	2060	790.26835801441	31
0	2068	793.635049216657	31
0	2070	793.687190703045	32
0	2073	794.685685491163	33
0	2075	795.215721595402	34
0	2080	796.155369673541	34
0	2083	796.916819328447	35
0	2091	801.801484862268	35
0	2097	803.098138505558	36
0	2099	803.546178343222	37
0	2103	804.44395091784	38
0	2105	804.50447544813	39
0	2112	806.224808958097	39
0	2115	806.255730301288	39
0	2118	808.277934996624	39
0	2126	813.873441319942	39
0	2135	817.184060846152	40
0	2141	819.65255442194	40
0	2144	819.975867844057	40
0	2149	820.94512969039	41
0	2154	826.345358117392	39
0	2156	826.36352822214	40
0	2158	828.810946805073	41
0	2167	832.842092793364	38
0	2170	833.200737017191	38
0	2172	834.778697610728	39
0	2175	836.263506450825	39
0	2179	836.424380767718	40
0	2183	838.787555670042	40
0	2187	840.58314274417	39
0	2189	840.856988949684	40
0	2201	842.749541361149	40
0	2206	846.402512404769	38
0	2209	847.262575658644	38
0	2214	847.533832102075	39
0	2216	847.851850559665	40
0	2219	849.256654904001	40
0	2226	854.414776083113	39
0	2235	856.466807545965	39
0	2239	857.410244820368	38
0	2244	858.192164223085	39
0	2246	858.659944387346	40
0	2251	861.960683815857	38
0	2253	861.976770798232	39
0	2255	862.911165496971	40
0	2259	863.282272006878	41
0	2268	865.370752031407	41
0	2270	866.191988476141	42
0	2275	869.074282949263	41
0	2283	870.362213732074	42
0	2298	876.980715758122	39
0	2301	881.126732538825	39
0	2305	881.324945029895	40
0	2315	885.392564622512	40
0	2324	887.115833439095	40
0	2337	893.324502759549	39
0	2341	894.359785092883	40
0	2358	900.115135648569	39
0	2360	901.453851628621	40
0	2366	904.817607793099	39
0	2369	905.003430481017	40
0	2371	906.36726713743	41
0	2378	912.678248927577	40
0	2382	913.407163148708	41
0	2393	920.507759225055	40
0	2396	921.838755812214	40
0	2405	923.848460720059	40
0	2408	924.794074933074	40
0	2410	926.664305369602	41
0	2420	929.938496892572	37
0	2422	930.358089623064	38
0	2425	930.81664841137	38
0	2427	931.508688526803	39
0	2429	932.511077548064	40
0	2436	936.648836590226	41
0	2439	937.192253993692	42
0	2454	941.426954784132	42
0	2462	943.19880025844	43
0	2464	943.733058167184	44
0	2471	947.035092195468	43
0	2476	949.404650870676	43
0	2481	950.189348087257	44
0	2483	950.490958029841	45
0	2487	953.008847404791	45
0	2490	953.567712154119	45
0	2520	964.367854689131	42
0	2522	964.932573568899	43
0	2525	965.275232996563	43
0	2527	965.328137939151	44
0	2530	965.720820270239	44
0	2536	969.570884510573	44
0	2540	970.873557907364	45
0	2542	971.240843822575	46
0	2544	972.094157186685	47
0	2559	978.066757002825	42
0	2563	980.41823166601	41
0	2566	980.498488507363	41
0	2573	981.692112593409	41
0	2577	982.649792767058	42
0	2585	987.540469176058	42
0	2588	990.001962270544	43
0	2590	990.592216537618	44
0	2593	990.730110079753	44
0	2607	997.741361659515	42
0	2610	1000.554291271069	42
0	2612	1000.654210934508	43
0	2625	1005.336625182368	42
0	2628	1005.888546319502	42
0	2630	1005.916160673936	43
0	2641	1009.28859318462	43
0	2650	1011.60737232071	41
0	2652	1011.963231650398	42
0	2667	1017.497601071635	39
0	2672	1019.829175466138	40
0	2677	1022.021496435852	41
0	2679	1022.115214749671	42
0	2681	1024.219754265361	43
0	2685	1025.463195329943	44
0	2693	1027.331847126172	43
0	2698	1028.575004603182	44
0	2700	1029.624925298392	45
0	2702	1029.751480243105	46
0	2704	1030.909782927047	47
0	2710	1033.810995791255	47
0	2717	1036.827482996214	43
0	2725	1038.771186905371	44
0	2728	1040.121219459955	44
0	2730	1040.616195465638	45
0	2735	1043.938342747138	45
0	2741	1047.17560339161	46
0	2745	1047.671372057485	47
0	2752	1050.332237431141	47
0	2754	1053.160053800493	48
0	2763	1061.380820448416	48
0	2774	1066.069203791816	45
0	2777	1066.75637522606	46
0	2779	1066.861100639049	47
0	2783	1068.25829834417	48
0	2802	1077.08114549375	42
0	2804	1078.199711336248	43
0	2808	1079.204387511081	44
0	2821	1081.547151990306	45
0	2826	1083.061498344282	45
0	2828	1083.161675792021	46
0	2830	1084.282201659082	47
0	2832	1085.03654772121	48
0	2834	1086.21004353009	49
0	2839	1087.89037149714	50
0	2846	1090.055139528522	49
0	2849	1090.248621463649	49
0	2851	1090.778886837812	50
0	2873	1096.993223622512	43
0	2880	1100.367481439057	42
0	2883	1101.937886116387	42
0	2903	1111.696616774526	40
0	2906	1112.80622733125	40
0	2909	1114.137282699327	40
0	2915	1116.296262916671	40
0	2918	1117.172939188213	40
0	2921	1117.898564099275	40
0	2923	1118.86300531313	41
0	2927	1121.780190439902	40
0	2937	1128.128707529152	39
0	2944	1130.41414536796	38
0	2947	1132.055625403681	38
0	2958	1138.444934629914	36
0	2960	1140.455957434409	37
0	2971	1144.72748837172	38
0	2985	1148.921900623674	36
0	2993	1150.894807732387	37
0	3002	1153.62732420447	37
0	3008	1155.769812728223	38
0	3019	1161.176803612888	35
0	3021	1161.418572987943	36
0	3023	1163.914147507134	37
0	3029	1165.444383045829	37
0	3031	1166.404611256399	38
0	3033	1166.745483846054	39
0	3042	1170.94292336337	36
0	3045	1171.173738646306	36
0	3047	1171.674427842237	37
0	3049	1171.907521802281	38
0	3051	1172.884088336146	39
0	3053	1173.232826279295	40
0	3065	1178.590541757389	40
0	3067	1178.621085525034	41
0	3069	1179.058734381291	42
0	3072	1181.925733453339	42
0	3076	1182.781517649772	43
0	3088	1187.219140751202	41
0	3090	1188.498012811091	42
0	3092	1188.766129951484	43
0	3107	1195.950337958087	37
0	3111	1197.009007337572	38
0	3114	1199.144816549811	39
0	3116	1199.9403365171	40
0	3125	1204.063415642026	37
0	3129	1204.799912269127	38
0	3131	1205.195546890756	39
0	3133	1205.220295147917	40
0	3138	1206.640405900745	41
0	3144	1207.486703870245	42
0	3146	1207.573887267744	43
0	3150	1208.620088904654	42
0	3152	1208.688162916681	43
0	3155	1208.996107010765	43
0	3159	1209.523899333714	44
0	3163	1211.292689263348	44
0	3173	1217.264784132554	43
0	3178	1220.06305758651	44
0	3180	1220.861891119608	45
0	3182	1221.40724856568	46
0	3184	1221.734053467961	47
0	3186	1222.131351540151	48
0	3194	1224.480364861178	43
0	3196	1225.757161307913	44
0	3198	1225.954884319533	45
0	3200	1226.278248937869	46
0	3211	1228.10336191126	46
0	3214	1228.446720361657	47
0	3221	1230.569030223202	46
0	3227	1234.37502833384	43
0	3231	1237.607003728329	42
0	3235	1237.974662392332	43
0	3238	1239.083322784972	44
0	3256	1245.232180808358	44
0	3259	1246.172041354653	44
0	3263	1250.841355760902	43
0	3265	1251.184249784501	44
0	3267	1251.19827127744	45
0	3269	1251.75109208526	46
0	3275	1253.998525642504	46
0	3277	1257.172544349794	47
0	3280	1260.887378670087	47
0	3288	1266.46763993636	45
0	3290	1266.980899049775	46
0	3292	1267.337378063268	47
0	3294	1267.397597891876	48
0	3296	1267.517951543994	49
0	3298	1268.005384857697	50
0	3306	1269.883656904324	50
0	3312	1272.873489194361	48
0	3325	1276.383593294225	49
0	3327	1276.818796372692	50
0	3332	1277.912835166254	51
0	3343	1281.836274954392	49
0	3351	1289.359614452799	48
0	3354	1290.516706925469	48
0	3357	1290.833805386435	48
0	3367	1295.342866565592	47
0	3374	1296.856898425794	46
0	3376	1297.389962414036	47
0	3378	1298.022990830448	48
0	3381	1298.637407386778	48
0	3383	1301.43483798273	49
0	3387	1301.719721149868	50
0	3393	1302.813776802912	51
0	3395	1303.379673909011	52
0	3398	1305.304650318528	52
0	3400	1305.412336441666	53
0	3409	1311.245404039041	50
0	3411	1311.742132007797	51
0	3414	1312.440969595629	51
0	3417	1313.738028442341	51
0	3419	1313.790931417847	52
0	3431	1316.053636994362	52
0	3433	1316.663602592742	53
0	3435	1317.216291078212	54
0	3437	1317.62223356743	55
0	3439	1318.159968375097	56
0	3441	1318.210717357537	57
0	3444	1318.406795209854	57
0	3447	1322.423773337277	57
0	3452	1323.20395481883	58
0	3464	1328.821429655569	55
0	3468	1332.989737813024	54
0	3473	1334.016124874999	52
0	3476	1336.413374007106	52
0	3482	1338.259045251255	52
0	3484	1338.489920536218	53
0	3486	1338.917844366064	54
0	3490	1339.172149128696	55
0	3493	1339.830669140959	56
0	3503	1342.686851684208	57
0	3512	1343.945981489226	58
0	3515	1344.427722746499	58
0	3519	1345.248634955149	57
0	3524	1346.43410918425	58
0	3532	1352.577901773708	58
0	3536	1355.054070591381	58
0	3542	1356.923830293322	55
0	3547	1359.897447292022	56
0	3549	1360.185897759543	57
0	3561	1366.542911392488	54
0	3565	1367.386868628518	55
0	3568	1367.561128902484	56
0	3571	1368.734669568779	56
0	3579	1372.616473720599	57
0	3597	1378.800134277276	56
0	3603	1379.786795918277	57
0	3611	1383.874993365666	55
0	3617	1386.316843097933	55
0	3621	1387.649688208088	56
0	3623	1387.968113808121	57
0	3626	1388.232388899742	58
0	3635	1391.237507755533	58
0	3638	1391.936483947393	58
0	3643	1393.896172272459	59
0	3649	1394.822772181701	59
0	3652	1396.093162616524	59
0	3656	1399.089720196007	58
0	3665	1402.574750796612	58
0	3673	1405.364346741402	58
0	3676	1406.920466403308	59
0	3678	1407.497228934147	60
0	3683	1408.938977081158	61
0	3691	1412.855682771179	62
0	3694	1414.529326582973	62
0	3696	1415.372918226806	63
0	3705	1418.293692791515	63
0	3707	1418.358146739733	64
0	3709	1418.366335576426	65
0	3712	1418.725141072934	65
0	3717	1419.458833678904	66
0	3719	1420.63149461111	67
0	3722	1420.834158685062	67
0	3750	1430.696864864933	62
0	3755	1430.933528715443	63
0	3757	1430.98361576624	64
0	3760	1432.088086330763	65
0	3762	1432.14800064618	66
0	3764	1432.562339660518	67
0	3767	1432.716437654003	67
0	3771	1434.528135839311	68
0	3775	1435.076331290562	68
0	3778	1435.777366309445	68
0	3781	1436.354215840083	68
0	3784	1438.924016325777	68
0	3791	1443.163755784458	67
0	3797	1446.977123356772	67
0	3799	1447.410597772731	68
0	3807	1451.469896721155	63
0	3817	1454.790831493115	59
0	3826	1458.945830559128	59
0	3829	1460.213572201193	59
0	3835	1464.342841676897	59
0	3839	1465.451939926221	60
0	3845	1466.093032578557	61
0	3848	1466.348810847114	62
0	3852	1468.480368838968	63
0	3861	1471.196392686939	63
0	3865	1472.35506158723	62
0	3880	1477.178213721025	59
0	3882	1477.216745647428	60
0	3884	1477.290555701494	61
0	3886	1481.432347467162	62
0	3890	1484.108338870014	61
0	3895	1484.685308658994	61
0	3903	1488.701228874148	60
0	3906	1489.760651721131	60
0	3912	1491.448166108828	60
0	3914	1491.869265557321	61
0	3926	1497.008095342488	61
0	3930	1499.210752847022	60
0	3932	1499.728020207566	61
0	3941	1506.760420000084	58
0	3946	1509.3605981231	56
0	3951	1512.583715063338	54
0	3957	1515.330125212184	54
0	3962	1517.264656081151	55
0	3964	1517.641443713899	56
0	3966	1517.862159074429	57
0	3968	1517.900523680537	58
0	3970	1520.217932278341	59
0	3984	1527.63474215194	57
0	3987	1528.055296741374	57
0	3989	1529.487347461976	58
0	3991	1529.884449282068	59
0	3995	1531.068499373637	60
0	3998	1531.204235019062	61
0	4001	1533.084447260386	61
0	4003	1533.688928788078	62
0	4005	1533.812655987736	63
0	4007	1535.983326502308	64
0	4009	1538.821151294327	65
0	4011	1539.121309101379	66
0	4014	1539.984139804012	66
0	4019	1540.361980327119	67
0	4023	1541.836194434167	68
0	4029	1543.481325499699	69
0	4034	1546.7045116873	70
0	4037	1547.344091631626	70
0	4041	1547.553507170696	71
0	4053	1551.274917326915	71
0	4055	1552.000770139002	72
0	4057	1552.238911723316	73
0	4059	1552.321336134008	74
0	4064	1553.795472181164	75
0	4067	1553.972769478898	76
0	4069	1555.580742405705	77
0	4079	1560.874114269283	76
0	4084	1561.383805731219	77
0	4086	1561.844115686354	78
0	4094	1562.906233380421	78
0	4097	1563.325077375211	79
0	4107	1567.193609471399	80
0	4110	1567.836897937594	81
0	4123	1570.345391047976	81
0	4126	1571.271035014015	82
0	4128	1572.990448367594	83
0	4140	1576.968883310426	84
0	4150	1579.152023382052	83
0	4160	1585.073971886905	82
0	4167	1589.584134838685	81
0	4169	1589.751567646996	82
0	4174	1593.144839620975	82
0	4179	1597.596197157949	81
0	4186	1601.739430678623	82
0	4190	1604.060147883875	82
0	4199	1610.539473612449	79
0	4203	1611.001642606376	78
0	4218	1616.052358598804	78
0	4222	1617.78447899544	77
0	4226	1618.905403340756	76
0	4232	1621.678407518853	76
0	4234	1621.942250638559	77
0	4236	1623.224146130194	78
0	4238	1623.71576913199	79
0	4240	1624.72078476173	80
0	4246	1627.46170722785	80
0	4248	1628.04150527978	81
0	4251	1628.689497190424	81
0	4256	1631.197208779792	79
0	4258	1631.935987910667	80
0	4264	1634.164760526455	80
0	4288	1643.250905259781	77
0	4290	1644.157848036726	78
0	4292	1644.227281540498	79
0	4301	1648.07641150384	76
0	4303	1649.036505015637	77
0	4314	1652.473070904919	78
0	4321	1653.856056941569	78
0	4323	1654.173588652353	79
0	4331	1658.560902749259	79
0	4333	1659.200227867404	80
0	4336	1660.25883259655	80
0	4339	1662.084458765367	80
0	4354	1670.891110124197	77
0	4366	1677.655277753723	76
0	4373	1678.560337072571	77
0	4375	1678.586421091112	78
0	4382	1680.052467188883	79
0	4389	1682.837835723089	78
0	4391	1683.364491718856	79
0	4400	1688.832240650895	79
0	4404	1690.287203534391	80
0	4407	1691.39414970171	81
0	4410	1691.913187403027	81
0	4416	1696.547940538863	81
0	4418	1697.362429421739	82
0	4427	1703.675339384954	79
0	4431	1703.942412454159	80
0	4433	1704.040074926743	81
0	4439	1705.261887289233	82
0	4444	1706.950573600917	83
0	4446	1707.75308202306	84
0	4454	1708.94759306703	84
0	4456	1709.249465692485	85
0	4467	1714.250206119977	84
0	4469	1715.372632324225	85
0	4471	1716.760562612313	86
0	4473	1717.006689767564	87
0	4479	1720.448395230898	87
0	4499	1727.439952836694	87
0	4501	1727.628358294152	88
0	4507	1730.870240146667	86
0	4516	1736.737770447674	86
0	4518	1736.997664591167	87
0	4529	1744.416349149139	85
0	4531	1745.522934307543	86
0	4533	1745.89429405867	87
0	4535	1746.15976165901	88
0	4537	1748.883432106842	89
0	4543	1752.153842836033	89
0	4545	1752.291604920394	90
0	4547	1752.922971694575	91
0	4549	1753.135600398029	92
0	4554	1755.842878842306	93
0	4556	1756.046044466108	94
0	4558	1756.228870578323	95
0	4561	1756.673766746576	95
0	4573	1764.933837180045	93
0	4575	1765.028053701098	94
0	4596	1771.184869872978	93
0	4598	1771.81960213588	94
0	4607	1777.011134783481	91
0	4614	1780.324469976395	91
0	4623	1784.33761542394	90
0	4625	1785.178057165306	91
0	4627	1785.832896922415	92
0	4630	1786.286267284062	92
0	4632	1786.331804460445	93
0	4637	1788.97401494025	94
0	4640	1790.054333003162	94
0	4642	1791.858839235542	95
0	4644	1792.204567226224	96
0	4646	1792.208293861041	97
0	4648	1792.654755243137	98
0	4650	1792.836899688776	99
0	4656	1794.66573226646	99
0	4662	1795.918593116198	99
0	4676	1801.380654778452	100
0	4687	1804.546119592276	101
0	4690	1809.025313407981	101
0	4692	1811.153108168137	102
0	4701	1813.312605963784	102
0	4707	1814.447116621958	102
0	4709	1816.477549098778	103
0	4711	1817.374043588989	104
0	4726	1825.130634019125	101
0	4735	1828.166500745231	101
0	4737	1828.218896075161	102
0	4745	1833.879720211354	97
0	4750	1834.997396492377	98
0	4752	1837.833634195447	99
0	4754	1837.879061512761	100
0	4764	1841.762075123409	99
0	4766	1842.307167104072	100
0	4770	1842.360642741234	101
0	4776	1844.430517552589	102
0	4778	1845.070529129724	103
0	4794	1852.152631295182	102
0	4796	1853.809488909925	103
0	4801	1855.647108962356	103
0	4819	1861.181053974237	101
0	4821	1863.69873185323	102
0	4825	1865.588073027359	101
0	4827	1866.102944315821	102
0	4833	1868.936757701637	101
0	4837	1869.144619220912	102
0	4850	1872.47764367387	103
0	4852	1872.752017430394	104
0	4855	1873.682474692795	104
0	4859	1875.88469422017	103
0	4864	1879.217785632628	103
0	4868	1880.980766946293	103
0	4870	1881.599617836117	104
0	4875	1882.850044167894	105
0	4877	1883.09514259926	106
0	4879	1883.11235888034	107
0	4881	1883.253842732748	108
0	4891	1887.689010436305	107
0	4893	1887.784817704616	108
0	4895	1888.685565396534	109
0	4898	1889.176261981239	109
0	4900	1889.356821268289	110
0	4907	1891.922945452433	109
0	4909	1892.435052802091	110
0	4935	1902.821646007932	108
0	4946	1906.924367791007	106
0	4948	1907.728465011762	107
0	4951	1911.952468992716	107
0	4953	1912.244450421893	108
0	4955	1912.98966827305	109
0	4958	1914.999343628493	109
0	4961	1916.489814732526	109
0	4969	1917.963813245864	109
0	4972	1918.278299483868	110
0	4982	1922.676782183453	106
0	4984	1923.177079991408	107
0	4994	1927.760043042168	105
0	4997	1929.678588009613	106
0	5000	1930.030814131623	106
0	5010	1932.195314468924	104
0	5024	1937.262555530414	102
0	5026	1937.537547040705	103
0	5030	1940.628438584576	103
0	5032	1940.64229452649	104
0	5036	1943.91459693529	103
0	5039	1944.707887351225	103
0	5041	1945.073068490141	104
0	5046	1946.958879072992	105
0	5055	1948.715979684973	105
0	5062	1950.5648448579	106
0	5068	1953.553123589243	107
0	5071	1959.341081675722	107
0	5076	1960.727135175007	108
0	5078	1962.412296595139	109
0	5087	1964.96659867449	108
0	5090	1966.635036448321	109
0	5092	1966.93078204882	110
0	5095	1967.453970832875	110
0	5097	1967.997073073621	111
0	5109	1970.417237834041	110
0	5111	1970.787657859042	111
0	5125	1975.609067289961	107
0	5127	1975.851184214343	108
0	5147	1982.771573377751	105
0	5150	1983.577177345949	106
0	5152	1984.539598604976	107
0	5154	1984.92587169578	108
0	5156	1986.04189645908	109
0	5158	1987.677325619092	110
0	5160	1988.389964268113	111
0	5170	1994.935300884494	110
0	5175	1996.148374779475	111
0	5177	1996.471899617038	112
1	0	0	0
1	2	0.69488265741	0
1	3	2.126445726163	0
1	17	7.541329220487	0
1	22	8.666889833078	1
1	24	8.879579324367	2
1	28	11.120087717861	2
1	29	11.16510976445	1
1	36	11.942060905579	1
1	39	12.236337079324	2
1	43	12.795534083483	3
1	45	13.213253555022	3
1	52	14.256401491745	2
1	54	15.886566440069	2
1	56	16.693455615278	3
1	60	17.22845451696	4
1	66	20.376517782633	5
1	68	21.154334546112	6
1	73	23.748967450493	7
1	74	24.349106880655	7
1	81	27.150141074743	7
1	102	34.231508303605	8
1	103	34.973263840798	8
1	104	34.973854348939	7
1	106	35.241978404208	7
1	108	35.676378221532	8
1	109	38.906314464178	8
1	114	40.229319627398	8
1	116	40.337912791924	9
1	117	41.572937552111	9
1	118	43.238508102212	8
1	122	44.303556202022	7
1	132	45.447040591361	7
1	134	46.003066860753	7
1	135	46.450298509265	6
1	139	46.915538207766	5
1	140	47.340911442064	4
1	141	47.959634692288	3
1	149	49.322415620058	3
1	157	50.513382043086	4
1	158	50.645968378586	4
1	160	51.66223232748	4
1	161	52.340901075385	4
1	165	53.406228188651	3
1	166	53.88009253855	2
1	171	56.601401488034	2
1	172	57.572761886011	2
1	182	59.633533544677	1
1	186	60.251304807125	1
1	188	62.205617309653	1
1	189	62.21948592934	0
1	191	64.693041810991	0
1	192	66.083377507696	0
1	196	68.339486520209	0
1	198	69.091901354917	1
1	201	71.753572194607	2
1	202	72.957055914893	2
1	203	73.278500184779	1
1	210	74.02376996692	1
1	212	77.232578748626	1
1	213	78.068651066292	0
1	215	78.205537629709	0
1	220	79.585525196755	1
1	221	79.875446621131	1
1	222	80.393446146443	0
1	224	81.464164824745	0
1	226	81.821200089941	1
1	230	84.144558912947	2
1	233	85.740962341272	3
1	235	87.324777622484	4
1	237	87.413930961573	5
1	239	87.640146937723	6
1	241	88.088931050997	7
1	243	89.117092369584	8
1	245	90.026842512175	9
1	246	90.115054727362	9
1	247	90.23565087554	8
1	254	91.350761490185	8
1	257	91.43149767544	9
1	259	92.47173192344	10
1	260	93.920064641528	10
1	262	94.082766802649	10
1	263	94.307393539461	10
1	264	94.486523363695	9
1	268	98.685970563911	8
1	269	99.094616558338	7
1	271	99.218918360408	7
1	273	99.272943489547	8
1	275	99.749404083014	9
1	276	100.174913151968	9
1	280	103.025062210311	8
1	281	104.401243975972	7
1	283	105.426546655294	7
1	288	106.946120175832	8
1	289	107.218883945341	8
1	294	110.133333736324	8
1	295	110.48327337022	8
1	296	111.677725652385	7
1	298	112.459899190945	7
1	299	113.31534008516	7
1	301	113.749611478438	7
1	307	115.590177774846	8
1	316	117.585267667802	8
1	318	119.261753215656	8
1	319	120.652903909387	8
1	326	123.61892475274	8
1	328	124.131547996651	8
1	329	124.325190949045	7
1	330	124.426349016143	6
1	344	131.949636176052	6
1	345	133.027513217784	6
1	346	133.241144240839	5
1	347	134.026156078522	4
1	348	136.458314290201	3
1	349	136.83873632424	2
1	351	137.580744388702	2
1	353	138.194192394921	3
1	355	139.247886948269	4
1	359	139.800936224485	5
1	361	140.869915835153	5
1	362	142.20235040626	4
1	363	142.377873409959	3
1	365	142.709029716443	3
1	369	143.761663099147	3
1	371	146.375942926286	3
1	373	148.437800249989	4
1	377	149.95200447508	4
1	379	150.286174675346	4
1	393	152.457262479037	5
1	395	152.890472849074	6
1	396	153.311618527634	6
1	398	153.479147879001	6
1	400	153.517309030536	7
1	401	155.580752058063	7
1	408	159.025458383969	6
1	410	159.053318406556	6
1	414	159.662129084207	6
1	415	160.11956634317	5
1	417	161.29234457244	5
1	419	161.691820550784	6
1	421	164.332774448103	7
1	423	164.908879842088	8
1	428	166.769987436783	9
1	435	169.835225938454	10
1	437	170.470620137039	10
1	439	170.519143455589	10
1	440	170.956499738762	10
1	442	171.218076302154	10
1	443	171.69702373906	10
1	444	171.945762900807	9
1	446	172.530081792602	9
1	447	172.624286974566	9
1	449	172.743716329441	9
1	451	172.87654137284	10
1	452	173.10905196592	10
1	457	173.779453959103	10
1	461	175.606599741977	10
1	462	176.589489724447	9
1	463	179.216158578162	8
1	464	179.383692215589	7
1	466	179.540876345285	7
1	487	185.382646166974	8
1	493	186.33763420724	8
1	497	188.38681738894	7
1	507	191.555541567723	6
1	508	192.647497812339	5
1	509	192.735187773186	4
1	510	193.069534835723	3
1	511	193.614633087664	2
1	513	193.902911983628	2
1	514	194.005448364497	2
1	518	194.807142913086	1
1	520	195.149283457931	1
1	521	197.113730024104	1
1	522	197.647965267856	0
1	524	197.753486546117	0
1	529	198.901643088541	1
1	530	199.576241837523	1
1	531	199.867309985553	0
1	535	201.534178512971	0
1	543	202.982671255202	0
1	545	204.978082421426	0
1	555	207.89577541407	0
1	560	211.245399824886	0
1	561	211.521259106746	0
1	563	214.429326528509	0
1	564	215.218118179824	0
1	566	215.492442720866	0
1	570	215.944748824022	1
1	573	216.608240056335	2
1	574	216.634218150199	2
1	575	216.732945873109	1
1	577	217.307619492499	1
1	579	219.682824106945	2
1	584	220.405620616034	3
1	585	221.309169656634	3
1	587	221.339447132541	3
1	589	221.766479781828	4
1	591	223.071393024387	5
1	595	226.550064115227	5
1	599	227.506237491284	5
1	604	228.768498376796	5
1	609	230.076897878702	5
1	610	231.469829442322	5
1	629	241.444363127114	4
1	631	241.516562695656	4
1	632	241.772464223669	4
1	639	242.347739160494	4
1	641	242.932300560454	4
1	643	243.454340862581	4
1	644	244.104970664566	4
1	645	244.785033463335	3
1	647	245.837965397036	3
1	648	246.803654027955	3
1	649	248.285265603995	2
1	650	248.773126688061	1
1	651	249.029552011882	0
1	653	250.894775171419	0
1	655	251.190567318029	1
1	659	252.207619812068	2
1	671	257.933553262058	3
1	672	259.590452014668	3
1	673	259.831984984169	2
1	675	261.586668827073	2
1	677	261.612220974395	3
1	679	262.431349094009	4
1	680	263.7082265031	4
1	682	264.002523389638	4
1	683	264.445815283067	4
1	685	264.877223487575	4
1	686	265.686629222945	4
1	687	266.5820317135	3
1	692	270.7700719717	3
1	693	270.800903790156	3
1	694	270.937185985517	2
1	696	273.675027519337	2
1	697	274.054744671226	2
1	698	274.458729568637	1
1	699	274.751610271952	0
1	716	289.526168308414	0
1	724	290.340444889395	1
1	728	292.038911150649	2
1	730	293.433173090894	2
1	737	296.696594993012	1
1	741	298.034757792999	1
1	743	299.564122506355	1
1	745	299.968411046567	1
1	750	302.127009595616	2
1	752	302.214721937709	3
1	753	303.176756501403	3
1	754	307.475425505512	2
1	758	308.138435370032	1
1	762	309.003985291935	1
1	764	309.431376529093	2
1	767	309.850238387885	3
1	771	310.225530456778	4
1	774	312.135436661634	5
1	775	314.641963015058	5
1	776	315.584876644971	4
1	778	316.526437188276	4
1	783	317.08093955853	5
1	787	320.454984280746	5
1	788	321.084124240647	4
1	790	321.254713512809	4
1	792	322.124387122743	5
1	794	322.215208790092	6
1	795	322.334134368083	6
1	799	325.601648973676	5
1	800	327.729029989764	4
1	806	328.530511279517	4
1	808	328.889027973731	5
1	811	329.958421945395	6
1	816	330.312554135493	7
1	822	332.931067119899	8
1	823	334.312352440163	8
1	828	336.60220041364	8
1	830	336.827907059428	9
1	831	337.728191200384	9
1	832	337.926020834785	8
1	833	338.151513683215	7
1	834	339.121862030269	6
1	841	341.095766052493	6
1	845	342.089633334622	7
1	847	342.298567476974	8
1	850	342.653219764303	9
1	856	344.878404320038	10
1	857	345.416462484774	10
1	859	346.27803496247	10
1	861	346.702583026039	11
1	862	346.845720257255	11
1	864	348.286310978876	11
1	865	348.767117393399	11
1	866	349.281056617882	10
1	867	350.283622126173	9
1	868	350.502060160301	8
1	870	350.689480505663	8
1	872	350.78834793095	9
1	876	352.055646296623	9
1	878	352.891239183704	9
1	879	353.186434866177	9
1	880	353.817231833482	8
1	882	354.309026285121	8
1	883	354.414117249261	8
1	884	355.22424760077	7
1	886	356.681555115804	7
1	891	358.015127447851	8
1	893	358.057347909377	9
1	895	359.537659790415	10
1	897	360.409016194244	11
1	901	361.251678983553	11
1	902	362.138118884598	10
1	904	362.571103598718	10
1	906	362.604754973083	11
1	907	363.531282668526	11
1	908	365.22347921329	10
1	909	365.420532362233	9
1	910	367.441233094092	8
1	911	367.989479387242	7
1	913	368.176270410179	7
1	914	368.6979053332	7
1	916	368.946950995111	7
1	918	370.196525059139	8
1	920	370.338659309642	9
1	921	372.361342067992	9
1	926	374.432098189317	9
1	930	374.794656187781	10
1	932	375.596290432005	10
1	933	376.375744282832	9
1	934	376.694165565535	8
1	935	378.272514363099	7
1	936	378.623898732325	6
1	937	378.978624629697	5
1	941	380.803353801808	4
1	942	380.972112055263	3
1	943	381.329086336482	2
1	944	382.050717303348	1
1	948	382.457805486154	0
1	950	386.354659454049	0
1	952	387.379449817568	1
1	953	387.726915974951	1
1	954	388.497055005437	0
1	956	390.809024229728	0
1	957	390.962430761999	0
1	959	391.64933335984	0
1	960	392.352696198846	0
1	962	393.21280410074	0
1	964	393.842698316142	1
1	966	394.064496881773	2
1	967	395.530153392016	2
1	968	397.071026677619	1
1	970	397.246383984262	1
1	977	399.166662078885	2
1	983	401.057269493453	3
1	984	401.258177534781	3
1	985	401.39992402841	2
1	989	402.920399421447	2
1	998	405.023490191079	3
1	1002	405.307637244338	4
1	1010	409.719805592638	5
1	1012	409.836309744904	6
1	1014	410.764823878231	6
1	1019	411.786165153759	6
1	1020	412.649914503745	6
1	1022	413.078036701806	6
1	1035	417.524920301397	7
1	1037	417.572690850776	8
1	1039	418.878101360153	8
1	1041	419.659540373727	8
1	1053	423.797930577108	9
1	1056	424.261129115632	9
1	1057	425.158382929886	8
1	1058	425.79333885627	7
1	1059	427.464086842057	6
1	1060	427.662658806236	5
1	1062	428.827960121435	5
1	1066	429.581543897607	6
1	1071	431.429451567774	6
1	1073	432.391167140864	6
1	1075	433.909581012014	7
1	1076	434.156459755475	7
1	1078	434.241658775839	7
1	1080	434.784474406003	8
1	1081	436.064164206041	8
1	1082	437.034953705156	7
1	1084	438.42847580738	7
1	1086	438.812519697659	8
1	1090	440.09608079352	9
1	1095	441.544905999447	10
1	1098	442.754716901142	11
1	1099	444.112205921315	11
1	1101	444.293367324961	11
1	1106	445.807587866359	12
1	1107	445.951688567323	12
1	1112	448.539566449267	12
1	1113	449.65776103759	12
1	1117	452.155838712484	12
1	1122	453.384447509604	13
1	1128	456.075581232431	14
1	1129	456.0947032021	14
1	1130	457.043305071899	13
1	1137	458.493961572108	13
1	1139	459.826954075932	13
1	1141	459.956279314579	13
1	1142	460.05923326005	13
1	1144	460.363477668521	13
1	1145	460.650846074535	13
1	1146	460.661870629867	12
1	1150	462.506502539323	11
1	1152	463.565960393623	11
1	1153	464.204854643757	11
1	1160	466.988908172955	10
1	1164	467.561187302739	10
1	1168	468.148409051901	11
1	1171	468.444650912103	12
1	1173	469.043748323154	12
1	1174	469.923476153575	11
1	1175	471.478290280391	10
1	1182	472.717789761307	10
1	1184	473.305773132529	10
1	1189	473.862598247275	10
1	1190	476.263571761168	10
1	1194	478.063386787568	9
1	1195	478.290761092664	8
1	1197	479.039107916408	8
1	1198	479.59123531777	8
1	1200	481.714353205259	8
1	1202	482.525554056281	9
1	1204	482.689613563001	10
1	1209	484.042794557491	11
1	1211	484.448020557903	12
1	1213	484.621384976878	13
1	1214	484.941264264947	13
1	1218	488.028592841862	12
1	1219	489.264692253651	11
1	1229	491.780040116115	10
1	1234	495.490832160866	10
1	1238	496.731781664279	11
1	1255	500.676590985896	12
1	1257	501.157699771532	12
1	1259	501.744809904796	12
1	1266	503.40644579679	13
1	1268	503.75086452177	14
1	1274	506.94726559387	15
1	1276	507.096753167936	16
1	1280	507.924728933734	16
1	1284	509.115447491129	16
1	1289	511.872790187304	16
1	1290	514.449880050769	15
1	1295	516.795686035	15
1	1296	518.503659448757	15
1	1298	518.895832085805	15
1	1299	520.3943237573	15
1	1300	521.615044113087	14
1	1302	522.18649084237	14
1	1304	525.219540389084	15
1	1305	525.620908950538	15
1	1307	525.733501046814	15
1	1308	527.5352366381	15
1	1309	527.950751661433	14
1	1311	529.033395490103	14
1	1312	529.691841395718	14
1	1313	529.928022496865	13
1	1314	530.102083434478	12
1	1315	531.258199220504	11
1	1317	532.130766353958	11
1	1318	533.517750672672	11
1	1319	534.236880923725	10
1	1324	534.74528567809	10
1	1326	535.254444246519	11
1	1333	536.874221583496	11
1	1335	539.744919939461	11
1	1339	540.074903563299	12
1	1341	540.098420032657	13
1	1343	540.745299833336	14
1	1347	541.364300883885	15
1	1349	541.400276697977	16
1	1354	543.548639434852	17
1	1356	543.585504176202	18
1	1360	544.386445550417	19
1	1362	546.468316925354	20
1	1364	547.503514239205	21
1	1377	549.867107533361	22
1	1380	550.010785649336	23
1	1382	550.524566867303	24
1	1383	551.050173570513	24
1	1390	552.491882738927	24
1	1394	552.939823656357	25
1	1397	555.231649521338	25
1	1398	555.639132537545	24
1	1399	555.781560389233	23
1	1401	557.1211165081	23
1	1408	558.462649114973	23
1	1412	559.881390242339	23
1	1415	560.38831158734	24
1	1416	560.390972392812	24
1	1418	561.174094459645	24
1	1420	561.635716587592	25
1	1424	563.339131611773	25
1	1426	564.1025862667	25
1	1427	564.9098507618	25
1	1428	565.25705660201	24
1	1432	565.767630238946	23
1	1436	567.349855235856	22
1	1437	568.272918840498	21
1	1439	569.394213197531	21
1	1443	570.241833936847	21
1	1444	570.942864656784	20
1	1448	571.171007885162	20
1	1450	571.448834419531	21
1	1452	574.528215617549	21
1	1457	576.361025063858	21
1	1458	577.293143716902	21
1	1459	578.086684817461	20
1	1464	579.709494638386	20
1	1465	582.155397329503	20
1	1467	583.539622627551	20
1	1468	583.611530182413	20
1	1469	586.473409649032	19
1	1474	587.126269543323	19
1	1475	587.392159651605	19
1	1477	588.278055788213	19
1	1478	588.279108969845	19
1	1482	589.520954544459	19
1	1484	591.712191394521	20
1	1489	594.82898539977	20
1	1491	594.906108300142	20
1	1493	594.971276667694	21
1	1498	596.450866852477	22
1	1500	596.676600755286	23
1	1504	599.171128376302	23
1	1505	599.216454452368	22
1	1509	601.604835046885	21
1	1511	601.700579618472	21
1	1512	602.793318608294	21
1	1516	603.307102958403	21
1	1519	603.714930205474	22
1	1521	604.821333287131	23
1	1522	604.877087246959	23
1	1530	606.781001614779	23
1	1534	607.500627486656	24
1	1539	608.432633475248	25
1	1550	609.804873909436	26
1	1553	611.148304178892	27
1	1557	611.38413885981	28
1	1565	613.543380194149	29
1	1571	614.322653244881	30
1	1573	614.88331484624	31
1	1574	615.071874465105	31
1	1575	615.95911679924	30
1	1577	616.016132647134	30
1	1578	616.383949548614	30
1	1582	618.733148424298	29
1	1584	618.929583555425	29
1	1586	619.285430752383	30
1	1587	620.108685717548	30
1	1589	620.545326140106	30
1	1590	620.737339238188	30
1	1592	621.019907099297	30
1	1594	623.976787104712	31
1	1601	624.627767227532	32
1	1603	624.880409349551	33
1	1610	625.936453952841	34
1	1616	628.991740924662	35
1	1619	629.742254169924	36
1	1623	630.728690418016	36
1	1624	631.908200727403	35
1	1625	631.936135238824	34
1	1626	632.773136597621	33
1	1627	632.868288101954	32
1	1641	636.151538784616	32
1	1643	636.231375205383	33
1	1644	636.836127200688	33
1	1645	636.957244261499	32
1	1647	637.246485746772	32
1	1654	640.648642601595	32
1	1655	641.834573590021	31
1	1657	642.016756106515	31
1	1659	642.662786730018	32
1	1661	642.916445230691	33
1	1668	646.011654311997	34
1	1671	647.301881918647	35
1	1672	647.398805700083	35
1	1673	648.382623516784	34
1	1674	648.528429147332	33
1	1676	648.833650018626	33
1	1680	650.383059080829	33
1	1682	650.783121909921	33
1	1683	652.157835634842	33
1	1684	653.52043114901	32
1	1685	654.347235626437	31
1	1686	654.368037273236	30
1	1688	654.67165366108	30
1	1689	655.26851447321	30
1	1690	655.305274833405	29
1	1698	657.917468348144	29
1	1702	660.162294187144	29
1	1703	660.767598095346	28
1	1704	660.77970662918	27
1	1705	660.820117223808	26
1	1709	660.93276723206	26
1	1716	661.919511185232	27
1	1722	664.928934093479	27
1	1723	665.562199309727	26
1	1725	666.515986651384	26
1	1727	668.078936098214	27
1	1728	668.204646682808	27
1	1730	668.58055345329	27
1	1734	671.095565822596	27
1	1738	671.463964737836	27
1	1740	671.872380386151	27
1	1742	672.43676795107	27
1	1744	672.683543593772	28
1	1750	673.796602833992	29
1	1753	674.335334239701	30
1	1755	675.270077967891	30
1	1759	678.212883946795	30
1	1761	678.3194033194	31
1	1767	681.122271998929	32
1	1769	681.156614325347	33
1	1773	681.454947784786	33
1	1775	681.805908027308	33
1	1776	682.948850871151	33
1	1777	683.129920563873	32
1	1778	684.807620057369	31
1	1779	685.098972958337	30
1	1780	686.385013469669	29
1	1790	693.014692916964	28
1	1791	693.440399503526	27
1	1793	693.941186289653	27
1	1794	695.738283140314	27
1	1795	695.857929660617	26
1	1799	697.23312336868	25
1	1800	697.539099051743	24
1	1802	699.510312842282	24
1	1804	700.075769345633	25
1	1806	700.098970110062	26
1	1808	700.54709700384	27
1	1809	701.916057487419	27
1	1811	701.923548899478	27
1	1815	702.723902879466	28
1	1817	703.930007080807	28
1	1819	705.17921463586	28
1	1820	706.250490859048	28
1	1822	707.682852082939	28
1	1823	707.737500229208	28
1	1825	708.329353105129	28
1	1826	708.422829767874	28
1	1827	709.200603268538	27
1	1828	709.708133774185	26
1	1833	711.473066779495	26
1	1835	711.719184189249	27
1	1839	712.099690190478	28
1	1842	713.029545300396	29
1	1844	713.730184040653	30
1	1845	714.67918663142	30
1	1847	715.197457961867	30
1	1849	716.676322354396	31
1	1850	717.207525176308	31
1	1857	718.531960482992	31
1	1859	719.471040591701	31
1	1861	720.136536071014	31
1	1863	720.339046120335	32
1	1864	722.693166799663	32
1	1868	723.543740296677	32
1	1871	723.700856533533	33
1	1872	725.417318826199	33
1	1874	726.242508270071	33
1	1878	727.985223182354	33
1	1880	727.988230986285	33
1	1881	727.992226243796	33
1	1885	728.591330066508	32
1	1890	730.784082175991	32
1	1891	731.793139943617	32
1	1895	732.021829469414	31
1	1903	733.534717138397	31
1	1904	733.859279070502	31
1	1905	734.259557292233	30
1	1907	735.13994299102	30
1	1908	735.212549371673	30
1	1910	736.416271596693	30
1	1911	737.56675276916	30
1	1913	738.498968073479	30
1	1918	740.167376001954	31
1	1922	740.505938344248	32
1	1925	741.966855189516	33
1	1926	742.003371246678	33
1	1927	742.261571463676	32
1	1929	742.396463201937	32
1	1930	743.881678809116	32
1	1931	744.010425022036	31
1	1933	744.370878328315	31
1	1935	744.436577381182	32
1	1936	744.843018142853	32
1	1938	745.247356259946	32
1	1940	746.221030071964	33
1	1941	746.424856756096	33
1	1942	746.567084042322	32
1	1943	746.993767845665	31
1	1944	747.117603693131	30
1	1948	750.513462563736	29
1	1953	752.405254643405	29
1	1954	753.163050762117	29
1	1962	754.512887069699	29
1	1963	754.532889306205	29
1	1965	755.738469342166	29
1	1967	756.458840316816	30
1	1968	756.705580677866	30
1	1978	759.580556167951	29
1	1988	764.068971254695	28
1	1990	764.936293198453	28
1	1991	765.152440724888	28
1	2004	768.715579901171	27
1	2008	770.202907006991	26
1	2009	770.265433960839	25
1	2011	771.375256398224	25
1	2012	772.040354634029	25
1	2017	773.285932947762	25
1	2021	775.35110280435	25
1	2023	775.730491877671	25
1	2024	776.589930954499	25
1	2026	776.936848317173	25
1	2031	777.974856415614	26
1	2033	778.559792629437	27
1	2035	778.620751903059	28
1	2039	780.098855005363	28
1	2041	780.814101072242	28
1	2043	781.293515058	29
1	2045	781.399722317809	30
1	2047	783.002883149795	31
1	2049	783.038231608358	32
1	2050	783.840353262988	32
1	2051	784.579112428251	31
1	2055	785.973297959481	31
1	2057	787.633972959823	31
1	2058	789.914677237802	30
1	2060	790.26835801441	30
1	2061	790.490779556775	30
1	2068	793.635049216657	30
1	2070	793.687190703045	31
1	2073	794.685685491163	32
1	2075	795.215721595402	33
1	2076	795.578649925256	33
1	2080	796.155369673541	33
1	2083	796.916819328447	34
1	2084	797.816378507585	34
1	2091	801.801484862268	34
1	2097	803.098138505558	35
1	2099	803.546178343222	36
1	2103	804.44395091784	37
1	2105	804.50447544813	38
1	2110	805.879510736113	38
1	2112	806.224808958097	38
1	2113	806.22986606753	38
1	2115	806.255730301288	38
1	2116	807.16346390443	38
1	2118	808.277934996624	38
1	2122	813.643117770338	38
1	2126	813.873441319942	38
1	2135	817.184060846152	39
1	2139	818.767905370739	39
1	2141	819.65255442194	39
1	2142	819.922596736621	39
1	2144	819.975867844057	39
1	2149	820.94512969039	40
1	2150	822.418378142808	40
1	2151	823.914207336952	39
1	2152	826.060620822452	38
1	2154	826.345358117392	38
1	2156	826.36352822214	39
1	2158	828.810946805073	40
1	2159	829.065018538713	40
1	2160	829.322784664486	39
1	2161	829.584586726857	38
1	2165	830.436077601699	37
1	2167	832.842092793364	37
1	2168	832.857192162797	37
1	2170	833.200737017191	37
1	2172	834.778697610728	38
1	2173	835.794164911218	38
1	2175	836.263506450825	38
1	2179	836.424380767718	39
1	2181	837.033168500133	39
1	2183	838.787555670042	39
1	2184	839.598946411049	39
1	2185	839.860511320991	38
1	2187	840.58314274417	38
1	2189	840.856988949684	39
1	2199	842.583380489282	39
1	2201	842.749541361149	39
1	2202	842.783859243022	39
1	2203	843.075218601717	38
1	2204	845.687223747714	37
1	2206	846.402512404769	37
1	2207	846.701304067506	37
1	2209	847.262575658644	37
1	2214	847.533832102075	38
1	2216	847.851850559665	39
1	2217	848.037426327068	39
1	2219	849.256654904001	39
1	2220	850.519251115616	39
1	2221	851.853842593338	38
1	2226	854.414776083113	38
1	2227	854.937165716442	38
1	2235	856.466807545965	38
1	2236	856.574162208323	38
1	2237	856.904625428186	37
1	2239	857.410244820368	37
1	2244	858.192164223085	38
1	2246	858.659944387346	39
1	2247	860.199103859572	39
1	2248	860.395057302907	38
1	2249	861.469311380951	37
1	2251	861.960683815857	37
1	2253	861.976770798232	38
1	2255	862.911165496971	39
1	2259	863.282272006878	40
1	2264	864.616355703029	40
1	2268	865.370752031407	40
1	2270	866.191988476141	41
1	2272	868.156847478748	41
1	2273	869.065683789923	40
1	2275	869.074282949263	40
1	2283	870.362213732074	41
1	2284	872.064157445981	41
1	2285	872.429412101638	40
1	2286	873.834864953873	39
1	2293	876.13075521324	38
1	2298	876.980715758122	38
1	2299	879.361576048831	38
1	2301	881.126732538825	38
1	2305	881.324945029895	39
1	2313	885.29250663858	39
1	2315	885.392564622512	39
1	2319	886.394897074387	39
1	2324	887.115833439095	39
1	2328	889.148820427609	39
1	2335	891.337510616969	38
1	2337	893.324502759549	38
1	2341	894.359785092883	39
1	2349	896.988665373659	39
1	2350	897.385222146941	38
1	2358	900.115135648569	38
1	2360	901.453851628621	39
1	2361	901.828519819569	39
1	2362	903.818215871344	38
1	2366	904.817607793099	38
1	2369	905.003430481017	39
1	2371	906.36726713743	40
1	2372	907.635954525499	40
1	2373	907.83766580702	39
1	2378	912.678248927577	39
1	2382	913.407163148708	40
1	2384	916.691237170252	40
1	2385	917.190871837287	39
1	2393	920.507759225055	39
1	2394	921.695588874787	39
1	2396	921.838755812214	39
1	2403	922.994453340538	39
1	2405	923.848460720059	39
1	2406	924.259716432032	39
1	2408	924.794074933074	39
1	2410	926.664305369602	40
1	2414	928.459683873086	40
1	2415	928.503094629845	39
1	2416	928.972029476612	38
1	2417	929.423751489144	37
1	2418	929.497039951487	36
1	2420	929.938496892572	36
1	2422	930.358089623064	37
1	2423	930.450402874526	37
1	2425	930.81664841137	37
1	2427	931.508688526803	38
1	2429	932.511077548064	39
1	2436	936.648836590226	40
1	2439	937.192253993692	41
1	2443	938.895252625799	41
1	2454	941.426954784132	41
1	2462	943.19880025844	42
1	2464	943.733058167184	43
1	2465	944.9636463062	43
1	2469	946.734642922797	42
1	2471	947.035092195468	42
1	2472	947.215491012292	42
1	2476	949.404650870676	42
1	2481	950.189348087257	43
1	2483	950.490958029841	44
1	2485	951.473842712446	44
1	2487	953.008847404791	44
1	2488	953.058203931637	44
1	2490	953.567712154119	44
1	2491	953.574591101266	44
1	2504	956.498694184421	43
1	2505	956.801700316064	42
1	2515	963.127979456216	41
1	2520	964.367854689131	41
1	2522	964.932573568899	42
1	2523	965.184688202618	42
1	2525	965.275232996563	42
1	2527	965.328137939151	43
1	2528	965.531823071146	43
1	2530	965.720820270239	43
1	2531	966.074255575824	43
1	2536	969.570884510573	43
1	2540	970.873557907364	44
1	2542	971.240843822575	45
1	2544	972.094157186685	46
1	2546	973.381634302971	46
1	2547	975.147569393543	45
1	2548	975.219126269165	44
1	2549	975.328947492453	43
1	2550	975.338510522274	42
1	2557	977.141326674799	41
1	2559	978.066757002825	41
1	2560	979.426000398972	41
1	2561	979.968363185021	40
1	2563	980.41823166601	40
1	2564	980.468667761431	40
1	2566	980.498488507363	40
1	2567	980.597475463203	40
1	2573	981.692112593409	40
1	2577	982.649792767058	41
1	2581	986.575525494346	41
1	2585	987.540469176058	41
1	2588	990.001962270544	42
1	2590	990.592216537618	43
1	2591	990.650877106432	43
1	2593	990.730110079753	43
1	2594	991.606692466877	43
1	2601	993.843146320361	42
1	2602	994.894448788199	41
1	2607	997.741361659515	41
1	2608	1000.195074725592	41
1	2610	1000.554291271069	41
1	2612	1000.654210934508	42
1	2616	1001.205327452653	42
1	2620	1002.685182510424	41
1	2625	1005.336625182368	41
1	2626	1005.787048359637	41
1	2628	1005.888546319502	41
1	2630	1005.916160673936	42
1	2631	1006.37221082157	42
1	2641	1009.28859318462	42
1	2646	1010.505005829921	42
1	2647	1011.186378178516	41
1	2648	1011.257983547847	40
1	2650	1011.60737232071	40
1	2652	1011.963231650398	41
1	2653	1012.835805206306	41
1	2660	1014.495176093621	40
1	2661	1014.675593859816	39
1	2662	1014.814365872368	38
1	2667	1017.497601071635	38
1	2672	1019.829175466138	39
1	2677	1022.021496435852	40
1	2679	1022.115214749671	41
1	2681	1024.219754265361	42
1	2685	1025.463195329943	43
1	2690	1026.194381360783	43
1	2691	1026.284372140026	42
1	2693	1027.331847126172	42
1	2698	1028.575004603182	43
1	2700	1029.624925298392	44
1	2702	1029.751480243105	45
1	2704	1030.909782927047	46
1	2705	1031.037308555709	46
1	2710	1033.810995791255	46
1	2711	1034.344836102055	46
1	2712	1034.475298218567	45
1	2713	1035.431093661238	44
1	2714	1036.277923987219	43
1	2715	1036.687779915201	42
1	2717	1036.827482996214	42
1	2725	1038.771186905371	43
1	2726	1039.51804436548	43
1	2728	1040.121219459955	43
1	2730	1040.616195465638	44
1	2731	1040.966495595915	44
1	2735	1043.938342747138	44
1	2741	1047.17560339161	45
1	2745	1047.671372057485	46
1	2750	1049.755777716265	46
1	2752	1050.332237431141	46
1	2754	1053.160053800493	47
1	2758	1057.320675610727	47
1	2763	1061.380820448416	47
1	2764	1061.7878698459	47
1	2768	1063.960027101562	46
1	2769	1064.365884208113	45
1	2770	1064.915538711234	44
1	2774	1066.069203791816	44
1	2777	1066.75637522606	45
1	2779	1066.861100639049	46
1	2783	1068.25829834417	47
1	2785	1070.062319780641	47
1	2786	1070.570146640369	46
1	2790	1071.492066359118	45
1	2791	1072.907899732538	44
1	2792	1075.255026916223	43
1	2796	1076.685609958072	42
1	2797	1076.7989803143	41
1	2802	1077.08114549375	41
1	2804	1078.199711336248	42
1	2808	1079.204387511081	43
1	2821	1081.547151990306	44
1	2824	1082.833490920858	44
1	2826	1083.061498344282	44
1	2828	1083.161675792021	45
1	2830	1084.282201659082	46
1	2832	1085.03654772121	47
1	2834	1086.21004353009	48
1	2839	1087.89037149714	49
1	2843	1088.915499445508	49
1	2844	1089.949202153274	48
1	2846	1090.055139528522	48
1	2847	1090.236749521377	48
1	2849	1090.248621463649	48
1	2851	1090.778886837812	49
1	2852	1091.314391250386	49
1	2859	1093.572968667303	48
1	2860	1093.767483468583	47
1	2861	1094.150874113119	46
1	2862	1095.560871776686	45
1	2863	1095.572012478677	44
1	2867	1096.224933036694	43
1	2871	1096.886892193246	42
1	2873	1096.993223622512	42
1	2874	1097.336826593114	42
1	2878	1100.005647489986	41
1	2880	1100.367481439057	41
1	2881	1101.363832618553	41
1	2883	1101.937886116387	41
1	2884	1102.872315241193	41
1	2888	1105.107570849283	40
1	2889	1105.396495730162	39
1	2903	1111.696616774526	39
1	2904	1111.747325201617	39
1	2906	1112.80622733125	39
1	2907	1112.895525654875	39
1	2909	1114.137282699327	39
1	2913	1115.417982588205	39
1	2915	1116.296262916671	39
1	2916	1116.661907226407	39
1	2918	1117.172939188213	39
1	2919	1117.656799328763	39
1	2921	1117.898564099275	39
1	2923	1118.86300531313	40
1	2924	1119.838850535963	40
1	2925	1120.809884328176	39
1	2927	1121.780190439902	39
1	2931	1124.579206072948	39
1	2935	1126.54085617426	38
1	2937	1128.128707529152	38
1	2941	1129.984396103055	38
1	2942	1130.161743837423	37
1	2944	1130.41414536796	37
1	2945	1131.294043217309	37
1	2947	1132.055625403681	37
1	2948	1134.327579642758	37
1	2949	1134.923475835214	36
1	2950	1136.63377962019	35
1	2958	1138.444934629914	35
1	2960	1140.455957434409	36
1	2971	1144.72748837172	37
1	2975	1146.099786050643	37
1	2976	1146.147411686954	36
1	2983	1147.725724753965	35
1	2985	1148.921900623674	35
1	2993	1150.894807732387	36
1	2997	1152.769062230977	36
1	3002	1153.62732420447	36
1	3008	1155.769812728223	37
1	3011	1157.745569450103	37
1	3012	1158.457888226538	36
1	3013	1160.097171375602	35
1	3014	1160.833887981173	34
1	3019	1161.176803612888	34
1	3021	1161.418572987943	35
1	3023	1163.914147507134	36
1	3024	1163.969063230453	36
1	3029	1165.444383045829	36
1	3031	1166.404611256399	37
1	3033	1166.745483846054	38
1	3034	1166.811219158666	38
1	3035	1167.398975174901	37
1	3036	1168.398985065905	36
1	3037	1168.622232504589	35
1	3042	1170.94292336337	35
1	3043	1170.971742791771	35
1	3045	1171.173738646306	35
1	3047	1171.674427842237	36
1	3049	1171.907521802281	37
1	3051	1172.884088336146	38
1	3053	1173.232826279295	39
1	3054	1173.673287023022	39
1	3065	1178.590541757389	39
1	3067	1178.621085525034	40
1	3069	1179.058734381291	41
1	3070	1180.361792754525	41
1	3072	1181.925733453339	41
1	3076	1182.781517649772	42
1	3084	1185.778815966001	42
1	3085	1185.819516777152	41
1	3086	1186.176493301399	40
1	3088	1187.219140751202	40
1	3090	1188.498012811091	41
1	3092	1188.766129951484	42
1	3096	1189.854680225366	42
1	3100	1190.993895270045	41
1	3101	1191.96959166178	40
1	3102	1192.232682328926	39
1	3103	1193.815045960732	38
1	3104	1193.993722795096	37
1	3105	1194.110490057971	36
1	3107	1195.950337958087	36
1	3111	1197.009007337572	37
1	3114	1199.144816549811	38
1	3116	1199.9403365171	39
1	3120	1202.114391557338	39
1	3121	1202.492480147481	38
1	3122	1203.882800131425	37
1	3123	1203.89526748269	36
1	3125	1204.063415642026	36
1	3129	1204.799912269127	37
1	3131	1205.195546890756	38
1	3133	1205.220295147917	39
1	3138	1206.640405900745	40
1	3144	1207.486703870245	41
1	3146	1207.573887267744	42
1	3147	1207.992635750476	42
1	3148	1208.027835145758	41
1	3150	1208.620088904654	41
1	3152	1208.688162916681	42
1	3153	1208.844287826967	42
1	3155	1208.996107010765	42
1	3159	1209.523899333714	43
1	3161	1209.775483119925	43
1	3163	1211.292689263348	43
1	3164	1214.30161220161	43
1	3165	1214.831369389311	42
1	3173	1217.264784132554	42
1	3178	1220.06305758651	43
1	3180	1220.861891119608	44
1	3182	1221.40724856568	45
1	3184	1221.734053467961	46
1	3186	1222.131351540151	47
1	3187	1222.779855675367	47
1	3188	1223.014524846405	46
1	3189	1223.02565924784	45
1	3190	1223.639488323586	44
1	3191	1223.926878416681	43
1	3192	1224.262552989541	42
1	3194	1224.480364861178	42
1	3196	1225.757161307913	43
1	3198	1225.954884319533	44
1	3200	1226.278248937869	45
1	3201	1226.295954958034	45
1	3211	1228.10336191126	45
1	3214	1228.446720361657	46
1	3215	1228.511736619505	46
1	3219	1230.528263869361	45
1	3221	1230.569030223202	45
1	3222	1230.921089480378	45
1	3223	1231.089586306901	44
1	3224	1232.487263893853	43
1	3225	1233.763727965401	42
1	3227	1234.37502833384	42
1	3228	1236.58490300785	42
1	3229	1236.923188105397	41
1	3231	1237.607003728329	41
1	3235	1237.974662392332	42
1	3238	1239.083322784972	43
1	3245	1242.889580867465	43
1	3256	1245.232180808358	43
1	3257	1246.034083308973	43
1	3259	1246.172041354653	43
1	3260	1247.87940968208	43
1	3261	1249.345989968039	42
1	3263	1250.841355760902	42
1	3265	1251.184249784501	43
1	3267	1251.19827127744	44
1	3269	1251.75109208526	45
1	3270	1252.736947281084	45
1	3275	1253.998525642504	45
1	3277	1257.172544349794	46
1	3278	1258.635970796787	46
1	3280	1260.887378670087	46
1	3281	1260.984284370967	46
1	3282	1262.29421053359	45
1	3283	1263.91081678802	44
1	3288	1266.46763993636	44
1	3290	1266.980899049775	45
1	3292	1267.337378063268	46
1	3294	1267.397597891876	47
1	3296	1267.517951543994	48
1	3298	1268.005384857697	49
1	3299	1268.810187954884	49
1	3306	1269.883656904324	49
1	3308	1270.771645648504	49
1	3309	1271.179143306118	48
1	3310	1272.813833437076	47
1	3312	1272.873489194361	47
1	3325	1276.383593294225	48
1	3327	1276.818796372692	49
1	3332	1277.912835166254	50
1	3337	1279.878144475922	50
1	3338	1280.313692528948	49
1	3339	1281.207460107287	48
1	3343	1281.836274954392	48
1	3345	1285.804320882592	48
1	3349	1289.119759473944	47
1	3351	1289.359614452799	47
1	3352	1289.983957271528	47
1	3354	1290.516706925469	47
1	3355	1290.61941867787	47
1	3357	1290.833805386435	47
1	3364	1292.66558293144	47
1	3365	1294.001907215615	46
1	3367	1295.342866565592	46
1	3368	1295.479420951869	46
1	3369	1295.680193837493	45
1	3374	1296.856898425794	45
1	3376	1297.389962414036	46
1	3378	1298.022990830448	47
1	3379	1298.160892901569	47
1	3381	1298.637407386778	47
1	3383	1301.43483798273	48
1	3387	1301.719721149868	49
1	3393	1302.813776802912	50
1	3395	1303.379673909011	51
1	3396	1305.233766806488	51
1	3398	1305.304650318528	51
1	3400	1305.412336441666	52
1	3401	1307.398369888476	52
1	3402	1307.560453034777	51
1	3403	1309.268065840907	50
1	3407	1311.059426549706	49
1	3409	1311.245404039041	49
1	3411	1311.742132007797	50
1	3412	1312.028526270882	50
1	3414	1312.440969595629	50
1	3415	1312.667514870258	50
1	3417	1313.738028442341	50
1	3419	1313.790931417847	51
1	3423	1314.901123493191	51
1	3431	1316.053636994362	51
1	3433	1316.663602592742	52
1	3435	1317.216291078212	53
1	3437	1317.62223356743	54
1	3439	1318.159968375097	55
1	3441	1318.210717357537	56
1	3442	1318.301551545206	56
1	3444	1318.406795209854	56
1	3445	1318.411060891499	56
1	3447	1322.423773337277	56
1	3452	1323.20395481883	57
1	3453	1323.263177495041	57
1	3457	1325.523291855464	56
1	3461	1328.273843377369	55
1	3462	1328.690374941418	54
1	3464	1328.821429655569	54
1	3465	1331.904034361715	54
1	3466	1332.248755662136	53
1	3468	1332.989737813024	53
1	3469	1333.256820432077	53
1	3470	1333.595452333892	52
1	3471	1333.962538953847	51
1	3473	1334.016124874999	51
1	3474	1334.142378763749	51
1	3476	1336.413374007106	51
1	3477	1336.865158214625	51
1	3482	1338.259045251255	51
1	3484	1338.489920536218	52
1	3486	1338.917844366064	53
1	3490	1339.172149128696	54
1	3493	1339.830669140959	55
1	3503	1342.686851684208	56
1	3512	1343.945981489226	57
1	3513	1344.008385428393	57
1	3515	1344.427722746499	57
1	3516	1344.552456485422	57
1	3517	1344.925664994002	56
1	3519	1345.248634955149	56
1	3524	1346.43410918425	57
1	3525	1348.681079272542	57
1	3532	1352.577901773708	57
1	3534	1354.777737145951	57
1	3536	1355.054070591381	57
1	3537	1355.073341746956	57
1	3538	1355.102488259155	56
1	3539	1355.388564673194	55
1	3540	1355.784579313915	54
1	3542	1356.923830293322	54
1	3547	1359.897447292022	55
1	3549	1360.185897759543	56
1	3550	1362.507798268738	56
1	3551	1362.828382284535	55
1	3558	1365.108175801086	54
1	3559	1366.131588588589	53
1	3561	1366.542911392488	53
1	3565	1367.386868628518	54
1	3568	1367.561128902484	55
1	3569	1368.091901840179	55
1	3571	1368.734669568779	55
1	3579	1372.616473720599	56
1	3586	1375.5410888065	56
1	3590	1376.853012779483	55
1	3597	1378.800134277276	55
1	3603	1379.786795918277	56
1	3604	1379.889739686253	56
1	3608	1380.526347869725	55
1	3609	1381.115466790471	54
1	3611	1383.874993365666	54
1	3612	1385.376174357292	54
1	3617	1386.316843097933	54
1	3621	1387.649688208088	55
1	3623	1387.968113808121	56
1	3626	1388.232388899742	57
1	3633	1389.989221148579	57
1	3635	1391.237507755533	57
1	3636	1391.267375780747	57
1	3638	1391.936483947393	57
1	3643	1393.896172272459	58
1	3647	1394.49359871677	58
1	3649	1394.822772181701	58
1	3650	1394.998096889181	58
1	3652	1396.093162616524	58
1	3653	1396.290775598814	58
1	3654	1398.902700382941	57
1	3656	1399.089720196007	57
1	3663	1402.229030850647	57
1	3665	1402.574750796612	57
1	3669	1403.833373546565	57
1	3673	1405.364346741402	57
1	3676	1406.920466403308	58
1	3678	1407.497228934147	59
1	3683	1408.938977081158	60
1	3691	1412.855682771179	61
1	3692	1414.389821886388	61
1	3694	1414.529326582973	61
1	3696	1415.372918226806	62
1	3700	1416.708396490156	62
1	3705	1418.293692791515	62
1	3707	1418.358146739733	63
1	3709	1418.366335576426	64
1	3710	1418.706095399553	64
1	3712	1418.725141072934	64
1	3717	1419.458833678904	65
1	3719	1420.63149461111	66
1	3720	1420.689158130246	66
1	3722	1420.834158685062	66
1	3723	1422.717769203655	66
1	3724	1423.206955094705	65
1	3740	1427.247711298744	64
1	3741	1428.347514918457	63
1	3742	1428.371287782582	62
1	3743	1428.655597571504	61
1	3750	1430.696864864933	61
1	3755	1430.933528715443	62
1	3757	1430.98361576624	63
1	3760	1432.088086330763	64
1	3762	1432.14800064618	65
1	3764	1432.562339660518	66
1	3765	1432.684025320227	66
1	3767	1432.716437654003	66
1	3771	1434.528135839311	67
1	3773	1434.622546434798	67
1	3775	1435.076331290562	67
1	3776	1435.119506124028	67
1	3778	1435.777366309445	67
1	3779	1436.028929299147	67
1	3781	1436.354215840083	67
1	3782	1437.174522489816	67
1	3784	1438.924016325777	67
1	3785	1439.286070506541	67
1	3786	1439.925929977219	66
1	3791	1443.163755784458	66
1	3792	1443.976013586146	66
1	3797	1446.977123356772	66
1	3799	1447.410597772731	67
1	3800	1448.025295608064	67
1	3801	1448.533833218626	66
1	3802	1450.375316913652	65
1	3803	1450.722254139753	64
1	3804	1451.181601711027	63
1	3805	1451.303630056151	62
1	3807	1451.469896721155	62
1	3808	1452.243406809794	62
1	3809	1452.695860624842	61
1	3813	1453.955497064107	60
1	3814	1454.005829852912	59
1	3815	1454.066819695043	58
1	3817	1454.790831493115	58
1	3818	1455.525302821408	58
1	3826	1458.945830559128	58
1	3827	1459.218786092747	58
1	3829	1460.213572201193	58
1	3833	1463.916808052756	58
1	3835	1464.342841676897	58
1	3839	1465.451939926221	59
1	3845	1466.093032578557	60
1	3848	1466.348810847114	61
1	3852	1468.480368838968	62
1	3856	1470.297340880165	62
1	3861	1471.196392686939	62
1	3862	1471.78147436072	62
1	3863	1471.834495922474	61
1	3865	1472.35506158723	61
1	3872	1475.460133870907	61
1	3873	1475.555911984194	60
1	3877	1475.861059429794	59
1	3878	1477.11375876006	58
1	3880	1477.178213721025	58
1	3882	1477.216745647428	59
1	3884	1477.290555701494	60
1	3886	1481.432347467162	61
1	3887	1482.423781510573	61
1	3888	1483.448568946824	60
1	3890	1484.108338870014	60
1	3891	1484.158036966085	60
1	3895	1484.685308658994	60
1	3900	1488.617139743729	60
1	3901	1488.63486212486	59
1	3903	1488.701228874148	59
1	3904	1489.366212804031	59
1	3906	1489.760651721131	59
1	3910	1491.21474502242	59
1	3912	1491.448166108828	59
1	3914	1491.869265557321	60
1	3924	1496.267178106349	60
1	3926	1497.008095342488	60
1	3927	1497.895700838593	60
1	3928	1499.060273482757	59
1	3930	1499.210752847022	59
1	3932	1499.728020207566	60
1	3933	1500.65259412228	60
1	3934	1503.537007911502	59
1	3938	1505.461671609252	58
1	3939	1505.819974766386	57
1	3941	1506.760420000084	57
1	3942	1506.810216684664	57
1	3943	1506.837897943428	56
1	3944	1508.631481907018	55
1	3946	1509.3605981231	55
1	3947	1510.480610768831	55
1	3948	1511.241996219444	54
1	3949	1511.518763070658	53
1	3951	1512.583715063338	53
1	3952	1514.042929575765	53
1	3957	1515.330125212184	53
1	3962	1517.264656081151	54
1	3964	1517.641443713899	55
1	3966	1517.862159074429	56
1	3968	1517.900523680537	57
1	3970	1520.217932278341	58
1	3971	1520.412295116853	58
1	3972	1520.464328619035	57
1	3976	1524.833205610796	56
1	3984	1527.63474215194	56
1	3985	1527.996750836313	56
1	3987	1528.055296741374	56
1	3989	1529.487347461976	57
1	3991	1529.884449282068	58
1	3995	1531.068499373637	59
1	3998	1531.204235019062	60
1	3999	1531.289974854896	60
1	4001	1533.084447260386	60
1	4003	1533.688928788078	61
1	4005	1533.812655987736	62
1	4007	1535.983326502308	63
1	4009	1538.821151294327	64
1	4011	1539.121309101379	65
1	4012	1539.50895282006	65
1	4014	1539.984139804012	65
1	4019	1540.361980327119	66
1	4023	1541.836194434167	67
1	4029	1543.481325499699	68
1	4034	1546.7045116873	69
1	4035	1547.307201712254	69
1	4037	1547.344091631626	69
1	4041	1547.553507170696	70
1	4046	1549.122819158058	70
1	4053	1551.274917326915	70
1	4055	1552.000770139002	71
1	4057	1552.238911723316	72
1	4059	1552.321336134008	73
1	4064	1553.795472181164	74
1	4067	1553.972769478898	75
1	4069	1555.580742405705	76
1	4070	1556.124869340832	76
1	4071	1556.461745530453	75
1	4079	1560.874114269283	75
1	4084	1561.383805731219	76
1	4086	1561.844115686354	77
1	4087	1561.928280392193	77
1	4094	1562.906233380421	77
1	4097	1563.325077375211	78
1	4107	1567.193609471399	79
1	4110	1567.836897937594	80
1	4111	1567.8683857851	80
1	4123	1570.345391047976	80
1	4126	1571.271035014015	81
1	4128	1572.990448367594	82
1	4140	1576.968883310426	83
1	4144	1577.83564050191	83
1	4145	1578.124914067078	82
1	4150	1579.152023382052	82
1	4151	1579.874385968975	82
1	4152	1580.319054485669	81
1	4160	1585.073971886905	81
1	4161	1585.248271963287	81
1	4165	1588.137908160759	80
1	4167	1589.584134838685	80
1	4169	1589.751567646996	81
1	4170	1592.968482129199	81
1	4174	1593.144839620975	81
1	4176	1595.727199473931	81
1	4177	1597.476352821058	80
1	4179	1597.596197157949	80
1	4186	1601.739430678623	81
1	4188	1603.76710803194	81
1	4190	1604.060147883875	81
1	4191	1604.493920002097	81
1	4192	1604.770173286983	80
1	4196	1607.608134361509	79
1	4197	1610.005810519716	78
1	4199	1610.539473612449	78
1	4200	1610.744185565259	78
1	4201	1610.941851617683	77
1	4203	1611.001642606376	77
1	4207	1611.522189426766	77
1	4218	1616.052358598804	77
1	4219	1616.688351794798	77
1	4220	1617.119656860503	76
1	4222	1617.78447899544	76
1	4223	1617.938011844192	76
1	4224	1618.00770530035	75
1	4226	1618.905403340756	75
1	4227	1619.07066727267	75
1	4232	1621.678407518853	75
1	4234	1621.942250638559	76
1	4236	1623.224146130194	77
1	4238	1623.71576913199	78
1	4240	1624.72078476173	79
1	4241	1625.24220986591	79
1	4246	1627.46170722785	79
1	4248	1628.04150527978	80
1	4249	1628.215469537878	80
1	4251	1628.689497190424	80
1	4252	1629.488217958734	80
1	4253	1629.857444332075	79
1	4254	1629.950794900209	78
1	4256	1631.197208779792	78
1	4258	1631.935987910667	79
1	4259	1632.515099069992	79
1	4264	1634.164760526455	79
1	4265	1635.220727708695	79
1	4266	1635.765168615757	78
1	4267	1635.922014113315	77
1	4286	1642.796163264444	76
1	4288	1643.250905259781	76
1	4290	1644.157848036726	77
1	4292	1644.227281540498	78
1	4293	1645.400170536672	78
1	4297	1646.20816070933	77
1	4298	1646.752159845167	76
1	4299	1647.169467541791	75
1	4301	1648.07641150384	75
1	4303	1649.036505015637	76
1	4314	1652.473070904919	77
1	4315	1652.916244609939	77
1	4321	1653.856056941569	77
1	4323	1654.173588652353	78
1	4329	1656.275696748127	78
1	4331	1658.560902749259	78
1	4333	1659.200227867404	79
1	4334	1660.086479679864	79
1	4336	1660.25883259655	79
1	4337	1660.983921582088	79
1	4339	1662.084458765367	79
1	4343	1662.840743349893	79
1	4344	1663.018866328694	78
1	4348	1667.281552592706	77
1	4352	1670.648117895099	76
1	4354	1670.891110124197	76
1	4355	1672.096877952544	76
1	4362	1676.021016519753	75
1	4366	1677.655277753723	75
1	4373	1678.560337072571	76
1	4375	1678.586421091112	77
1	4382	1680.052467188883	78
1	4383	1680.098967758824	78
1	4387	1682.04329072319	77
1	4389	1682.837835723089	77
1	4391	1683.364491718856	78
1	4392	1686.975849722545	78
1	4400	1688.832240650895	78
1	4404	1690.287203534391	79
1	4407	1691.39414970171	80
1	4408	1691.498616571149	80
1	4410	1691.913187403027	80
1	4411	1692.922006033102	80
1	4416	1696.547940538863	80
1	4418	1697.362429421739	81
1	4419	1698.210985126424	81
1	4420	1700.102030176179	80
1	4424	1702.940993855971	79
1	4425	1703.524646053486	78
1	4427	1703.675339384954	78
1	4431	1703.942412454159	79
1	4433	1704.040074926743	80
1	4439	1705.261887289233	81
1	4444	1706.950573600917	82
1	4446	1707.75308202306	83
1	4447	1708.089984858343	83
1	4454	1708.94759306703	83
1	4456	1709.249465692485	84
1	4461	1711.293489758997	84
1	4462	1712.177461024784	83
1	4467	1714.250206119977	83
1	4469	1715.372632324225	84
1	4471	1716.760562612313	85
1	4473	1717.006689767564	86
1	4477	1719.875962184111	86
1	4479	1720.448395230898	86
1	4486	1723.916928646046	86
1	4499	1727.439952836694	86
1	4501	1727.628358294152	87
1	4503	1727.905789703655	87
1	4504	1728.770226826639	86
1	4505	1729.214570471927	85
1	4507	1730.870240146667	85
1	4511	1732.915998851458	85
1	4516	1736.737770447674	85
1	4518	1736.997664591167	86
1	4519	1737.147931832222	86
1	4523	1741.369515358162	85
1	4524	1741.504672948812	84
1	4529	1744.416349149139	84
1	4531	1745.522934307543	85
1	4533	1745.89429405867	86
1	4535	1746.15976165901	87
1	4537	1748.883432106842	88
1	4538	1749.759344363769	88
1	4543	1752.153842836033	88
1	4545	1752.291604920394	89
1	4547	1752.922971694575	90
1	4549	1753.135600398029	91
1	4554	1755.842878842306	92
1	4556	1756.046044466108	93
1	4558	1756.228870578323	94
1	4559	1756.319895677612	94
1	4561	1756.673766746576	94
1	4562	1758.044273215445	94
1	4563	1760.009445193826	93
1	4564	1761.859713602982	92
1	4573	1764.933837180045	92
1	4575	1765.028053701098	93
1	4593	1768.792238366863	93
1	4594	1770.976013029857	92
1	4596	1771.184869872978	92
1	4598	1771.81960213588	93
1	4599	1772.840493046792	93
1	4600	1773.509981794255	92
1	4604	1775.906448831911	91
1	4605	1776.802542865796	90
1	4607	1777.011134783481	90
1	4608	1779.778026377309	90
1	4614	1780.324469976395	90
1	4620	1783.007180299281	90
1	4621	1784.059367709317	89
1	4623	1784.33761542394	89
1	4625	1785.178057165306	90
1	4627	1785.832896922415	91
1	4628	1786.262493447011	91
1	4630	1786.286267284062	91
1	4632	1786.331804460445	92
1	4637	1788.97401494025	93
1	4638	1789.771718043974	93
1	4640	1790.054333003162	93
1	4642	1791.858839235542	94
1	4644	1792.204567226224	95
1	4646	1792.208293861041	96
1	4648	1792.654755243137	97
1	4650	1792.836899688776	98
1	4651	1793.166305528927	98
1	4656	1794.66573226646	98
1	4660	1795.6429250967	98
1	4662	1795.918593116198	98
1	4676	1801.380654778452	99
1	4687	1804.546119592276	100
1	4688	1806.00427231611	100
1	4690	1809.025313407981	100
1	4692	1811.153108168137	101
1	4696	1811.961337573618	101
1	4701	1813.312605963784	101
1	4705	1813.889999489019	101
1	4707	1814.447116621958	101
1	4709	1816.477549098778	102
1	4711	1817.374043588989	103
1	4712	1817.701611440435	103
1	4716	1818.692607815896	102
1	4717	1818.933977098672	101
1	4718	1819.183778782853	100
1	4726	1825.130634019125	100
1	4730	1826.589355640906	100
1	4735	1828.166500745231	100
1	4737	1828.218896075161	101
1	4738	1828.298095414008	101
1	4739	1829.653138525179	100
1	4740	1830.996331295068	99
1	4741	1832.055590362115	98
1	4742	1833.542000728266	97
1	4743	1833.577591809303	96
1	4745	1833.879720211354	96
1	4750	1834.997396492377	97
1	4752	1837.833634195447	98
1	4754	1837.879061512761	99
1	4758	1838.432801073029	99
1	4759	1839.707846704164	98
1	4764	1841.762075123409	98
1	4766	1842.307167104072	99
1	4770	1842.360642741234	100
1	4776	1844.430517552589	101
1	4778	1845.070529129724	102
1	4788	1848.90638569222	102
1	4789	1848.950294101495	101
1	4794	1852.152631295182	101
1	4796	1853.809488909925	102
1	4797	1854.494076897998	102
1	4801	1855.647108962356	102
1	4803	1858.021727348164	102
1	4804	1858.085769156347	101
1	4805	1858.087680932474	100
1	4819	1861.181053974237	100
1	4821	1863.69873185323	101
1	4822	1863.76755398307	101
1	4823	1864.421449013773	100
1	4825	1865.588073027359	100
1	4827	1866.102944315821	101
1	4828	1867.426922524072	101
1	4829	1867.450199968628	100
1	4833	1868.936757701637	100
1	4837	1869.144619220912	101
1	4850	1872.47764367387	102
1	4852	1872.752017430394	103
1	4853	1872.9358284616	103
1	4855	1873.682474692795	103
1	4856	1873.754797197486	103
1	4857	1873.904579837962	102
1	4859	1875.88469422017	102
1	4860	1877.538118941075	102
1	4864	1879.217785632628	102
1	4866	1880.695025862842	102
1	4868	1880.980766946293	102
1	4870	1881.599617836117	103
1	4875	1882.850044167894	104
1	4877	1883.09514259926	105
1	4879	1883.11235888034	106
1	4881	1883.253842732748	107
1	4882	1885.154764008973	107
1	4883	1885.566777120193	106
1	4891	1887.689010436305	106
1	4893	1887.784817704616	107
1	4895	1888.685565396534	108
1	4896	1888.877749187931	108
1	4898	1889.176261981239	108
1	4900	1889.356821268289	109
1	4901	1889.630299656129	109
1	4902	1890.177972772911	108
1	4907	1891.922945452433	108
1	4909	1892.435052802091	109
1	4928	1902.04148484228	109
1	4929	1902.316610418669	108
1	4933	1902.694815390507	107
1	4935	1902.821646007932	107
1	4936	1903.814548078552	107
1	4940	1905.189601840625	106
1	4941	1906.254692623581	105
1	4946	1906.924367791007	105
1	4948	1907.728465011762	106
1	4949	1908.281543849285	106
1	4951	1911.952468992716	106
1	4953	1912.244450421893	107
1	4955	1912.98966827305	108
1	4956	1913.041924099629	108
1	4958	1914.999343628493	108
1	4959	1915.992341995147	108
1	4961	1916.489814732526	108
1	4965	1917.737374168535	108
1	4969	1917.963813245864	108
1	4972	1918.278299483868	109
1	4973	1918.358760996972	109
1	4974	1918.540027882867	108
1	4978	1921.325303306321	107
1	4979	1922.061793818451	106
1	4980	1922.668669060278	105
1	4982	1922.676782183453	105
1	4984	1923.177079991408	106
1	4985	1923.774010563325	106
1	4986	1924.868458626008	105
1	4987	1926.486099332161	104
1	4994	1927.760043042168	104
1	4997	1929.678588009613	105
1	4998	1929.83842481115	105
1	5000	1930.030814131623	105
1	5001	1930.717387622474	105
1	5002	1931.428478060385	104
1	5003	1931.489058414634	103
1	5010	1932.195314468924	103
1	5012	1932.467016363639	103
1	5013	1933.099895065229	102
1	5017	1936.349459529315	101
1	5024	1937.262555530414	101
1	5026	1937.537547040705	102
1	5028	1940.204121156397	102
1	5030	1940.628438584576	102
1	5032	1940.64229452649	103
1	5033	1941.408877049241	103
1	5034	1943.019142801452	102
1	5036	1943.91459693529	102
1	5037	1944.28060147325	102
1	5039	1944.707887351225	102
1	5041	1945.073068490141	103
1	5046	1946.958879072992	104
1	5053	1948.303876856256	104
1	5055	1948.715979684973	104
1	5062	1950.5648448579	105
1	5068	1953.553123589243	106
1	5069	1956.277836376592	106
1	5071	1959.341081675722	106
1	5076	1960.727135175007	107
1	5078	1962.412296595139	108
1	5082	1963.663774115297	108
1	5083	1963.727082201374	107
1	5087	1964.96659867449	107
1	5090	1966.635036448321	108
1	5092	1966.93078204882	109
1	5093	1967.307227283356	109
1	5095	1967.453970832875	109
1	5097	1967.997073073621	110
1	5104	1969.301041050476	110
1	5105	1969.651180321635	109
1	5109	1970.417237834041	109
1	5111	1970.787657859042	110
1	5113	1971.190421143073	110
1	5114	1972.394784767501	109
1	5115	1972.800673795002	108
1	5116	1972.943346895008	107
1	5123	1975.318781094897	106
1	5125	1975.609067289961	106
1	5127	1975.851184214343	107
1	5128	1977.024736117367	107
1	5132	1977.705332717482	106
1	5136	1978.222899029022	105
1	5137	1978.688960364838	104
1	5147	1982.771573377751	104
1	5150	1983.577177345949	105
1	5152	1984.539598604976	106
1	5154	1984.92587169578	107
1	5156	1986.04189645908	108
1	5158	1987.677325619092	109
1	5160	1988.389964268113	110
1	5161	1988.9575170627	110
1	5165	1993.470320809701	109
1	5170	1994.935300884494	109
1	5175	1996.148374779475	110
1	5177	1996.471899617038	111
1	5178	1997.025539212759	111
2	0	0	0
2	19	7.547323132492	1
2	26	9.235833026341	2
2	31	11.402972799142	3
2	34	11.656619546288	4
2	41	12.68334479991	5
2	47	13.674674254569	6
2	50	13.958959736799	7
2	58	17.223110903715	8
2	63	19.68009147452	9
2	70	22.157586988033	10
2	76	26.736575449527	11
2	79	27.11676197049	12
2	84	27.554126866238	13
2	87	29.655215734617	14
2	90	29.817919297492	15
2	111	39.570764087147	16
2	120	43.966279642777	17
2	124	44.798150049973	18
2	137	46.755780832989	19
2	143	48.625632631007	20
2	146	49.181561914802	21
2	151	49.342841402974	22
2	154	50.437646615839	23
2	163	52.469028279584	24
2	168	55.746079787595	25
2	174	57.629486346484	26
2	177	58.992707848623	27
2	184	60.066683126356	28
2	205	73.338276053175	29
2	217	78.639565273048	30
2	228	83.575749373739	31
2	249	90.736339424408	32
[...]
10	1855	718.528691466958	1.027100071183
10	1858	718.679781956101	0.523564113034
10	1869	723.611286548922	0.61435246514
10	1877	727.732032102246	1.07550536978
10	1884	728.075109744175	0.012717138757
10	1888	729.935260306269	0.080250213589
10	1894	731.957785835297	0.118478873247
10	1898	732.65994280229	0.29681120909
10	1901	733.458657369171	0.369317611617
10	1916	739.658179178051	0.190596769316
10	1923	740.88983476092	0.701161495009
10	1947	750.353571185153	0.368016188561
10	1951	751.605599985607	0.266351446897
10	1959	753.683314102994	0.042812122726
10	1960	754.048560380248	0.370645260139
10	1971	757.950623015236	0.308360071802
10	1976	758.309373774829	0.273431230553
10	1977	758.76105880738	0.709839639777
10	1981	762.949591397913	0.839482621921
10	1984	763.458549928323	0.279148902482
10	1987	763.547759098004	0.012253890407
10	1994	765.556195816207	0.015813807001
10	1997	766.35592554843	0.121573765358
10	2002	767.782630213517	0.679365252138
10	2003	768.110066120868	0.596582379833
10	2007	769.940486988596	0.585692799529
10	2015	772.379768456959	0.318881225439
10	2020	774.800666492709	0.010830951881
10	2029	777.622493467775	0.041896403587
10	2038	779.316876822491	0.360797172616
10	2056	786.639524467384	0.998851410514
10	2064	793.427871547871	0.331183390184
10	2071	793.983425947703	0.526812826731
10	2081	796.257588079658	0.169714886799
10	2087	798.532920822782	0.703491158188
10	2092	802.046208865329	0.6590557167
10	2095	802.77099782088	0.255423077414
10	2106	804.679210254139	0.556926042051
10	2109	805.294190900297	0.451370452719
10	2121	809.398030306869	0.300479229808
10	2127	814.093667251566	0.31696229519
10	2130	814.473146767115	0.322870649132
10	2133	816.484144135445	1.157354033
10	2138	818.71283596873	0.18968905952
10	2147	820.407058210726	0.167408769392
10	2164	830.112491493337	0.049392462292
10	2180	836.595437904416	0.215521552148
10	2196	841.939712790251	0.768870994704
10	2197	842.195945103527	0.720377291443
10	2198	842.38198513311	0.633988022712
10	2212	847.516298336606	0.245123741583
10	2224	854.058413041181	0.629165707413
10	2232	855.886256320424	0.748938903849
10	2233	856.191167705352	0.4816948094
10	2242	858.057530173041	0.400604732514
10	2260	863.297220982675	0.214577659274
10	2263	863.699921655126	0.19585846373
10	2271	867.104230740316	1.734236684286
10	2280	869.674832123265	0.466513964752
10	2281	869.711618092713	0.365448112191
10	2289	874.216879830727	0.077459463634
10	2292	875.612851227447	1.310336031283
10	2296	876.505581621296	0.051110822728
10	2306	881.505783640649	0.337892033356
10	2309	881.991991731216	0.294317024383
10	2312	883.324123670072	0.285574262305
10	2318	885.835338315122	0.413263574203
10	2322	886.826011643727	0.248488160394
10	2327	888.395454572123	0.579404210948
10	2331	889.339327455094	0.032623604458
10	2334	890.872570021264	1.326511639598
10	2344	894.573731221055	0.382088023099
10	2345	895.602882573293	1.140802080623
10	2348	896.637173353302	0.630085269026
10	2353	898.508275303949	0.52520423593
10	2356	899.797485231989	0.529759672937
10	2367	904.823304502462	0.820862125836
10	2376	909.919139458443	1.965395261283
10	2383	913.963354734281	0.727033432359
10	2390	920.15976253492	0.963566543436
10	2391	920.458097961459	0.749517148518
10	2401	922.172954315561	0.092432156393
10	2402	922.31584771881	0.192551197579
10	2413	927.86286379535	0.360845188231
10	2432	934.853719361195	0.318184092617
10	2437	937.118552221186	0.890502243789
10	2442	938.579137532525	0.506645456771
10	2446	939.969957708607	0.319460951186
10	2449	940.333158610397	0.19777727166
10	2452	940.899007234508	0.520521466529
10	2457	942.337032521381	0.558341645306
10	2460	942.810066295219	0.472482256347
10	2468	946.259075680765	0.003320963619
10	2477	949.69210804929	1.236841303714
10	2484	950.748178977845	0.803476189349
10	2494	953.689979173417	0.044209522687
10	2497	955.880635198958	0.616634581977
10	2500	956.207431830931	0.297211948409
10	2503	956.393808483407	0.022653655892
10	2508	959.096926873681	0.276971074845
10	2511	961.141921459508	1.037261680367
10	2514	961.309665153014	0.067039112235
10	2518	963.345029820019	0.121963761473
10	2534	968.420591920281	1.049302256671
10	2545	973.257915466919	3.615963944401
10	2555	976.899348820094	0.369372256268
10	2556	976.935678852749	0.388422684724
10	2574	981.71936339222	0.670772896745
10	2575	982.38455967447	0.91004376603
10	2580	986.180389932724	1.258185094115
10	2586	987.937227184059	0.94798816417
10	2599	992.856105338544	1.104335204917
10	2600	992.910398490075	0.159377690664
10	2605	996.534785384895	0.470796144934
10	2615	1000.697558131056	0.005599376021
10	2619	1001.855407522561	0.110232921745
10	2623	1003.23026882824	0.071896733516
10	2634	1007.509027790598	0.084734802212
10	2637	1009.003042201641	0.071596879047
10	2642	1009.422519191492	0.225373300999
10	2645	1010.448787614264	0.624550535481
10	2656	1013.397876634187	0.548534612718
10	2659	1013.675390117133	0.127047834913
10	2665	1016.887189671947	0.378541949873
10	2670	1017.860322349307	0.315524257216
10	2675	1020.688554690344	0.105128943009
10	2688	1025.703535597023	0.799536381016
10	2689	1025.763334531682	0.241791123961
10	2696	1028.505178842069	0.158134185112
10	2708	1033.20347499783	1.582883754807
10	2722	1037.521445612802	0.549070569639
10	2723	1037.737444557893	0.407136646934
10	2736	1044.58207712151	0.915774647142
10	2739	1046.459791002489	1.463008989625
10	2748	1049.074623785651	1.750307986934
10	2749	1049.429062434988	0.414533172938
10	2757	1057.192340534789	0.055496376006
10	2761	1060.654976870024	0.668989183012
10	2767	1063.522050822532	0.428346158331
10	2775	1066.406283983443	0.388659659017
10	2784	1068.486584790625	0.405882541774
10	2789	1070.61532347845	0.016104245203
10	2795	1076.456554375811	0.249022410033
10	2800	1077.028417383521	0.153847481689
10	2809	1079.256461118335	0.640194936954
10	2812	1079.294744404762	0.020038623196
10	2815	1080.861542189094	0.769777262698
10	2822	1081.59647930317	0.315752157371
10	2823	1081.987638532457	0.516294923426
10	2837	1087.814553331144	0.119614210438
10	2842	1088.146292073369	0.248190919499
10	2855	1093.136385309836	1.369311795721
10	2858	1093.385706792691	0.009331948527
10	2866	1095.8977165424	0.065619930282
10	2870	1096.836181438621	0.069334731485
10	2877	1099.726520128273	0.789043744184
10	2887	1104.488486774605	0.613070144611
10	2892	1107.482508496002	1.473205055559
10	2895	1107.600469337551	0.008811308168
10	2898	1108.675087875115	0.302947648703
10	2901	1111.001334619723	0.270385882328
10	2912	1115.362264456819	0.197212191954
10	2930	1122.028477770284	0.106017722358
10	2934	1125.135712373081	0.106584485487
10	2940	1129.780890202813	1.028656159061
10	2955	1137.888698777339	0.885873376979
10	2956	1138.41612844243	1.118014802222
10	2963	1142.002695111325	0.219773477073
10	2966	1142.208330042564	0.064859532657
10	2969	1143.782231020838	0.436417107768
10	2974	1145.844884496878	0.197020203654
10	2981	1147.305867467447	0.830310059379
10	2982	1147.350302861205	0.378177947589
10	2988	1149.904529214313	0.337164891882
10	2991	1150.496268056738	0.132483472892
10	2996	1152.280605576243	1.317086817574
10	3000	1153.238695846902	0.367035048629
10	3009	1156.203584305692	1.384295287193
10	3010	1156.406373353589	1.562823132411
10	3017	1161.14190367635	0.201976393874
10	3027	1164.103755455665	0.018432903216
10	3040	1170.387568183157	0.124921448687
10	3057	1175.357731734449	0.475498164665
10	3060	1176.331835390365	0.060644290215
10	3063	1178.124739207838	0.038978453861
10	3077	1183.385009735797	0.614258574042
10	3082	1185.46484605036	1.345138593408
10	3083	1185.603593681259	0.351265297753
10	3095	1189.619269186891	0.63099131258
10	3099	1190.954332471379	0.234263748932
10	3112	1197.284151667288	0.869223014474
10	3119	1201.626120900927	0.068691446035
10	3134	1205.684166523919	1.346379676588
10	3139	1207.053891935351	0.6226016887
10	3142	1207.41428486494	0.35346623916
10	3160	1209.602341117891	0.544339680736
10	3170	1215.884215267007	0.814906403458
10	3171	1216.616098309344	1.420798915781
10	3176	1218.188768136926	0.342209323988
10	3204	1226.75771199964	0.335402189993
10	3207	1227.651855993795	0.579568337298
10	3212	1228.391335817714	0.705163535132
10	3218	1230.521418465093	0.812132981873
10	3236	1238.41906922954	0.449944433997
10	3243	1241.85049235465	1.753550549044
10	3244	1242.093459705992	0.380156632868
10	3252	1243.973591460602	0.95841905703
10	3253	1244.979788793853	1.466553719146
10	3254	1245.007125635689	1.313553704193
10	3273	1253.203368723011	0.050787092164
10	3286	1264.229367125706	0.133739961601
10	3304	1269.693652397668	0.591149795025
10	3307	1270.295025876771	0.942225811592
10	3317	1273.741106921924	0.695001453882
10	3318	1274.471812112878	1.356617284463
10	3321	1275.591413729046	0.480479425345
10	3328	1276.992972493753	0.687894650272
10	3333	1278.198619794625	0.916069408662
10	3336	1279.853436543233	0.010259277339
10	3344	1282.544297826516	0.908351781157
10	3348	1288.223572789926	0.476099343071
10	3360	1291.411896665218	0.009896557749
10	3363	1292.070116208219	0.051823322933
10	3372	1296.772633392697	0.674591275212
10	3390	1302.146161928195	0.461662671485
10	3391	1302.439376654188	0.357781885582
10	3406	1309.595147325756	0.319775105419
10	3422	1314.874216625049	0.157186292938
10	3428	1315.693521063129	0.416487005945
10	3429	1315.733235092426	0.08764550158
10	3450	1322.647886406685	0.180546877131
10	3456	1324.937974643214	0.462851442594
10	3460	1327.992986239941	0.952716980746
10	3480	1336.920221691061	0.046972226301
10	3491	1339.369918325972	0.233969050571
10	3496	1340.536282489275	0.483328497866
10	3499	1341.84908673387	0.346414413942
10	3506	1342.858739933641	0.505396093698
10	3507	1342.981728603298	0.228448482961
10	3510	1343.752653234808	0.23236576892
10	3522	1346.151195042005	0.775304697573
10	3530	1352.573592871643	0.528819238237
10	3533	1353.36087218909	0.999232420022
10	3545	1357.937333598121	0.149899723443
10	3554	1363.208608371432	0.30558640689
10	3557	1365.010428220231	0.676832197945
10	3566	1367.461446249018	0.803314975098
10	3576	1369.158122394041	0.362521613802
10	3577	1369.184871190387	0.146813420737
10	3582	1374.146813394877	0.065711968736
10	3585	1375.417997589366	0.097142129898
10	3589	1376.659835680439	0.758479619158
10	3593	1378.698373522574	0.483160924464
10	3598	1379.212904816251	0.433211619771
10	3601	1379.780506638072	0.125741885134
10	3607	1380.174556505009	0.211911805848
10	3615	1386.051412348557	0.341645934585
10	3624	1388.171719021054	1.488667863305
10	3629	1388.514422440255	0.060744080456
10	3632	1389.003965890754	0.031999253416
10	3641	1393.569836387424	0.596591837142
10	3646	1394.483553509786	0.171518673969
10	3659	1399.271794920738	0.043911301207
10	3662	1400.864924422375	0.95405309719
10	3668	1402.975158994892	0.244180399922
10	3674	1406.830968316191	2.477067405619
10	3681	1408.173277835839	0.445713220467
10	3686	1409.720898592307	0.526613988026
10	3689	1410.090866694534	0.015153422213
10	3699	1416.542306827068	0.126642734942
10	3703	1417.787662888674	0.264125447936
10	3715	1419.214218057041	0.352062714305
10	3733	1424.379853303038	0.285170324357
10	3734	1424.634348966022	0.479758224959
10	3737	1425.072790708582	0.872339716911
10	3738	1425.634388643354	1.362279490577
10	3739	1426.183262163577	1.327360226421
10	3746	1428.884659947637	0.158679313915
10	3753	1430.875798255272	0.527616552467
10	3758	1432.031393527209	1.322383499968
10	3772	1434.567158587377	0.790352302993
10	3789	1441.961114320587	0.141973647343
10	3795	1444.793322943141	0.021300953781
10	3812	1453.448452863284	0.038619978553
10	3821	1455.989349863099	0.456204833955
10	3824	1457.480935720237	0.047034300153
10	3832	1463.684956680804	0.282555116095
10	3846	1466.152197463128	1.396678338674
10	3849	1466.591909615195	0.981623589711
10	3850	1467.837481053638	2.073363191161
10	3855	1469.892400721494	0.270729369083
10	3859	1470.746479163252	0.043835140866
10	3868	1473.962710456401	0.051996393429
10	3871	1475.15670663251	0.055001913121
10	3876	1475.764481830642	0.192513071633
10	3896	1484.769021239144	0.251897463443
10	3899	1488.085630381517	0.805501259063
10	3909	1491.003724656079	0.037984163318
10	3917	1492.996361025021	0.477878414146
10	3922	1493.592576966491	0.311282722957
10	3923	1494.861692562381	1.286643017152
10	3937	1505.311758522871	0.165075419147
10	3955	1515.118365344793	0.209664166746
10	3960	1516.042444537102	0.074304469394
10	3975	1524.688017574015	0.815608328726
10	3981	1526.643241836642	0.919805869858
10	3982	1527.067660055654	0.933581579232
10	3996	1531.158979258562	0.442115131834
10	4017	1540.097470395428	0.09803444925
10	4024	1542.012728894406	0.331166309153
10	4027	1542.760356908676	0.275268448252
10	4032	1546.141478696556	0.207639640229
10	4042	1548.102914209338	0.551386366686
10	4045	1548.317221756618	0.116932268251
10	4051	1550.987750112317	0.897565656886
10	4060	1552.740783154819	1.815263035035
10	4065	1553.805528539876	0.121768199492
10	4074	1556.979938127382	0.046919238994
10	4077	1560.694453101289	0.698535702757
10	4082	1561.282090508015	0.098339259417
10	4092	1562.76810236975	0.313778003618
10	4095	1562.979282398041	0.50026073206
10	4102	1565.249687369089	1.555708478475
10	4103	1566.183658701838	1.783640146312
10	4108	1567.281790450952	0.093964216153
10	4114	1568.367009225546	0.40748709987
10	4121	1570.060023541145	1.285840869268
10	4124	1570.371551700401	1.258152246714
10	4129	1573.492251013662	3.903118381617
10	4134	1575.32963324339	0.954153437446
10	4137	1576.283264447125	1.224901205358
10	4138	1576.386755461062	0.164836423394
10	4143	1577.55989329131	0.310318555683
10	4148	1579.125996351555	0.625108232535
10	4157	1584.691073094841	0.388268349637
10	4158	1584.772884585127	0.296382317341
10	4164	1586.856989003452	0.089417460829
10	4175	1593.726698144519	0.668293430407
10	4182	1599.597786273311	1.074097020413
10	4187	1603.087192193158	2.698119854877
10	4195	1605.472469433871	0.132931026428
10	4206	1611.335488041427	0.280192994494
10	4214	1614.104271950754	0.95194574386
10	4215	1614.488754238871	1.144821480693
10	4216	1614.559813148704	0.609303743466
10	4230	1619.765234991352	0.609355750714
10	4244	1627.011057999923	0.116993816456
10	4262	1633.084328031646	0.207681422209
10	4270	1636.974710961057	0.695415280983
10	4277	1640.843248475668	2.544185513811
10	4278	1641.224136626138	2.613558809319
10	4279	1641.776796061603	2.153423553038
10	4282	1642.243322805351	0.338713158051
10	4285	1642.685702026677	0.004669997837
10	4296	1646.194640211703	0.218314610276
10	4306	1650.098558586374	0.754180316299
10	4309	1650.987042428134	0.331541846671
10	4312	1652.282105994441	0.006095329449
10	4326	1654.212097932495	0.809956289985
10	4327	1654.955809458685	1.490338623551
10	4328	1655.532315170221	1.353076204693
10	4342	1662.459951500958	0.131758081257
10	4347	1663.295650139706	0.218055546922
10	4351	1668.877584268133	0.100534389868
10	4360	1674.389713567619	0.531537919085
10	4361	1674.418985373737	0.088138830666
10	4367	1678.02276182094	0.825267635873
10	4376	1678.971469169399	0.636186571321
10	4379	1679.668304775576	1.183010962418
10	4380	1679.873168036332	0.384089578452
10	4386	1680.563106681479	0.178443561064
10	4401	1688.944280969114	1.918269409467
10	4402	1689.562939177764	1.36244641599
10	4405	1690.861581240402	2.478211421118
10	4414	1695.30635115023	0.099587066068
10	4423	1702.775385095215	1.204740353647
10	4434	1704.053162072591	0.329836940721
10	4437	1704.724394263662	0.118820259113
10	4442	1706.916269096357	0.082181434959
10	4450	1708.437121314283	0.065048258603
10	4457	1709.802089101056	1.359656200711
10	4460	1710.006787705136	0.113425455158
10	4465	1713.252513558911	0.550577839693
10	4476	1718.325227695887	0.56280510925
10	4482	1723.012153371164	0.334987815233
10	4485	1723.819358803479	0.227975911343
10	4489	1724.083539159764	0.160063317139
10	4494	1724.972698780783	0.239830896587
10	4495	1725.597764386425	0.835657856985
10	4502	1727.642763559878	0.609117758162
10	4510	1732.581214911015	0.776469566345
10	4514	1736.553380990713	0.020873737298
10	4522	1738.077248384217	0.238246894759
10	4527	1743.810422645604	0.848900736934
10	4541	1751.970101252373	1.399315943014
10	4552	1753.552511377417	0.033759291454
10	4567	1762.006719995541	0.081266332834
10	4578	1765.3616052515	3.207741020564
10	4579	1765.363716478391	1.643277468334
10	4582	1766.62434580315	1.513330956391
10	4583	1766.737759277909	0.569187748806
10	4590	1767.503251891807	0.686699130868
10	4591	1768.502575702245	1.553580991298
10	4592	1768.534581161041	1.153509334731
10	4603	1774.975023384178	0.066297093906
10	4615	1780.441484458109	0.639671388761
10	4616	1780.498687883245	0.283132639875
10	4619	1780.694413630306	0.168924734988
10	4635	1788.453016845713	0.084506924684
10	4654	1794.381134968335	0.720606023916
10	4659	1795.216239279854	0.003029821792
10	4665	1796.859097320998	0.844315802919
10	4668	1798.401944206866	0.062714919601
10	4671	1799.357213710919	0.10836237047
10	4674	1801.047728534722	0.703175805363
10	4679	1803.398911441035	0.1898634165
10	4682	1803.50072324012	0.022557789394
10	4685	1804.358218453327	0.63226711024
10	4695	1811.757487670081	0.282485161894
10	4699	1812.77229962236	0.345424707355
10	4704	1813.716493137671	0.230573368333
10	4715	1818.177997098708	0.45946633343
10	4723	1824.065060059213	3.814312879486
10	4724	1824.324987063072	1.95626059866
10	4729	1825.66751539914	0.299205203179
10	4733	1827.917384820914	0.420633262873
10	4748	1834.910329058601	0.476896497381
10	4757	1838.012063710474	0.107565883429
10	4762	1840.409327328919	0.431809631088
10	4773	1842.769325873718	0.448169156557
10	4774	1843.76971711939	1.070638168304
10	4783	1846.532940659987	1.261326908857
10	4784	1847.081061535484	0.618941758209
10	4787	1848.370834194541	0.751329802916
10	4792	1849.702108685713	0.085541016096
10	4802	1855.96583717438	0.846670972176
10	4808	1859.369380664918	0.646325079357
10	4813	1860.051552635922	0.357022081393
10	4814	1860.135081096946	0.205088695784
10	4817	1860.567567847383	0.336983009183
10	4838	1869.200459020409	0.422833055802
10	4841	1869.821618564035	0.741007228346
10	4846	1871.61225507295	2.103507988535
10	4847	1871.69747251563	0.28236117644
10	4848	1871.90577297744	0.432409270456
10	4865	1880.477938347749	1.939152931384
10	4873	1882.457266693888	0.328880823058
10	4886	1887.170280029161	0.663173735621
10	4889	1887.627784470313	0.367483855145
10	4905	1890.533439395473	0.27354990899
10	4912	1893.738668533099	0.228063419065
10	4915	1894.243602965556	0.070948657696
10	4918	1895.85927550062	0.087221294499
10	4921	1898.504825820904	2.623539398621
10	4926	1899.373156876295	0.670233652962
10	4927	1900.93636460831	2.040792434853
10	4932	1902.406600982629	0.056094331128
10	4939	1904.975802108917	0.978019122455
10	4944	1906.344797054668	0.006429117829
10	4964	1916.651505961768	0.036524887916
10	4970	1918.157087508207	0.204187305501
10	4977	1919.746567066456	0.628687136409
10	4990	1926.886296970898	0.093822483395
10	4995	1927.809212433244	0.127041986996
10	5008	1932.056785559744	0.28427303513
10	5011	1932.391219571971	0.524848956055
10	5016	1933.754638302199	0.270685813275
10	5020	1936.555673212702	0.098909838971
10	5027	1937.799042937854	0.756679862892
10	5044	1945.833585307024	0.514943178036
10	5049	1947.097840398314	0.067415039664
10	5052	1947.474932164823	0.311403935903
10	5060	1950.337957174794	0.479036755766
10	5063	1951.030953514562	0.778283115853
10	5066	1953.331816458211	0.894520875568
10	5074	1959.626524161298	0.074423817613
10	5081	1962.937834023939	0.118832414652
10	5088	1966.426004968023	2.240326688941
10	5102	1968.926471622532	0.075215843063
10	5103	1969.019297816858	0.114462625751
10	5112	1970.856147007156	0.50282052428
10	5121	1973.568408910653	0.570947608288
10	5122	1974.138471138177	1.01822379977
10	5131	1977.656151167435	0.237078133116
10	5135	1978.201365988726	0.481571361745
10	5142	1980.475879116457	0.319971526157
10	5143	1981.069569827046	0.623144030265
10	5148	1982.875919302456	0.615790669215
10	5164	1992.963857943925	0.419116675088
10	5168	1994.895544814202	0.624951605935
10	5173	1995.990039027837	0.647660063611
11	5179	2000	0.439
12	5179	2000	0.387

