file 353029 1671470920                                          
version 2
run Monotonicity_test_recover_rate-427-20221219-18:28:40-16621
attr configname Monotonicity_test_recover_rate
attr datetime 20221219-18:28:40
attr experiment Monotonicity_test_recover_rate
attr inifile omnetpp.ini
attr iterationvars $0=100
attr iterationvarsf 100-
attr measurement $0=100
attr network Network
attr processid 16621
attr repetition 27
attr replication #27
attr resultdir results
attr runnumber 427
attr seedset 27
param *.minion.arrival_mean 2
param *.minion.service_mean 1.5
param *.boss.arrival_mean 2.5
param *.boss.service_mean 0.5
param *.player.recover_rate_x 100
param **.minion.arrival_distribution 0
param **.minion.service_distribution 0
param **.boss.arrival_distribution 0
param **.boss.service_distribution 0

vector 0 Network.player minion_jobs_number_stat:vector ETV
attr source signal_minion_jobs_number
vector 1 Network.player minion_jobs_queue_number_stat:vector ETV
attr source signal_minion_jobs_queue_number
vector 2 Network.player minion_recovered_stat:vector ETV
attr source signal_minion_recovered
vector 3 Network.player minion_defeated_stat:vector ETV
attr source signal_minion_defeated
vector 4 Network.player boss_jobs_number_stat:vector ETV
attr source signal_boss_jobs_number
vector 5 Network.player boss_jobs_queue_number_stat:vector ETV
attr source signal_boss_jobs_queue_number
vector 6 Network.player boss_defeated_stat:vector ETV
attr source signal_boss_defeated
vector 7 Network.player boss_waiting_time_stat:vector ETV
attr source signal_boss_waiting_time
vector 8 Network.player boss_response_time_stat:vector ETV
attr source signal_boss_response_time
vector 9 Network.player minion_waiting_time_stat:vector ETV
attr source signal_minion_waiting_time
vector 10 Network.player minion_response_time_stat:vector ETV
attr source signal_minion_response_time
vector 11 Network.player minion_throughput:vector ETV
attr source signal_minion_throughput
vector 12 Network.player boss_throughput:vector ETV
attr source signal_boss_throughput
0	1994 27493 0 5213 0 1998.885894915342 1004 0 135 82493 7824047
1	29487 51394 0 5214 0 1999.025163243606 1875 0 134 154334 14562162
2	80881 17039 0 5199 0 1990.410859824279 611 0 610 186355 75846485
3	97920 24452 0 5214 0 1999.025163243606 872 0 871 379756 220638236
4	122372 20328 0 5199 0 1990.410859824279 780 0 4 984 1480
5	142700 40657 0 5200 0 1990.457470960919 1559 0 3 410 582
6	183357 21787 0 5200 0 1990.457470960919 780 0 779 303810 157879930
7	205144 22468 2 5199 0.30841199507 1990.410859824279 779 0 3.029091858604 102.97223078412 117.75502479571
8	227612 30376 5 5200 0.782006316175 1990.457470960919 779 0.000776505647 4.277729748943 492.58568698885 615.90207959374
9	257988 59260 5 5214 0.782006316175 1999.025163243606 1482 0 166.80294734353 151742.47414031 17793546.066457
10	317248 35740 6 5214 2.20004701013 1999.025163243606 871 0.70670276414 167.89264339061 91852.804227352 10999951.334793
11	352988 20 5215 5215 2000 2000 1 0.4355 0.4355 0.4355 0.18966025
12	353008 20 5215 5215 2000 2000 1 0.3895 0.3895 0.3895 0.15171025

