version 2
run Monotonicity_test_recover_rate-337-20221219-18:28:21-16167
attr configname Monotonicity_test_recover_rate
attr datetime 20221219-18:28:21
attr experiment Monotonicity_test_recover_rate
attr inifile omnetpp.ini
attr iterationvars $0=75
attr iterationvarsf 75-
attr measurement $0=75
attr network Network
attr processid 16167
attr repetition 37
attr replication #37
attr resultdir results
attr runnumber 337
attr seedset 37
param *.minion.arrival_mean 2
param *.minion.service_mean 1.5
param *.boss.arrival_mean 2.5
param *.boss.service_mean 0.5
param *.player.recover_rate_x 75
param **.minion.arrival_distribution 0
param **.minion.service_distribution 0
param **.boss.arrival_distribution 0
param **.boss.service_distribution 0

vector 0 Network.player minion_jobs_number_stat:vector ETV
attr source signal_minion_jobs_number
vector 1 Network.player minion_jobs_queue_number_stat:vector ETV
attr source signal_minion_jobs_queue_number
vector 2 Network.player minion_recovered_stat:vector ETV
attr source signal_minion_recovered
vector 3 Network.player minion_defeated_stat:vector ETV
attr source signal_minion_defeated
vector 4 Network.player boss_jobs_number_stat:vector ETV
attr source signal_boss_jobs_number
vector 5 Network.player boss_jobs_queue_number_stat:vector ETV
attr source signal_boss_jobs_queue_number
vector 6 Network.player boss_defeated_stat:vector ETV
attr source signal_boss_defeated
vector 7 Network.player minion_waiting_time_stat:vector ETV
attr source signal_minion_waiting_time
vector 8 Network.player minion_response_time_stat:vector ETV
attr source signal_minion_response_time
vector 9 Network.player boss_waiting_time_stat:vector ETV
attr source signal_boss_waiting_time
vector 10 Network.player boss_response_time_stat:vector ETV
attr source signal_boss_response_time
vector 11 Network.player minion_throughput:vector ETV
attr source signal_minion_throughput
vector 12 Network.player boss_throughput:vector ETV
attr source signal_boss_throughput
0	0	0	0
0	2	1.713243040541	1
0	4	2.072405856538	2
0	6	2.374768989996	3
0	8	4.422188813995	4
0	10	4.766787251966	5
0	14	5.238039751501	4
0	16	5.366999720269	5
0	22	10.36418077997	5
0	25	12.079063940373	5
0	36	20.103966034015	6
0	41	21.968832322387	7
0	53	27.257651253973	7
0	55	27.771890398775	8
0	57	28.678793653217	9
0	68	33.605124146138	9
0	77	39.142135327527	7
0	82	44.08533041552	7
0	86	44.908489276031	8
0	90	49.32738780127	9
0	93	50.292658592724	9
0	99	52.788928886532	9
0	108	54.576302460931	9
0	113	56.252053647946	7
0	115	56.435485546866	8
0	122	59.402495001787	7
0	124	60.017904828559	8
0	126	60.062832947541	9
0	128	60.988071481002	10
0	133	62.901895875521	10
0	136	63.163853798745	11
0	138	63.770324101753	12
0	153	70.640541097308	8
0	156	71.255381517033	9
0	165	73.260993209247	5
0	172	74.239125752343	6
0	175	74.98789563311	7
0	177	75.353244290612	8
0	179	75.77951698557	9
0	182	76.647929827401	10
0	184	77.213853321362	11
0	186	78.814039317243	12
0	188	79.51139222852	13
0	194	80.699896272795	13
0	201	84.530706249716	12
0	203	85.753882598377	13
0	205	86.765730441338	14
0	209	89.283097422161	13
0	217	92.410988510339	14
0	225	93.888342356725	14
0	233	97.599820809322	13
0	235	98.988750539064	14
0	240	101.804705630061	12
0	242	102.609023611886	13
0	244	102.631943777672	14
0	247	103.692743170326	14
0	249	104.986516871042	15
0	251	105.38852919507	16
0	253	105.98512904538	17
0	256	107.820024464819	17
0	261	109.122426452311	15
0	268	114.073059198988	14
0	270	114.120868669517	15
0	275	114.999193795914	16
0	280	115.875401444246	16
0	283	117.614753516737	17
0	289	119.712564068237	17
0	296	122.639904107914	18
0	306	125.294797518924	18
0	310	126.957014236991	19
0	313	127.459215525161	20
0	318	130.183144750654	21
0	320	130.44049576956	22
0	328	131.616891467084	22
0	336	133.636890516942	23
0	345	137.40897311276	23
0	353	139.031989587338	22
0	360	142.586798994021	21
0	362	143.762230675702	22
0	365	144.054837366093	22
0	369	145.648999835491	23
0	373	148.511732164015	23
0	375	148.942869907388	24
0	378	149.250512750272	24
0	382	149.816008143513	25
0	395	153.154957627527	24
0	397	153.588596119831	25
0	402	154.793916622446	26
0	406	155.16182318506	27
0	414	158.427203566831	27
0	416	158.655481182001	28
0	422	160.433138634401	28
0	440	166.901045412662	22
0	445	168.455953345827	23
0	447	169.018043514659	24
0	449	170.96955383552	25
0	456	172.44344241813	26
0	485	184.548483694205	23
0	490	185.53567930502	24
0	495	187.169398274864	24
0	497	187.242844053752	25
0	499	187.334467946368	26
0	502	189.26548838988	26
0	512	190.8357252982	25
0	521	193.017457260125	25
0	528	195.37383567109	26
0	537	201.073678088945	27
0	539	201.655142409979	28
0	544	204.186646123362	29
0	546	204.388417910943	30
0	549	206.482859260689	30
0	551	208.086539795373	31
0	553	208.117431064601	32
0	555	208.128252115449	33
0	559	210.004282485254	32
0	561	213.743893980709	33
0	563	213.960353367358	34
0	569	217.117902722927	34
0	577	221.782104023946	32
0	584	224.698983745417	31
0	586	225.508620752276	32
0	590	227.727488048352	31
0	592	227.795254271413	32
0	594	228.66311732151	33
0	601	232.638999372383	29
0	605	233.46694318767	30
0	608	235.905132541083	31
0	625	244.482118377005	29
0	628	245.484008807015	29
0	632	245.918146971763	30
0	639	249.087797764622	30
0	644	249.916699085308	31
0	648	251.185470341114	32
0	653	251.468885367826	33
0	659	257.042229095455	34
0	661	259.762921896171	35
0	666	262.553851717497	36
0	670	266.605118323867	35
0	672	268.168203577185	36
0	680	270.684753970569	36
0	683	271.001670163808	37
0	685	271.023686241679	38
0	687	271.064961902411	39
0	696	276.585040975235	39
0	708	280.462750734589	36
0	717	281.474338760926	36
0	719	281.626849248627	37
0	721	282.025650777599	38
0	723	283.000451627272	39
0	731	285.201495778513	40
0	737	286.805185714638	37
0	751	291.617020955182	35
0	754	292.93318189415	35
0	756	293.673784443482	36
0	775	298.384897583998	36
0	778	298.722361827932	37
0	781	299.692698638514	38
0	785	301.155531092243	37
0	787	302.069022555471	38
0	792	304.223303169643	39
0	794	307.935552990595	40
0	797	310.422948991396	40
0	804	314.253055877233	39
0	808	315.874246982937	38
0	826	321.167491723764	38
0	838	325.534516223447	35
0	841	327.104629850094	35
0	843	327.124938228357	36
0	846	327.834420264426	36
0	849	328.569508353518	36
0	851	328.575075767493	37
0	853	329.249080577147	38
0	855	332.331628536724	39
0	857	333.084926905336	40
0	860	334.098682272614	40
0	864	337.096019918395	39
0	866	337.783174754371	40
0	868	337.958520925728	41
0	871	341.213211325712	41
0	876	342.562153605126	41
0	890	344.427081274745	42
0	896	350.154018161815	40
0	900	350.728744188069	39
0	912	352.039141413193	38
0	915	352.884107318314	39
0	939	365.183375926291	36
0	944	365.925476027989	37
0	947	368.663605659042	37
0	949	370.022621227879	38
0	952	371.277629866211	38
0	974	375.389172924848	37
0	978	376.847790729443	38
0	981	377.512377833052	39
0	984	380.060805045868	39
0	987	382.186774481945	39
0	992	384.07032297332	40
0	994	385.177792013556	41
0	996	385.764623165592	42
0	1018	394.583806623193	35
0	1022	394.833524247942	36
0	1026	396.40062769313	36
0	1028	396.568683207636	37
0	1030	397.399315080829	38
0	1036	399.501714315224	38
0	1048	403.964018088639	38
0	1050	405.467995336129	39
0	1058	407.856133420095	37
0	1065	408.691810789551	38
0	1068	410.016700427066	39
0	1079	414.566027561824	37
0	1083	415.3204723805	38
0	1088	419.12915739151	37
0	1090	419.256709794293	38
0	1093	420.449680290786	38
0	1098	421.783894789737	39
0	1103	424.952673925751	40
0	1122	430.697089483878	36
0	1126	431.324377972998	37
0	1129	432.316127951706	38
0	1131	432.380931538054	39
0	1133	433.174387611749	40
0	1138	433.794164128324	41
0	1141	434.261810455646	41
0	1145	436.083553889246	42
0	1150	437.853235879841	41
0	1152	439.719796885904	42
0	1154	439.760754659685	43
0	1156	440.266001785361	44
0	1166	442.191693596935	45
0	1168	443.279621816094	46
0	1174	444.656701978625	47
0	1178	446.168113667092	46
0	1180	446.713497515215	47
0	1182	447.529571348346	48
0	1190	449.019049902119	49
0	1198	452.311643849904	50
0	1200	452.434897971988	51
0	1208	453.56399225055	51
0	1211	455.347574865572	52
0	1213	456.32516414145	53
0	1216	458.46565282731	53
0	1225	465.625418360108	53
0	1227	465.912329301414	54
0	1229	465.943939750396	55
0	1238	470.853583479085	55
0	1247	473.02213806358	55
0	1249	473.236761959767	56
0	1251	473.399762856236	57
0	1257	475.685644934276	57
0	1262	476.694799176353	58
0	1266	476.906674798998	59
0	1270	477.194193294815	60
0	1272	477.351727191269	61
0	1277	479.590344688354	62
0	1286	482.311771944785	63
0	1293	487.565530117414	63
0	1302	491.642160058017	63
0	1304	492.09316591003	64
0	1310	493.371686176245	64
0	1315	495.893735142703	65
0	1317	496.370743138061	66
0	1325	501.549713205597	66
0	1333	505.561694307951	65
0	1340	511.54502892541	64
0	1346	512.923684305201	64
0	1348	513.135150363307	65
0	1361	517.127876556698	64
0	1366	520.659236497052	62
0	1369	522.567815331456	62
0	1378	525.621910445735	62
0	1383	528.162562711605	62
0	1389	530.964709620535	63
0	1394	533.642193419108	61
0	1396	534.054195421198	62
0	1398	534.554626632881	63
0	1403	536.065827297277	64
0	1408	537.218192473789	65
0	1411	537.577221717397	65
0	1413	538.561400675242	66
0	1416	540.488720729993	66
0	1420	541.413360508348	65
0	1429	545.50728557634	65
0	1431	547.661509371484	66
0	1434	549.281490323395	66
0	1436	549.435570349777	67
0	1438	549.556153125206	68
0	1440	549.974875308688	69
0	1442	550.100203474148	70
0	1445	550.774361437801	70
0	1447	550.948679164915	71
0	1449	551.078301880687	72
0	1453	552.37629375047	73
0	1463	558.594600379595	73
0	1465	559.235287464986	74
0	1471	560.294708335514	74
0	1473	562.790139320962	75
0	1475	563.638323268537	76
0	1483	565.798009086334	77
0	1485	566.209049819672	78
0	1492	568.071739102315	79
0	1496	568.207701084586	80
0	1505	570.79065381189	81
0	1517	575.079622122029	82
0	1521	578.183189816517	81
0	1527	581.99294713899	78
0	1530	584.525938219257	78
0	1533	585.182469947335	78
0	1535	585.355433869591	79
0	1540	588.868856335603	80
0	1544	590.83282907121	79
0	1554	595.815209876606	78
0	1557	596.917576061068	78
0	1562	599.729315424485	76
0	1565	601.029590322861	76
0	1567	602.918496175177	77
0	1570	604.256417904326	77
0	1576	605.859207724481	77
0	1578	606.777476195162	78
0	1581	608.578914084149	78
0	1586	609.035365432301	79
0	1592	610.57880637851	79
0	1594	610.659550741156	80
0	1596	612.906556812091	81
0	1598	613.130796327584	82
0	1600	613.43148319739	83
0	1621	623.80364327864	80
0	1626	626.679849870366	81
0	1629	627.383074720524	81
0	1631	627.464051500673	82
0	1634	628.307009295537	82
0	1647	631.330941426705	81
0	1649	631.362858260797	82
0	1654	632.220240040895	83
0	1666	637.824217104912	80
0	1670	640.379406711088	79
0	1672	640.662721257293	80
0	1674	641.140969913776	81
0	1676	641.1525058725	82
0	1679	641.766131968534	82
0	1682	643.280421356577	82
0	1688	646.37081551057	82
0	1690	646.50890807424	83
0	1692	646.897224558175	84
0	1694	647.931778861868	85
0	1702	648.629413322738	86
0	1708	653.215927489925	86
0	1721	656.80584433621	87
0	1729	660.191529632979	86
0	1739	664.053805244918	85
0	1742	666.110991542376	85
0	1745	669.439223058327	85
0	1747	669.800257016931	86
0	1749	670.846748716188	87
0	1755	673.013769092367	87
0	1757	673.323788157421	88
0	1773	680.000394172339	84
0	1775	680.331457247165	85
0	1779	682.374089215156	86
0	1782	682.90741565434	87
0	1784	682.980041562595	88
0	1792	684.140775003437	86
0	1796	685.535177809971	85
0	1799	686.127760015912	85
0	1802	687.401969287145	85
0	1809	689.717771848045	84
0	1833	695.693859821338	82
0	1837	696.082292208325	83
0	1839	697.303686099176	84
0	1841	697.915652374306	85
0	1848	699.609576512086	86
0	1862	705.276586467329	85
0	1865	706.227480028288	85
0	1867	706.688822930092	86
0	1871	712.494650599283	85
0	1875	714.047096355647	84
0	1896	720.089089106014	81
0	1898	720.395158368963	82
0	1900	720.97636729992	83
0	1902	721.843771667517	84
0	1908	724.897836534271	84
0	1917	726.915907644544	84
0	1922	729.326411171262	85
0	1925	731.601989978936	85
0	1928	731.888335183984	85
0	1933	733.93755399237	86
0	1938	735.401299095076	87
0	1944	736.100048491589	88
0	1964	744.977151686523	85
0	1971	747.038682987606	84
0	1973	749.191863071607	85
0	1979	750.036325837248	85
0	2009	761.368972586951	82
0	2013	762.722464150684	83
0	2025	767.10608515735	84
0	2027	767.952468402604	85
0	2032	768.351636805962	86
0	2038	772.559604770437	86
0	2043	772.967986978257	87
0	2049	776.616211327801	87
0	2057	780.920192300173	88
0	2060	782.732894061214	88
0	2064	783.451515446598	89
0	2068	784.308430030919	89
0	2076	786.549195011148	89
0	2096	794.23644623447	89
0	2101	795.150080165381	90
0	2107	796.681930555565	91
0	2119	801.674227817447	92
0	2122	802.799523458984	92
0	2130	805.232105590664	93
0	2134	805.548622317289	94
0	2140	807.212605006652	95
0	2147	808.548441131823	94
0	2149	808.615994963981	95
0	2151	809.61286493503	96
0	2153	809.733005014067	97
0	2155	810.165647927656	98
0	2157	811.18587588092	99
0	2166	819.640986166523	96
0	2173	823.012520312894	92
0	2176	823.739658727192	92
0	2178	824.641935010937	93
0	2181	826.940477362516	93
0	2185	829.941600217504	92
0	2187	830.125674040549	93
0	2194	833.229508081434	92
0	2196	833.495824588675	93
0	2198	835.009891167478	94
0	2200	835.153834279141	95
0	2205	837.521509485153	96
0	2208	840.054925517434	96
0	2212	841.746954697572	97
0	2218	842.745154871121	98
0	2226	845.546479753765	98
0	2228	845.560209380267	99
0	2233	846.930286091483	100
0	2236	847.368192839657	101
0	2254	850.399493388444	100
0	2258	850.841270672491	100
0	2260	851.497347874606	101
0	2262	851.49890976606	102
0	2264	853.890116858075	103
0	2266	854.926398332675	104
0	2275	859.430140892372	101
0	2282	862.76781917777	102
0	2284	863.002947335021	103
0	2288	863.791894274576	104
0	2292	864.755797594161	105
0	2298	866.422835823474	105
0	2302	868.167313026458	106
0	2310	869.592152732927	105
0	2314	871.651330422054	104
0	2318	874.624472881391	103
0	2325	876.800819515027	102
0	2332	879.393128239259	101
0	2342	880.942790584264	100
0	2345	882.24993900176	100
0	2356	888.642357000024	95
0	2358	889.709565515752	96
0	2362	890.939200190481	95
0	2367	893.31806516971	96
0	2369	893.396654128653	97
0	2377	894.839568101011	98
0	2379	895.12969209419	99
0	2381	895.588301959066	100
0	2391	900.774569800957	99
0	2396	901.761493625118	100
0	2404	903.81050084277	101
0	2409	906.830809124372	102
0	2414	910.233752676796	100
0	2416	910.489061378169	101
0	2419	911.053705512928	101
0	2424	912.013020144801	102
0	2430	913.413846521589	99
0	2432	913.526222788211	100
0	2435	914.891363057015	100
0	2438	915.371505902122	100
0	2443	916.608815413371	101
0	2445	918.300958677452	102
0	2465	924.430340617741	101
0	2472	926.093974816313	102
0	2475	927.012203949077	102
0	2478	927.69714402085	102
0	2480	927.784800036277	103
0	2487	931.663359004394	102
0	2494	933.808499744769	103
0	2497	935.720249843286	104
0	2501	937.045156614785	103
0	2507	939.142006787268	103
0	2509	939.147206995235	104
0	2530	946.066899928791	101
0	2534	949.312841793807	100
0	2536	949.645092892878	101
0	2538	950.487453083972	102
0	2543	952.334443560228	103
0	2545	953.316950181098	104
0	2550	954.528668383607	105
0	2552	954.73360805411	106
0	2561	958.048931726481	103
0	2568	959.23584452858	102
0	2570	960.271217142567	103
0	2573	961.150166260077	103
0	2576	963.193243688559	103
0	2579	964.087582956429	103
0	2584	964.728512493675	104
0	2586	965.899681322489	105
0	2591	967.905336160553	103
0	2594	968.844464661173	103
0	2599	970.058138861495	104
0	2602	970.120580683231	104
0	2604	970.552511145062	105
0	2609	972.828553773649	106
0	2614	974.42887060007	106
0	2617	974.879613993115	107
0	2619	977.069440127133	108
0	2628	980.689542414503	107
0	2635	984.775105872148	107
0	2643	985.764957989053	108
0	2648	986.921074949559	109
0	2656	990.082203990319	107
0	2658	990.816803870829	108
0	2667	993.053767531295	105
0	2670	993.862859410069	105
0	2684	999.930678430357	103
0	2691	1002.336997073183	102
0	2693	1002.470332981394	103
0	2695	1002.935729764468	104
0	2697	1003.843379087625	105
0	2708	1008.688029612239	106
0	2712	1009.981061219977	107
0	2714	1011.00775861	108
0	2717	1012.652392365294	109
0	2721	1012.67167407829	110
0	2736	1017.483558811901	111
0	2739	1019.126323270314	111
0	2741	1019.149076338184	112
0	2750	1023.246784978992	112
0	2757	1026.36450163358	111
0	2759	1026.778249709126	112
0	2765	1030.875307373621	112
0	2781	1038.389204959188	112
0	2787	1039.994020110568	111
0	2789	1042.620199211534	112
0	2791	1042.774494190843	113
0	2798	1046.414301715319	111
0	2801	1047.007028808815	112
0	2813	1051.328864515125	109
0	2815	1051.631646988963	110
0	2826	1054.660035360741	108
0	2829	1056.021507498799	108
0	2831	1057.875288772471	109
0	2838	1061.716126109524	108
0	2840	1061.944441204621	109
0	2842	1067.523995700903	110
0	2844	1067.639566660547	111
0	2849	1069.403227623471	112
0	2852	1070.218060547091	112
0	2854	1071.915977446526	113
0	2860	1073.007877616391	113
0	2865	1074.622835920432	114
0	2873	1078.232122577826	114
0	2878	1080.396400179004	113
0	2890	1083.471128972241	110
0	2896	1087.902565666485	110
0	2905	1092.110372516579	107
0	2907	1094.655500547437	108
0	2914	1095.762202501667	107
0	2917	1097.135882737732	107
0	2929	1101.789315807594	107
0	2932	1102.756710295144	107
0	2939	1104.127690831296	106
0	2941	1104.309865548787	107
0	2951	1107.782840365814	106
0	2960	1111.457791095433	107
0	2964	1112.217064113922	108
0	2972	1114.318116584045	109
0	2977	1116.821536819465	110
0	2983	1118.907181698541	109
0	2990	1122.514759081097	109
0	2998	1125.669824805878	107
0	3003	1127.243122127469	108
0	3005	1127.486544477252	109
0	3022	1131.421921321187	101
0	3026	1133.04817054682	100
0	3028	1133.130430224732	101
0	3030	1133.383192686152	102
0	3033	1134.758764085489	102
0	3044	1140.125025089166	100
0	3047	1141.166720735382	100
0	3052	1143.121828718552	101
0	3055	1144.044705710815	101
0	3058	1146.12025985934	101
0	3060	1147.22349139066	102
0	3069	1152.118790874796	99
0	3100	1172.127530474283	92
0	3102	1172.269703823944	93
0	3107	1173.527576060464	93
0	3114	1176.93939510974	93
0	3117	1177.383858850498	93
0	3127	1179.590266579134	89
0	3130	1180.672715051974	89
0	3133	1181.918869681222	89
0	3135	1182.553652279075	90
0	3152	1191.807010729571	85
0	3156	1192.86606566374	84
0	3173	1197.467874759823	82
0	3183	1205.712954047337	81
0	3193	1212.255279406893	79
0	3196	1212.750673904024	80
0	3198	1213.708741275278	81
0	3200	1213.791810735097	82
0	3208	1214.235111525106	83
0	3210	1214.606357351223	84
0	3225	1220.161088389705	83
0	3229	1223.406203412281	83
0	3233	1224.746662278448	82
0	3256	1231.778009176519	80
0	3259	1232.05514826578	80
0	3263	1236.908095810645	79
0	3269	1241.111555928492	79
0	3273	1243.203087632749	80
0	3276	1244.921706728432	81
0	3278	1245.088513159294	82
0	3282	1249.255366151298	81
0	3284	1249.306649919291	82
0	3291	1250.821261269485	81
0	3293	1252.899790466247	82
0	3325	1259.59099513519	81
0	3332	1260.34947925199	82
0	3336	1265.397971567158	83
0	3345	1267.752103962758	84
0	3349	1269.8600454028	85
0	3352	1271.694607209116	86
0	3359	1273.481487852444	85
0	3362	1274.326860795593	85
0	3367	1274.834483267339	86
0	3390	1284.810530940594	81
0	3397	1286.269589191383	82
0	3408	1289.664449922341	81
0	3414	1290.528589377632	81
0	3421	1292.081279043306	82
0	3426	1295.901282557793	81
0	3428	1296.849981222926	82
0	3430	1296.91406053302	83
0	3435	1298.916954563939	84
0	3440	1300.113227830743	85
0	3449	1301.353861783781	85
0	3451	1302.786240124925	86
0	3453	1303.066934705809	87
0	3455	1303.355354310675	88
0	3463	1303.741717256189	89
0	3470	1304.738526686425	90
0	3473	1307.891153032827	91
0	3479	1311.324140880713	91
0	3487	1314.328020835849	91
0	3490	1315.282926317656	92
0	3492	1315.646146242047	93
0	3496	1316.580368854757	94
0	3516	1325.515915810889	90
0	3529	1328.854883958926	89
0	3536	1332.792555972531	88
0	3539	1334.190090286773	88
0	3551	1336.789710044544	88
0	3569	1343.471826405372	88
0	3575	1346.446810236369	88
0	3586	1348.710402009256	89
0	3589	1352.26110393963	89
0	3597	1355.402008365583	90
0	3604	1357.632178127079	90
0	3606	1357.778891216896	91
0	3610	1358.367371525785	92
0	3612	1358.372818076119	93
0	3614	1359.02398753502	94
0	3629	1362.50345153364	94
0	3634	1363.633234967921	95
0	3638	1363.865482244967	96
0	3640	1363.865766077279	97
0	3642	1363.934594934059	98
0	3651	1365.399777533686	96
0	3654	1366.16438351436	96
0	3658	1368.335505417211	97
0	3661	1369.444509757502	98
0	3663	1369.573340595098	99
0	3665	1372.34932475837	100
0	3668	1372.475632249184	100
0	3672	1373.184776441399	99
0	3682	1379.087057353461	98
0	3684	1380.272060307875	99
0	3687	1382.153265721329	99
0	3694	1384.372936901836	100
0	3697	1384.904731974105	101
0	3699	1387.034055439221	102
0	3704	1391.783825332536	103
0	3706	1392.61596616422	104
0	3710	1393.357213808449	105
0	3712	1393.368564275826	106
0	3715	1395.755270602168	107
0	3717	1396.553390126363	108
0	3719	1396.743071190132	109
0	3726	1398.30741915705	110
0	3731	1401.063075730303	109
0	3733	1401.31171608031	110
0	3756	1411.248823980542	104
0	3762	1413.241180089003	105
0	3764	1413.439861715398	106
0	3766	1414.671499501747	107
0	3768	1414.845497740926	108
0	3774	1418.328363591479	108
0	3783	1426.40758974643	105
0	3785	1426.764088981633	106
0	3795	1429.484292350647	105
0	3801	1430.816211355227	104
0	3807	1433.144180070774	105
0	3809	1434.006428176139	106
0	3811	1434.169541116989	107
0	3813	1434.192952840692	108
0	3818	1437.319886061191	106
0	3823	1441.597862849714	104
0	3845	1451.053584294659	101
0	3850	1452.16259267006	101
0	3852	1452.206395351766	102
0	3855	1452.561871839962	102
0	3868	1456.915500401485	101
0	3871	1458.546759601069	101
0	3873	1459.146572441667	102
0	3876	1459.411928205896	102
0	3879	1460.753135847531	102
0	3881	1461.352327151962	103
0	3884	1463.384984186785	103
0	3886	1463.51412998718	104
0	3896	1467.303366451789	102
0	3902	1471.116209596447	103
0	3904	1471.231726143399	104
0	3906	1472.280256551424	105
0	3913	1473.689769015213	104
0	3921	1475.803877611093	102
0	3925	1476.085378549989	103
0	3939	1479.618457829994	102
0	3949	1483.383659994438	101
0	3963	1488.285891176474	102
0	3967	1489.560865666362	103
0	3970	1491.654285215888	104
0	3976	1493.497456859677	104
0	3978	1494.059522643858	105
0	3980	1495.625976950828	106
0	3982	1495.703096668795	107
0	3984	1496.119785205111	108
0	3986	1496.951371807411	109
0	3996	1502.114408906619	108
0	3998	1502.57950293883	109
0	4007	1509.763275805809	106
0	4009	1510.592351181462	107
0	4022	1515.10339914098	106
0	4024	1515.799644681539	107
0	4027	1517.178221896196	107
0	4033	1519.38750178498	104
0	4036	1519.889586901841	104
0	4039	1521.498545429075	104
0	4042	1522.317520614378	104
0	4045	1525.78863219527	104
0	4057	1527.999312172702	104
0	4065	1531.129355943764	104
0	4075	1533.38302877732	103
0	4077	1533.420822209492	104
0	4081	1534.885595528676	104
0	4083	1535.644285779178	105
0	4087	1537.359605076218	104
0	4090	1539.821112895934	104
0	4094	1540.545791656322	105
0	4097	1541.331168093201	106
0	4100	1541.80923590798	106
0	4102	1542.101248329187	107
0	4105	1543.157103309526	107
0	4118	1549.69934395894	105
0	4120	1550.15038100135	106
0	4122	1551.009792122871	107
0	4125	1551.779218485271	108
0	4127	1552.278097785709	109
0	4131	1557.350501887172	110
0	4144	1561.192125462776	107
0	4146	1561.793503813032	108
0	4151	1562.591404057299	109
0	4157	1564.656348371699	109
0	4161	1566.32763609426	108
0	4168	1567.753118227668	109
0	4174	1570.059241944047	110
0	4176	1570.123199981402	111
0	4182	1572.663865531781	111
0	4185	1574.66026976609	111
0	4187	1575.253212917474	112
0	4189	1576.395986439913	113
0	4194	1577.663297595384	114
0	4207	1584.698712684486	113
0	4221	1588.631554813022	108
0	4223	1589.072017560951	109
0	4230	1592.565261923868	108
0	4237	1593.537208961149	109
0	4240	1595.18443384187	110
0	4248	1598.624703433198	108
0	4255	1600.195539513194	107
0	4258	1601.285757764048	107
0	4260	1602.097537837587	108
0	4262	1602.380896138536	109
0	4264	1602.774014571069	110
0	4266	1603.540990548773	111
0	4269	1604.576233841693	111
0	4271	1605.770958620521	112
0	4277	1607.447987273201	112
0	4281	1608.537708024714	111
0	4285	1609.731741140037	112
0	4289	1610.121409273584	113
0	4296	1611.178771929873	114
0	4298	1612.332023530154	115
0	4305	1613.076607879535	113
0	4307	1613.099769575529	114
0	4314	1614.557535911222	113
0	4323	1616.102237600517	113
0	4334	1622.907366152542	112
0	4336	1623.655695695997	113
0	4338	1623.702812807105	114
0	4348	1629.30924027038	113
0	4356	1632.860575991878	111
0	4358	1633.171293646648	112
0	4361	1634.822851007417	112
0	4366	1635.447437936358	113
0	4368	1637.270388388117	114
0	4372	1637.62370460771	115
0	4375	1638.578015776647	116
0	4377	1638.61870663735	117
0	4385	1639.604645900413	118
0	4390	1640.72964371591	119
0	4393	1642.295238612129	119
0	4395	1644.035432226317	120
0	4399	1644.142349778285	121
0	4401	1644.362057276839	122
0	4408	1647.213538405333	122
0	4414	1649.47104252125	122
0	4416	1650.323301186985	123
0	4421	1651.02576227246	123
0	4426	1652.188726702773	124
0	4436	1654.175254689502	124
0	4446	1657.760610487056	125
0	4451	1658.333953309121	126
0	4454	1659.449723772165	127
0	4458	1661.290524742045	128
0	4462	1662.74839358043	128
0	4465	1666.27637294363	128
0	4485	1673.739036654115	128
0	4487	1674.226595373733	129
0	4489	1674.957058228227	130
0	4495	1676.340492319053	128
0	4500	1677.753340272976	129
0	4507	1681.397503321326	128
0	4516	1683.806078573338	129
0	4522	1685.92396325985	130
0	4528	1688.704337610072	128
0	4530	1689.188792360292	129
0	4532	1689.240202792133	130
0	4541	1691.586044926708	130
0	4552	1695.519587076111	127
0	4554	1695.55934591105	128
0	4562	1698.592489458622	127
0	4564	1698.906854603308	128
0	4570	1700.918832014861	128
0	4576	1703.170842345407	128
0	4578	1704.432770546974	129
0	4583	1705.186540084827	130
0	4585	1705.601990469945	131
0	4587	1706.075656621983	132
0	4593	1708.225584434009	132
0	4595	1708.309959391328	133
0	4598	1709.07843946951	133
0	4602	1711.004214983738	132
0	4604	1711.062111888644	133
0	4617	1715.269510299674	132
0	4621	1716.756364643932	133
0	4627	1718.082343521047	134
0	4629	1718.870019270923	135
0	4637	1720.908936446251	136
0	4639	1721.454993199467	137
0	4643	1722.3985229479	136
0	4646	1722.789280027915	136
0	4648	1725.396518593626	137
0	4654	1726.901274460956	137
0	4656	1726.953540448604	138
0	4663	1729.629060649695	139
0	4672	1736.574581683728	137
0	4677	1739.66537909153	138
0	4684	1741.90718119808	136
0	4697	1746.301578873628	133
0	4700	1748.547604017495	133
0	4705	1749.79875244049	134
0	4710	1752.159913677425	132
0	4715	1755.74020572256	130
0	4717	1760.087512009376	131
0	4742	1771.744846296257	127
0	4744	1773.018198475859	128
0	4751	1777.340793934359	124
0	4753	1777.901186116598	125
0	4758	1778.902032759548	126
0	4760	1779.072127848459	127
0	4763	1779.324339982708	127
0	4767	1781.139423755476	126
0	4769	1781.218311798287	127
0	4776	1784.138364934455	126
0	4780	1785.198296592559	125
0	4782	1785.638546283597	126
0	4785	1785.89939192945	126
0	4787	1788.53883297854	127
0	4792	1794.251473822591	125
0	4794	1795.845631436388	126
0	4804	1798.325327517701	125
0	4806	1798.606456407004	126
0	4822	1801.794671232741	125
0	4829	1803.679706058382	126
0	4832	1805.08041040712	127
0	4838	1807.502032250377	127
0	4840	1807.529062425005	128
0	4842	1807.875599563768	129
0	4847	1810.935629855038	130
0	4849	1811.457327032532	131
0	4857	1815.151522116322	132
0	4863	1816.802537171528	132
0	4867	1817.564131402376	131
0	4878	1821.109863065909	132
0	4883	1822.272626815254	133
0	4894	1827.779757463721	133
0	4898	1830.055435707848	133
0	4900	1830.375952519021	134
0	4924	1835.037443728874	134
0	4932	1836.009033292376	135
0	4935	1837.630887042115	135
0	4944	1840.653702629951	135
0	4967	1849.052937252768	127
0	4970	1852.694837706594	127
0	4980	1854.884536789059	126
0	4983	1855.253528738811	126
0	4996	1858.227263387377	122
0	5001	1859.668700888803	123
0	5004	1860.513836171116	123
0	5009	1862.045576935928	121
0	5011	1862.427943135389	122
0	5013	1862.530818057516	123
0	5017	1863.376114100428	124
0	5019	1863.807425506106	125
0	5022	1863.958014206722	126
0	5034	1870.547914353762	123
0	5036	1871.331799924578	124
0	5038	1871.761556268434	125
0	5041	1873.380686342413	125
0	5065	1879.246695867247	125
0	5073	1880.23528591429	126
0	5076	1881.317776640177	126
0	5080	1882.093418477554	125
0	5090	1890.098163359613	123
0	5092	1890.203283898522	124
0	5101	1894.702818789421	125
0	5107	1898.609938535444	125
0	5110	1900.963754281443	125
0	5119	1903.465532305406	125
0	5131	1908.888116592648	124
0	5138	1914.505460165548	124
0	5140	1916.347435286778	125
0	5144	1917.387745667362	126
0	5153	1920.883401125574	124
0	5155	1920.994922093082	125
0	5159	1922.618020690301	124
0	5172	1925.823943928219	123
0	5175	1926.718506052298	123
0	5180	1927.458322864951	124
0	5182	1928.163472652359	125
0	5185	1928.445786675271	125
0	5189	1932.405740361811	124
0	5191	1932.697306918316	125
0	5193	1933.286400549374	126
0	5197	1935.809065447175	125
0	5205	1937.350259157974	126
0	5209	1938.509000556213	127
0	5212	1939.370269089632	128
0	5220	1942.101583486555	129
0	5226	1944.521500342948	130
0	5232	1946.55765069444	129
0	5239	1947.738433722654	129
0	5246	1951.323953770247	130
0	5258	1957.936366001161	129
0	5264	1959.943169354712	130
0	5272	1964.303866027304	127
0	5282	1968.670342379864	126
0	5288	1972.435092845463	127
0	5300	1977.120816023503	127
0	5305	1979.20684581668	128
0	5307	1979.935411971394	129
0	5310	1980.432984684364	129
0	5312	1980.642513046837	130
0	5316	1985.418308713974	129
0	5323	1989.804519483236	130
0	5326	1993.3245378439	131
0	5334	1995.690312057078	129
0	5337	1998.089960488256	129
1	0	0	0
1	2	1.713243040541	0
1	4	2.072405856538	1
1	6	2.374768989996	2
1	8	4.422188813995	3
1	10	4.766787251966	4
1	11	4.910072465392	4
1	12	5.17398261071	3
1	14	5.238039751501	3
1	16	5.366999720269	4
1	20	8.799137923985	4
1	22	10.36418077997	4
1	23	11.79822671422	4
1	25	12.079063940373	4
1	36	20.103966034015	5
1	41	21.968832322387	6
1	45	23.887404181436	6
1	53	27.257651253973	6
1	55	27.771890398775	7
1	57	28.678793653217	8
1	58	29.140076647303	8
1	68	33.605124146138	8
1	70	35.362715592548	8
1	74	36.864981660298	7
1	75	37.819429952154	6
1	77	39.142135327527	6
1	78	42.362778895965	6
1	82	44.08533041552	6
1	86	44.908489276031	7
1	90	49.32738780127	8
1	91	50.281784281976	8
1	93	50.292658592724	8
1	97	52.46646864791	8
1	99	52.788928886532	8
1	103	53.442076786503	8
1	108	54.576302460931	8
1	109	55.267104787817	8
1	110	55.933248293765	7
1	111	56.041789789372	6
1	113	56.252053647946	6
1	115	56.435485546866	7
1	116	56.536184239524	7
1	117	58.771543517862	6
1	122	59.402495001787	6
1	124	60.017904828559	7
1	126	60.062832947541	8
1	128	60.988071481002	9
1	129	62.714074953674	9
1	133	62.901895875521	9
1	136	63.163853798745	10
1	138	63.770324101753	11
1	139	63.908413652968	11
1	140	67.393226167281	10
1	141	67.417985152957	9
1	142	68.151545250529	8
1	143	68.327894858246	7
1	153	70.640541097308	7
1	156	71.255381517033	8
1	157	71.334426498153	8
1	158	71.728556655242	7
1	159	72.052692394855	6
1	160	72.416056026945	5
1	161	72.691607056712	4
1	165	73.260993209247	4
1	172	74.239125752343	5
1	175	74.98789563311	6
1	177	75.353244290612	7
1	179	75.77951698557	8
1	182	76.647929827401	9
1	184	77.213853321362	10
1	186	78.814039317243	11
1	188	79.51139222852	12
1	189	79.740142678139	12
1	194	80.699896272795	12
1	198	82.2640717039	12
1	199	82.696083359643	11
1	201	84.530706249716	11
1	203	85.753882598377	12
1	205	86.765730441338	13
1	206	87.984610472355	13
1	207	88.879424124701	12
1	209	89.283097422161	12
1	217	92.410988510339	13
1	221	93.014705396141	13
1	225	93.888342356725	13
1	227	95.655862239417	13
1	228	95.716667822353	12
1	233	97.599820809322	12
1	235	98.988750539064	13
1	236	101.223424864876	13
1	237	101.5104342568	12
1	238	101.708601254293	11
1	240	101.804705630061	11
1	242	102.609023611886	12
1	244	102.631943777672	13
1	245	103.437552955074	13
1	247	103.692743170326	13
1	249	104.986516871042	14
1	251	105.38852919507	15
1	253	105.98512904538	16
1	254	106.765662718481	16
1	256	107.820024464819	16
1	257	108.251918040237	16
1	258	108.663460393505	15
1	259	108.966306585281	14
1	261	109.122426452311	14
1	262	111.468249217077	14
1	263	112.601042104294	13
1	268	114.073059198988	13
1	270	114.120868669517	14
1	275	114.999193795914	15
1	276	115.122682102405	15
1	280	115.875401444246	15
1	283	117.614753516737	16
1	287	118.460121325217	16
1	289	119.712564068237	16
1	296	122.639904107914	17
1	298	123.292689637271	17
1	306	125.294797518924	17
1	310	126.957014236991	18
1	313	127.459215525161	19
1	318	130.183144750654	20
1	320	130.44049576956	21
1	321	130.509041269695	21
1	328	131.616891467084	21
1	336	133.636890516942	22
1	338	134.245263199739	22
1	345	137.40897311276	22
1	350	137.953716234736	22
1	351	138.71307153718	21
1	353	139.031989587338	21
1	354	139.091135106438	21
1	358	142.018366886877	20
1	360	142.586798994021	20
1	362	143.762230675702	21
1	363	143.988447257051	21
1	365	144.054837366093	21
1	369	145.648999835491	22
1	371	146.240687966343	22
1	373	148.511732164015	22
1	375	148.942869907388	23
1	376	148.983973462506	23
1	378	149.250512750272	23
1	382	149.816008143513	24
1	390	152.073975962641	24
1	391	152.610513268864	23
1	395	153.154957627527	23
1	397	153.588596119831	24
1	402	154.793916622446	25
1	406	155.16182318506	26
1	409	157.540639277182	26
1	414	158.427203566831	26
1	416	158.655481182001	27
1	417	159.653859882258	27
1	422	160.433138634401	27
1	423	161.540583928442	27
1	427	162.324261806934	26
1	428	162.413305652946	25
1	429	163.334898242964	24
1	433	164.831828575525	23
1	434	164.885502128558	22
1	435	165.125546835861	21
1	440	166.901045412662	21
1	445	168.455953345827	22
1	447	169.018043514659	23
1	449	170.96955383552	24
1	456	172.44344241813	25
1	464	177.791563399908	25
1	468	178.769714015848	24
1	469	180.380409980568	23
1	470	181.426414601025	22
1	485	184.548483694205	22
1	490	185.53567930502	23
1	493	185.946186178691	23
1	495	187.169398274864	23
1	497	187.242844053752	24
1	499	187.334467946368	25
1	500	187.658399036071	25
1	502	189.26548838988	25
1	503	189.401148298355	25
1	510	190.53348683943	24
1	512	190.8357252982	24
1	519	192.812093008807	24
1	521	193.017457260125	24
1	528	195.37383567109	25
1	537	201.073678088945	26
1	539	201.655142409979	27
1	544	204.186646123362	28
1	546	204.388417910943	29
1	547	205.763590685806	29
1	549	206.482859260689	29
1	551	208.086539795373	30
1	553	208.117431064601	31
1	555	208.128252115449	32
1	556	208.707376395706	32
1	557	209.977385419139	31
1	559	210.004282485254	31
1	561	213.743893980709	32
1	563	213.960353367358	33
1	567	216.768005835483	33
1	569	217.117902722927	33
1	570	217.167303041872	33
1	571	217.41419356388	32
1	575	221.521430546494	31
1	577	221.782104023946	31
1	581	224.477265452087	31
1	582	224.580283292218	30
1	584	224.698983745417	30
1	586	225.508620752276	31
1	587	226.0241602822	31
1	588	226.383757628712	30
1	590	227.727488048352	30
1	592	227.795254271413	31
1	594	228.66311732151	32
1	595	229.018853118379	32
1	596	229.158790491684	31
1	597	229.273892742134	30
1	598	230.875389500457	29
1	599	231.106970809447	28
1	601	232.638999372383	28
1	605	233.46694318767	29
1	608	235.905132541083	30
1	609	236.299809962945	30
1	616	241.18601240974	29
1	623	243.833352589237	28
1	625	244.482118377005	28
1	626	245.350786254758	28
1	628	245.484008807015	28
1	632	245.918146971763	29
1	637	247.855663580958	29
1	639	249.087797764622	29
1	644	249.916699085308	30
1	648	251.185470341114	31
1	653	251.468885367826	32
1	659	257.042229095455	33
1	661	259.762921896171	34
1	666	262.553851717497	35
1	667	263.382619599572	35
1	668	264.892714457742	34
1	670	266.605118323867	34
1	672	268.168203577185	35
1	673	269.058078310255	35
1	680	270.684753970569	35
1	683	271.001670163808	36
1	685	271.023686241679	37
1	687	271.064961902411	38
1	694	276.018702809393	38
1	696	276.585040975235	38
1	703	278.315922254476	38
1	704	278.600246227919	37
1	705	279.626347988727	36
1	706	280.3572182277	35
1	708	280.462750734589	35
1	709	280.959045835935	35
1	717	281.474338760926	35
1	719	281.626849248627	36
1	721	282.025650777599	37
1	723	283.000451627272	38
1	731	285.201495778513	39
1	732	285.438415896615	39
1	733	285.475101274933	38
1	734	285.475180130808	37
1	735	285.675811393154	36
1	737	286.805185714638	36
1	738	289.216979280898	36
1	739	289.301975183016	35
1	746	291.100539490274	34
1	751	291.617020955182	34
1	752	291.851016870352	34
1	754	292.93318189415	34
1	756	293.673784443482	35
1	757	294.143175716547	35
1	775	298.384897583998	35
1	778	298.722361827932	36
1	781	299.692698638514	37
1	782	300.311890629682	37
1	783	300.728243402937	36
1	785	301.155531092243	36
1	787	302.069022555471	37
1	792	304.223303169643	38
1	794	307.935552990595	39
1	795	309.173505536456	39
1	797	310.422948991396	39
1	798	310.710886930517	39
1	802	313.213143482565	38
1	804	314.253055877233	38
1	805	314.747927077768	38
1	806	315.253684198247	37
1	808	315.874246982937	37
1	812	317.644012430073	37
1	826	321.167491723764	37
1	827	321.749182656089	37
1	831	323.535640988691	36
1	832	323.781107171564	35
1	836	324.710129446002	34
1	838	325.534516223447	34
1	839	326.775738278519	34
1	841	327.104629850094	34
1	843	327.124938228357	35
1	844	327.354203099542	35
1	846	327.834420264426	35
1	847	327.900010484908	35
1	849	328.569508353518	35
1	851	328.575075767493	36
1	853	329.249080577147	37
1	855	332.331628536724	38
1	857	333.084926905336	39
1	858	333.126371309604	39
1	860	334.098682272614	39
1	861	335.203557735254	39
1	862	335.949103083954	38
1	864	337.096019918395	38
1	866	337.783174754371	39
1	868	337.958520925728	40
1	869	339.358886962546	40
1	871	341.213211325712	40
1	872	341.812798684887	40
1	876	342.562153605126	40
1	890	344.427081274745	41
1	892	345.123343812994	41
1	893	347.064235169838	40
1	894	349.010911303858	39
1	896	350.154018161815	39
1	897	350.567806345054	39
1	898	350.596233492883	38
1	900	350.728744188069	38
1	901	351.127319876334	38
1	905	351.59097353792	37
1	912	352.039141413193	37
1	915	352.884107318314	38
1	916	354.89891063252	38
1	917	354.959571532517	37
1	921	356.862521680473	36
1	925	357.750584584491	35
1	939	365.183375926291	35
1	944	365.925476027989	36
1	945	366.825964169356	36
1	947	368.663605659042	36
1	949	370.022621227879	37
1	950	370.82138541614	37
1	952	371.277629866211	37
1	965	373.984139161428	37
1	966	374.280348533155	36
1	974	375.389172924848	36
1	978	376.847790729443	37
1	981	377.512377833052	38
1	982	377.89068720042	38
1	984	380.060805045868	38
1	985	381.859608012386	38
1	987	382.186774481945	38
1	992	384.07032297332	39
1	994	385.177792013556	40
1	996	385.764623165592	41
1	1000	386.946480881653	41
1	1004	387.382447848165	40
1	1005	387.580617184878	39
1	1006	387.677626619671	38
1	1007	388.357586672211	37
1	1008	388.471825014029	36
1	1009	389.304478721061	35
1	1010	389.967641073916	34
1	1018	394.583806623193	34
1	1022	394.833524247942	35
1	1024	395.298722932777	35
1	1026	396.40062769313	35
1	1028	396.568683207636	36
1	1030	397.399315080829	37
1	1031	398.644986614476	37
1	1036	399.501714315224	37
1	1046	403.625164898094	37
1	1048	403.964018088639	37
1	1050	405.467995336129	38
1	1051	405.68955338111	38
1	1052	405.855492835697	37
1	1056	407.477238396533	36
1	1058	407.856133420095	36
1	1065	408.691810789551	37
1	1068	410.016700427066	38
1	1072	412.020061630474	38
1	1076	412.933500082096	37
1	1077	413.209428970875	36
1	1079	414.566027561824	36
1	1083	415.3204723805	37
1	1085	416.377854666325	37
1	1086	416.426589661734	36
1	1088	419.12915739151	36
1	1090	419.256709794293	37
1	1091	420.114713908597	37
1	1093	420.449680290786	37
1	1098	421.783894789737	38
1	1103	424.952673925751	39
1	1104	424.972029286294	39
1	1108	426.538225578204	38
1	1109	426.786431905598	37
1	1113	427.907297570398	36
1	1120	430.389437975805	35
1	1122	430.697089483878	35
1	1126	431.324377972998	36
1	1129	432.316127951706	37
1	1131	432.380931538054	38
1	1133	433.174387611749	39
1	1138	433.794164128324	40
1	1139	433.974191214603	40
1	1141	434.261810455646	40
1	1145	436.083553889246	41
1	1147	437.28101007684	41
1	1148	437.599588160543	40
1	1150	437.853235879841	40
1	1152	439.719796885904	41
1	1154	439.760754659685	42
1	1156	440.266001785361	43
1	1166	442.191693596935	44
1	1168	443.279621816094	45
1	1174	444.656701978625	46
1	1175	444.781380434291	46
1	1176	445.357713776676	45
1	1178	446.168113667092	45
1	1180	446.713497515215	46
1	1182	447.529571348346	47
1	1190	449.019049902119	48
1	1198	452.311643849904	49
1	1200	452.434897971988	50
1	1204	453.404202888346	50
1	1208	453.56399225055	50
1	1211	455.347574865572	51
1	1213	456.32516414145	52
1	1214	457.008946074356	52
1	1216	458.46565282731	52
1	1217	459.356998996865	52
1	1225	465.625418360108	52
1	1227	465.912329301414	53
1	1229	465.943939750396	54
1	1233	468.577484643449	54
1	1238	470.853583479085	54
1	1239	470.856098695447	54
1	1247	473.02213806358	54
1	1249	473.236761959767	55
1	1251	473.399762856236	56
1	1252	474.26322933165	56
1	1257	475.685644934276	56
1	1262	476.694799176353	57
1	1266	476.906674798998	58
1	1270	477.194193294815	59
1	1272	477.351727191269	60
1	1277	479.590344688354	61
1	1286	482.311771944785	62
1	1291	487.191593878694	62
1	1293	487.565530117414	62
1	1300	490.862598053168	62
1	1302	491.642160058017	62
1	1304	492.09316591003	63
1	1308	493.185040767958	63
1	1310	493.371686176245	63
1	1315	495.893735142703	64
1	1317	496.370743138061	65
1	1321	498.844659297989	65
1	1325	501.549713205597	65
1	1330	503.73389736345	65
1	1331	504.418455228627	64
1	1333	505.561694307951	64
1	1337	509.376545555933	64
1	1338	510.931177696903	63
1	1340	511.54502892541	63
1	1344	512.610257886487	63
1	1346	512.923684305201	63
1	1348	513.135150363307	64
1	1358	516.344945611542	64
1	1359	516.926515137953	63
1	1361	517.127876556698	63
1	1362	517.425528258616	63
1	1363	517.465694716479	62
1	1364	519.646275873669	61
1	1366	520.659236497052	61
1	1367	520.851344507352	61
1	1369	522.567815331456	61
1	1370	523.072539756049	61
1	1378	525.621910445735	61
1	1379	527.103888233357	61
1	1383	528.162562711605	61
1	1389	530.964709620535	62
1	1390	531.805740110659	62
1	1391	531.955471899368	61
1	1392	532.716086446148	60
1	1394	533.642193419108	60
1	1396	534.054195421198	61
1	1398	534.554626632881	62
1	1403	536.065827297277	63
1	1408	537.218192473789	64
1	1409	537.560126569586	64
1	1411	537.577221717397	64
1	1413	538.561400675242	65
1	1414	538.653800719833	65
1	1416	540.488720729993	65
1	1417	541.14501079103	65
1	1418	541.368070798687	64
1	1420	541.413360508348	64
1	1424	543.224611333907	64
1	1429	545.50728557634	64
1	1431	547.661509371484	65
1	1432	548.821107300227	65
1	1434	549.281490323395	65
1	1436	549.435570349777	66
1	1438	549.556153125206	67
1	1440	549.974875308688	68
1	1442	550.100203474148	69
1	1443	550.257316791273	69
1	1445	550.774361437801	69
1	1447	550.948679164915	70
1	1449	551.078301880687	71
1	1453	552.37629375047	72
1	1461	555.191903443494	72
1	1463	558.594600379595	72
1	1465	559.235287464986	73
1	1466	559.557411079797	73
1	1471	560.294708335514	73
1	1473	562.790139320962	74
1	1475	563.638323268537	75
1	1483	565.798009086334	76
1	1485	566.209049819672	77
1	1492	568.071739102315	78
1	1496	568.207701084586	79
1	1505	570.79065381189	80
1	1517	575.079622122029	81
1	1518	576.926308628265	81
1	1519	577.682641964015	80
1	1521	578.183189816517	80
1	1522	578.355464345327	80
1	1523	580.025840979923	79
1	1524	580.733082704106	78
1	1525	580.847328937879	77
1	1527	581.99294713899	77
1	1528	584.419385570916	77
1	1530	584.525938219257	77
1	1531	584.824583900583	77
1	1533	585.182469947335	77
1	1535	585.355433869591	78
1	1540	588.868856335603	79
1	1541	589.21435210906	79
1	1542	589.495163766031	78
1	1544	590.83282907121	78
1	1545	591.437858969034	78
1	1546	592.361726902257	77
1	1554	595.815209876606	77
1	1555	596.19096181144	77
1	1557	596.917576061068	77
1	1558	597.082138334235	77
1	1559	598.790014612262	76
1	1560	599.009520944035	75
1	1562	599.729315424485	75
1	1563	600.893636376908	75
1	1565	601.029590322861	75
1	1567	602.918496175177	76
1	1568	604.066220348375	76
1	1570	604.256417904326	76
1	1574	605.835971099693	76
1	1576	605.859207724481	76
1	1578	606.777476195162	77
1	1579	607.886848818353	77
1	1581	608.578914084149	77
1	1586	609.035365432301	78
1	1590	609.939689859682	78
1	1592	610.57880637851	78
1	1594	610.659550741156	79
1	1596	612.906556812091	80
1	1598	613.130796327584	81
1	1600	613.43148319739	82
1	1604	616.217968395881	82
1	1605	617.566889910738	81
1	1609	621.042370032435	80
1	1619	623.781902114915	79
1	1621	623.80364327864	79
1	1626	626.679849870366	80
1	1627	627.058351437817	80
1	1629	627.383074720524	80
1	1631	627.464051500673	81
1	1632	627.969577694163	81
1	1634	628.307009295537	81
1	1635	628.361286992885	81
1	1636	628.894454045637	80
1	1647	631.330941426705	80
1	1649	631.362858260797	81
1	1654	632.220240040895	82
1	1658	635.046080706258	82
1	1662	635.436794736865	81
1	1663	636.603962710072	80
1	1664	637.232739988135	79
1	1666	637.824217104912	79
1	1667	638.351628069767	79
1	1668	639.352735351579	78
1	1670	640.379406711088	78
1	1672	640.662721257293	79
1	1674	641.140969913776	80
1	1676	641.1525058725	81
1	1677	641.689508851339	81
1	1679	641.766131968534	81
1	1680	642.992715030673	81
1	1682	643.280421356577	81
1	1686	645.610169787813	81
1	1688	646.37081551057	81
1	1690	646.50890807424	82
1	1692	646.897224558175	83
1	1694	647.931778861868	84
1	1702	648.629413322738	85
1	1706	652.166455071461	85
1	1708	653.215927489925	85
1	1721	656.80584433621	86
1	1723	658.202736906603	86
1	1727	659.800630098351	85
1	1729	660.191529632979	85
1	1730	661.271685571037	85
1	1734	662.263773765641	84
1	1739	664.053805244918	84
1	1740	664.127411460925	84
1	1742	666.110991542376	84
1	1743	668.017402170708	84
1	1745	669.439223058327	84
1	1747	669.800257016931	85
1	1749	670.846748716188	86
1	1750	671.39311455674	86
1	1755	673.013769092367	86
1	1757	673.323788157421	87
1	1758	673.567532546268	87
1	1759	673.919284497191	86
1	1760	674.404127138085	85
1	1767	675.657448379744	84
1	1768	675.957800977308	83
1	1773	680.000394172339	83
1	1775	680.331457247165	84
1	1779	682.374089215156	85
1	1782	682.90741565434	86
1	1784	682.980041562595	87
1	1785	683.168948803379	87
1	1789	683.748045984751	86
1	1790	683.800117377788	85
1	1792	684.140775003437	85
1	1793	684.713140668173	85
1	1794	685.344851507491	84
1	1796	685.535177809971	84
1	1797	685.914015575031	84
1	1799	686.127760015912	84
1	1800	686.780552121986	84
1	1802	687.401969287145	84
1	1806	688.272019342876	84
1	1807	688.723886211514	83
1	1809	689.717771848045	83
1	1810	689.908356430325	83
1	1811	691.043718265284	82
1	1812	691.448107035879	81
1	1833	695.693859821338	81
1	1837	696.082292208325	82
1	1839	697.303686099176	83
1	1841	697.915652374306	84
1	1848	699.609576512086	85
1	1850	701.479612614977	85
1	1860	704.964252668607	84
1	1862	705.276586467329	84
1	1863	705.737067893837	84
1	1865	706.227480028288	84
1	1867	706.688822930092	85
1	1868	710.353721462856	85
1	1869	711.675798906356	84
1	1871	712.494650599283	84
1	1872	712.631410502181	84
1	1873	712.839366423704	83
1	1875	714.047096355647	83
1	1876	714.390573213293	83
1	1877	715.223974111872	82
1	1887	717.825526050492	81
1	1894	719.480179906857	80
1	1896	720.089089106014	80
1	1898	720.395158368963	81
1	1900	720.97636729992	82
1	1902	721.843771667517	83
1	1903	723.778912872331	83
1	1908	724.897836534271	83
1	1915	726.815609230716	83
1	1917	726.915907644544	83
1	1922	729.326411171262	84
1	1923	731.324265128721	84
1	1925	731.601989978936	84
1	1926	731.691419629932	84
1	1928	731.888335183984	84
1	1933	733.93755399237	85
1	1938	735.401299095076	86
1	1944	736.100048491589	87
1	1950	739.109959199193	87
1	1951	739.317985013097	86
1	1961	743.905444944758	85
1	1962	744.40789389558	84
1	1964	744.977151686523	84
1	1965	745.297026508529	84
1	1969	746.782866886085	83
1	1971	747.038682987606	83
1	1973	749.191863071607	84
1	1977	749.9476063661	84
1	1979	750.036325837248	84
1	1986	754.002399187441	84
1	1987	754.582356176162	83
1	1991	755.230064067201	82
1	2007	760.874805532065	81
1	2009	761.368972586951	81
1	2013	762.722464150684	82
1	2025	767.10608515735	83
1	2027	767.952468402604	84
1	2032	768.351636805962	85
1	2036	772.270647487514	85
1	2038	772.559604770437	85
1	2043	772.967986978257	86
1	2044	775.059729037454	86
1	2049	776.616211327801	86
1	2057	780.920192300173	87
1	2058	781.138319122113	87
1	2060	782.732894061214	87
1	2064	783.451515446598	88
1	2066	783.943731949592	88
1	2068	784.308430030919	88
1	2072	785.512451440113	88
1	2076	786.549195011148	88
1	2084	787.736718826224	88
1	2096	794.23644623447	88
1	2101	795.150080165381	89
1	2107	796.681930555565	90
1	2119	801.674227817447	91
1	2120	802.782164310756	91
1	2122	802.799523458984	91
1	2130	805.232105590664	92
1	2134	805.548622317289	93
1	2140	807.212605006652	94
1	2141	807.310245958742	94
1	2142	807.352438867353	93
1	2147	808.548441131823	93
1	2149	808.615994963981	94
1	2151	809.61286493503	95
1	2153	809.733005014067	96
1	2155	810.165647927656	97
1	2157	811.18587588092	98
1	2161	815.070404908568	98
1	2162	815.806428922306	97
1	2163	819.1717288579	96
1	2164	819.471604220354	95
1	2166	819.640986166523	95
1	2167	819.953889135011	95
1	2168	820.584444785422	94
1	2169	821.845864219571	93
1	2170	822.292469662345	92
1	2171	822.458879404194	91
1	2173	823.012520312894	91
1	2174	823.622369001518	91
1	2176	823.739658727192	91
1	2178	824.641935010937	92
1	2179	825.905876186166	92
1	2181	826.940477362516	92
1	2182	827.450161396498	92
1	2183	828.046113770705	91
1	2185	829.941600217504	91
1	2187	830.125674040549	92
1	2188	830.425914788743	92
1	2189	830.603567473421	91
1	2194	833.229508081434	91
1	2196	833.495824588675	92
1	2198	835.009891167478	93
1	2200	835.153834279141	94
1	2205	837.521509485153	95
1	2206	839.993383333677	95
1	2208	840.054925517434	95
1	2212	841.746954697572	96
1	2218	842.745154871121	97
1	2222	844.854140632236	97
1	2226	845.546479753765	97
1	2228	845.560209380267	98
1	2233	846.930286091483	99
1	2236	847.368192839657	100
1	2240	848.609243017318	100
1	2244	849.391883554938	99
1	2254	850.399493388444	99
1	2256	850.837687938589	99
1	2258	850.841270672491	99
1	2260	851.497347874606	100
1	2262	851.49890976606	101
1	2264	853.890116858075	102
1	2266	854.926398332675	103
1	2267	855.219947942195	103
1	2268	856.104660329008	102
1	2269	857.211411643048	101
1	2270	857.723913659413	100
1	2275	859.430140892372	100
1	2282	862.76781917777	101
1	2284	863.002947335021	102
1	2288	863.791894274576	103
1	2292	864.755797594161	104
1	2296	865.962793687182	104
1	2298	866.422835823474	104
1	2302	868.167313026458	105
1	2307	868.987248038049	105
1	2308	869.094989118256	104
1	2310	869.592152732927	104
1	2311	871.012303350569	104
1	2312	871.288839964085	103
1	2314	871.651330422054	103
1	2315	872.650005619618	103
1	2316	874.248547867499	102
1	2318	874.624472881391	102
1	2322	875.601031800278	102
1	2323	876.214070051073	101
1	2325	876.800819515027	101
1	2326	878.772504362234	101
1	2327	879.138662914599	100
1	2332	879.393128239259	100
1	2333	879.660102449313	100
1	2334	879.997376561005	99
1	2342	880.942790584264	99
1	2343	881.886967614486	99
1	2345	882.24993900176	99
1	2346	882.534812464702	99
1	2350	885.427645298485	98
1	2351	886.14202383265	97
1	2352	886.181848179796	96
1	2353	886.902205760805	95
1	2354	887.318488853695	94
1	2356	888.642357000024	94
1	2358	889.709565515752	95
1	2359	889.713429072581	95
1	2360	890.074516868238	94
1	2362	890.939200190481	94
1	2367	893.31806516971	95
1	2369	893.396654128653	96
1	2377	894.839568101011	97
1	2379	895.12969209419	98
1	2381	895.588301959066	99
1	2385	897.411543518991	99
1	2386	898.455364656914	98
1	2391	900.774569800957	98
1	2396	901.761493625118	99
1	2404	903.81050084277	100
1	2409	906.830809124372	101
1	2410	907.361564976123	101
1	2411	909.911298618497	100
1	2412	910.020897575308	99
1	2414	910.233752676796	99
1	2416	910.489061378169	100
1	2417	910.534511631179	100
1	2419	911.053705512928	100
1	2424	912.013020144801	101
1	2425	912.043441351805	101
1	2426	912.544625113308	100
1	2427	912.919971229101	99
1	2428	913.2365323764	98
1	2430	913.413846521589	98
1	2432	913.526222788211	99
1	2433	914.482017054946	99
1	2435	914.891363057015	99
1	2436	914.946926941625	99
1	2438	915.371505902122	99
1	2443	916.608815413371	100
1	2445	918.300958677452	101
1	2455	922.395345859811	101
1	2456	923.399974481168	100
1	2465	924.430340617741	100
1	2472	926.093974816313	101
1	2473	926.919848258712	101
1	2475	927.012203949077	101
1	2476	927.352078188869	101
1	2478	927.69714402085	101
1	2480	927.784800036277	102
1	2481	929.531298298565	102
1	2482	930.079713763431	101
1	2487	931.663359004394	101
1	2494	933.808499744769	102
1	2497	935.720249843286	103
1	2498	935.782884285616	103
1	2499	937.014755978809	102
1	2501	937.045156614785	102
1	2502	937.443738981174	102
1	2507	939.142006787268	102
1	2509	939.147206995235	103
1	2516	941.085183426199	103
1	2520	941.664295801404	102
1	2521	943.566278297146	101
1	2528	945.4908167943	100
1	2530	946.066899928791	100
1	2531	947.533546280939	100
1	2532	948.342073951925	99
1	2534	949.312841793807	99
1	2536	949.645092892878	100
1	2538	950.487453083972	101
1	2543	952.334443560228	102
1	2545	953.316950181098	103
1	2550	954.528668383607	104
1	2552	954.73360805411	105
1	2553	954.952882870066	105
1	2554	955.403271806349	104
1	2555	956.858354364853	103
1	2559	958.007667538965	102
1	2561	958.048931726481	102
1	2562	958.11165047405	102
1	2563	958.606424636303	101
1	2568	959.23584452858	101
1	2570	960.271217142567	102
1	2571	960.51699245795	102
1	2573	961.150166260077	102
1	2574	962.686174279095	102
1	2576	963.193243688559	102
1	2577	963.495383769732	102
1	2579	964.087582956429	102
1	2584	964.728512493675	103
1	2586	965.899681322489	104
1	2587	966.878845858498	104
1	2588	967.692794446122	103
1	2589	967.712018510502	102
1	2591	967.905336160553	102
1	2592	968.360676665284	102
1	2594	968.844464661173	102
1	2599	970.058138861495	103
1	2600	970.108406082424	103
1	2602	970.120580683231	103
1	2604	970.552511145062	104
1	2609	972.828553773649	105
1	2610	973.260728192867	105
1	2614	974.42887060007	105
1	2617	974.879613993115	106
1	2619	977.069440127133	107
1	2623	977.395031501279	107
1	2624	980.154465652302	106
1	2628	980.689542414503	106
1	2630	981.57437847346	106
1	2635	984.775105872148	106
1	2643	985.764957989053	107
1	2648	986.921074949559	108
1	2652	988.489868968163	108
1	2653	988.547101907926	107
1	2654	989.794965048451	106
1	2656	990.082203990319	106
1	2658	990.816803870829	107
1	2659	991.248872900533	107
1	2663	992.284839995309	106
1	2664	992.931637804484	105
1	2665	992.934424239277	104
1	2667	993.053767531295	104
1	2668	993.436398332556	104
1	2670	993.862859410069	104
1	2671	994.433786079059	104
1	2672	995.642489456521	103
1	2679	998.344067560144	102
1	2684	999.930678430357	102
1	2685	1000.647202608841	102
1	2686	1000.730563118796	101
1	2691	1002.336997073183	101
1	2693	1002.470332981394	102
1	2695	1002.935729764468	103
1	2697	1003.843379087625	104
1	2708	1008.688029612239	105
1	2712	1009.981061219977	106
1	2714	1011.00775861	107
1	2717	1012.652392365294	108
1	2721	1012.67167407829	109
1	2736	1017.483558811901	110
1	2737	1017.725439234519	110
1	2739	1019.126323270314	110
1	2741	1019.149076338184	111
1	2748	1021.145582027361	111
1	2750	1023.246784978992	111
1	2751	1023.563981632203	111
1	2755	1025.378502649053	110
1	2757	1026.36450163358	110
1	2759	1026.778249709126	111
1	2763	1030.03640718382	111
1	2765	1030.875307373621	111
1	2772	1035.162140703466	111
1	2781	1038.389204959188	111
1	2784	1039.894570041102	111
1	2785	1039.937684530259	110
1	2787	1039.994020110568	110
1	2789	1042.620199211534	111
1	2791	1042.774494190843	112
1	2792	1044.314605163096	112
1	2793	1045.384851751872	111
1	2794	1045.61726254794	110
1	2798	1046.414301715319	110
1	2801	1047.007028808815	111
1	2802	1047.34695010237	111
1	2803	1047.802833365613	110
1	2804	1048.763379905983	109
1	2805	1048.907271011464	108
1	2813	1051.328864515125	108
1	2815	1051.631646988963	109
1	2819	1052.581445766815	109
1	2820	1053.156260942818	108
1	2824	1054.546995874712	107
1	2826	1054.660035360741	107
1	2827	1055.838155765467	107
1	2829	1056.021507498799	107
1	2831	1057.875288772471	108
1	2835	1060.12910278255	108
1	2836	1060.980486415232	107
1	2838	1061.716126109524	107
1	2840	1061.944441204621	108
1	2842	1067.523995700903	109
1	2844	1067.639566660547	110
1	2849	1069.403227623471	111
1	2850	1069.827933158824	111
1	2852	1070.218060547091	111
1	2854	1071.915977446526	112
1	2855	1072.400982487451	112
1	2860	1073.007877616391	112
1	2865	1074.622835920432	113
1	2866	1075.790361850394	113
1	2873	1078.232122577826	113
1	2875	1079.181703642983	113
1	2876	1079.547921949073	112
1	2878	1080.396400179004	112
1	2879	1081.701772731236	112
1	2880	1081.861185925671	111
1	2881	1081.988943632551	110
1	2882	1082.484433044484	109
1	2890	1083.471128972241	109
1	2894	1085.003552965496	109
1	2896	1087.902565666485	109
1	2897	1088.78618017254	109
1	2898	1090.101805988485	108
1	2902	1091.06182618293	107
1	2903	1091.770002223066	106
1	2905	1092.110372516579	106
1	2907	1094.655500547437	107
1	2908	1094.710467423395	107
1	2912	1095.369383025861	106
1	2914	1095.762202501667	106
1	2915	1096.478471048663	106
1	2917	1097.135882737732	106
1	2921	1099.068537868703	106
1	2929	1101.789315807594	106
1	2930	1101.937538519776	106
1	2932	1102.756710295144	106
1	2936	1103.637158678314	106
1	2937	1103.931593579612	105
1	2939	1104.127690831296	105
1	2941	1104.309865548787	106
1	2942	1105.948122760029	106
1	2949	1107.541735702389	105
1	2951	1107.782840365814	105
1	2960	1111.457791095433	106
1	2964	1112.217064113922	107
1	2972	1114.318116584045	108
1	2977	1116.821536819465	109
1	2978	1117.163889798387	109
1	2979	1118.470431266115	108
1	2983	1118.907181698541	108
1	2985	1119.096385734653	108
1	2990	1122.514759081097	108
1	2991	1122.692241432107	108
1	2992	1123.364751574044	107
1	2996	1124.197891602076	106
1	2998	1125.669824805878	106
1	3003	1127.243122127469	107
1	3005	1127.486544477252	108
1	3006	1127.638589786498	108
1	3010	1128.300186019217	107
1	3011	1128.846761757078	106
1	3012	1128.955904114197	105
1	3013	1129.252518050639	104
1	3014	1129.600956538099	103
1	3018	1130.503186272478	102
1	3019	1130.680694475404	101
1	3020	1131.277155719736	100
1	3022	1131.421921321187	100
1	3023	1131.6753904542	100
1	3024	1132.806306177554	99
1	3026	1133.04817054682	99
1	3028	1133.130430224732	100
1	3030	1133.383192686152	101
1	3031	1133.82382291949	101
1	3033	1134.758764085489	101
1	3034	1134.913772011444	101
1	3035	1135.209990135999	100
1	3036	1135.312045586823	99
1	3044	1140.125025089166	99
1	3045	1140.545042270409	99
1	3047	1141.166720735382	99
1	3052	1143.121828718552	100
1	3053	1143.355321537466	100
1	3055	1144.044705710815	100
1	3056	1144.567412693475	100
1	3058	1146.12025985934	100
1	3060	1147.22349139066	101
1	3061	1148.087141022763	101
1	3065	1150.553354641984	100
1	3066	1151.583307887328	99
1	3067	1151.671456770463	98
1	3069	1152.118790874796	98
1	3070	1152.413196376598	98
1	3080	1160.453079340929	97
1	3081	1161.216096880546	96
1	3082	1161.522010453715	95
1	3092	1165.222120082665	94
1	3096	1168.105267274389	93
1	3097	1168.129322450809	92
1	3098	1170.72801127052	91
1	3100	1172.127530474283	91
1	3102	1172.269703823944	92
1	3103	1172.908898372493	92
1	3107	1173.527576060464	92
1	3112	1175.327864266422	92
1	3114	1176.93939510974	92
1	3115	1177.277195209342	92
1	3117	1177.383858850498	92
1	3118	1177.66327987086	92
1	3119	1177.715714512247	91
1	3120	1177.728721583704	90
1	3124	1178.738851065494	89
1	3125	1178.759804336448	88
1	3127	1179.590266579134	88
1	3128	1179.893097444358	88
1	3130	1180.672715051974	88
1	3131	1181.612781242405	88
1	3133	1181.918869681222	88
1	3135	1182.553652279075	89
1	3139	1184.799797404755	89
1	3140	1185.39837469123	88
1	3141	1186.337817252885	87
1	3142	1187.305753386882	86
1	3143	1187.38127236278	85
1	3147	1188.166584995735	84
1	3152	1191.807010729571	84
1	3153	1191.926730440469	84
1	3154	1192.827646361884	83
1	3156	1192.86606566374	83
1	3157	1194.299699698546	83
1	3167	1196.024758246005	82
1	3171	1197.362293896593	81
1	3173	1197.467874759823	81
1	3174	1197.662089788936	81
1	3181	1203.40285664019	80
1	3183	1205.712954047337	80
1	3184	1208.470623593748	80
1	3185	1209.135555528703	79
1	3189	1211.132993848144	78
1	3193	1212.255279406893	78
1	3196	1212.750673904024	79
1	3198	1213.708741275278	80
1	3200	1213.791810735097	81
1	3208	1214.235111525106	82
1	3210	1214.606357351223	83
1	3220	1218.781765059261	83
1	3221	1219.506838798158	82
1	3225	1220.161088389705	82
1	3227	1223.101207950572	82
1	3229	1223.406203412281	82
1	3230	1223.578378631139	82
1	3231	1224.006317141742	81
1	3233	1224.746662278448	81
1	3240	1226.628140707489	81
1	3241	1227.080255958023	80
1	3248	1228.0822974918	79
1	3256	1231.778009176519	79
1	3257	1231.79358825676	79
1	3259	1232.05514826578	79
1	3260	1233.615754748466	79
1	3261	1235.917708429538	78
1	3263	1236.908095810645	78
1	3264	1237.331582587222	78
1	3269	1241.111555928492	78
1	3273	1243.203087632749	79
1	3276	1244.921706728432	80
1	3278	1245.088513159294	81
1	3279	1246.391334630579	81
1	3280	1246.82188136536	80
1	3282	1249.255366151298	80
1	3284	1249.306649919291	81
1	3285	1249.583344685339	81
1	3289	1250.455343960366	80
1	3291	1250.821261269485	80
1	3293	1252.899790466247	81
1	3318	1258.180216913951	81
1	3319	1259.171590627299	80
1	3325	1259.59099513519	80
1	3332	1260.34947925199	81
1	3336	1265.397971567158	82
1	3345	1267.752103962758	83
1	3349	1269.8600454028	84
1	3352	1271.694607209116	85
1	3353	1272.538609610284	85
1	3357	1273.291454750367	84
1	3359	1273.481487852444	84
1	3360	1274.156250719851	84
1	3362	1274.326860795593	84
1	3367	1274.834483267339	85
1	3371	1276.602943175552	85
1	3378	1278.320014061685	84
1	3379	1278.722807464985	83
1	3383	1281.758558785477	82
1	3387	1283.491237984258	81
1	3388	1284.538399898075	80
1	3390	1284.810530940594	80
1	3397	1286.269589191383	81
1	3402	1286.576284511143	81
1	3403	1287.03046366896	80
1	3408	1289.664449922341	80
1	3412	1290.051868222659	80
1	3414	1290.528589377632	80
1	3421	1292.081279043306	81
1	3423	1292.323342729208	81
1	3424	1294.09996444109	80
1	3426	1295.901282557793	80
1	3428	1296.849981222926	81
1	3430	1296.91406053302	82
1	3435	1298.916954563939	83
1	3440	1300.113227830743	84
1	3444	1300.383293103666	84
1	3449	1301.353861783781	84
1	3451	1302.786240124925	85
1	3453	1303.066934705809	86
1	3455	1303.355354310675	87
1	3463	1303.741717256189	88
1	3470	1304.738526686425	89
1	3473	1307.891153032827	90
1	3474	1308.447556235498	90
1	3479	1311.324140880713	90
1	3480	1312.16138326306	90
1	3487	1314.328020835849	90
1	3490	1315.282926317656	91
1	3492	1315.646146242047	92
1	3496	1316.580368854757	93
1	3498	1317.631437400592	93
1	3502	1319.356871298161	92
1	3503	1319.394732779013	91
1	3504	1319.653114494472	90
1	3508	1321.407663671747	89
1	3516	1325.515915810889	89
1	3520	1326.589528617779	89
1	3521	1326.71516456466	88
1	3529	1328.854883958926	88
1	3530	1329.952461165882	88
1	3531	1329.991022633974	87
1	3536	1332.792555972531	87
1	3537	1333.632121527392	87
1	3539	1334.190090286773	87
1	3540	1334.21976832578	87
1	3551	1336.789710044544	87
1	3567	1343.372526148613	87
1	3569	1343.471826405372	87
1	3570	1344.889614262027	87
1	3575	1346.446810236369	87
1	3586	1348.710402009256	88
1	3587	1350.685729211241	88
1	3589	1352.26110393963	88
1	3597	1355.402008365583	89
1	3598	1355.687302424834	89
1	3604	1357.632178127079	89
1	3606	1357.778891216896	90
1	3610	1358.367371525785	91
1	3612	1358.372818076119	92
1	3614	1359.02398753502	93
1	3624	1361.427084578872	93
1	3629	1362.50345153364	93
1	3634	1363.633234967921	94
1	3638	1363.865482244967	95
1	3640	1363.865766077279	96
1	3642	1363.934594934059	97
1	3644	1364.188411508803	97
1	3645	1364.723782786532	96
1	3646	1364.791083161789	95
1	3651	1365.399777533686	95
1	3652	1365.466313890087	95
1	3654	1366.16438351436	95
1	3658	1368.335505417211	96
1	3661	1369.444509757502	97
1	3663	1369.573340595098	98
1	3665	1372.34932475837	99
1	3666	1372.399640211659	99
1	3668	1372.475632249184	99
1	3669	1372.680549166616	99
1	3670	1372.747910311434	98
1	3672	1373.184776441399	98
1	3673	1373.322114472906	98
1	3680	1378.471617666041	97
1	3682	1379.087057353461	97
1	3684	1380.272060307875	98
1	3685	1381.60231720122	98
1	3687	1382.153265721329	98
1	3694	1384.372936901836	99
1	3697	1384.904731974105	100
1	3699	1387.034055439221	101
1	3704	1391.783825332536	102
1	3706	1392.61596616422	103
1	3710	1393.357213808449	104
1	3712	1393.368564275826	105
1	3715	1395.755270602168	106
1	3717	1396.553390126363	107
1	3719	1396.743071190132	108
1	3726	1398.30741915705	109
1	3728	1399.804118748313	109
1	3729	1400.112024781658	108
1	3731	1401.063075730303	108
1	3733	1401.31171608031	109
1	3734	1401.814641969462	109
1	3735	1402.557537249224	108
1	3736	1403.871198458211	107
1	3740	1405.20161376364	106
1	3741	1405.371820798128	105
1	3751	1407.941950768878	104
1	3752	1409.731498670718	103
1	3756	1411.248823980542	103
1	3762	1413.241180089003	104
1	3764	1413.439861715398	105
1	3766	1414.671499501747	106
1	3768	1414.845497740926	107
1	3769	1415.057988542273	107
1	3774	1418.328363591479	107
1	3775	1421.748630469753	107
1	3776	1424.030226848772	106
1	3780	1424.782283270841	105
1	3781	1425.680556617414	104
1	3783	1426.40758974643	104
1	3785	1426.764088981633	105
1	3789	1427.722807535921	105
1	3793	1428.100807911688	104
1	3795	1429.484292350647	104
1	3796	1429.953714684298	104
1	3797	1430.206993058253	103
1	3801	1430.816211355227	103
1	3807	1433.144180070774	104
1	3809	1434.006428176139	105
1	3811	1434.169541116989	106
1	3813	1434.192952840692	107
1	3814	1435.444719353878	107
1	3815	1435.817492935414	106
1	3816	1436.911431276929	105
1	3818	1437.319886061191	105
1	3819	1439.978149443561	105
1	3820	1440.425571552029	104
1	3821	1441.370832727613	103
1	3823	1441.597862849714	103
1	3824	1443.377413930558	103
1	3828	1444.118051539026	102
1	3835	1447.472712851263	101
1	3839	1450.089490555025	100
1	3845	1451.053584294659	100
1	3848	1452.085852317131	100
1	3850	1452.16259267006	100
1	3852	1452.206395351766	101
1	3853	1452.489690266069	101
1	3855	1452.561871839962	101
1	3856	1453.853309239124	101
1	3857	1454.242778444124	100
1	3868	1456.915500401485	100
1	3869	1457.333242015651	100
1	3871	1458.546759601069	100
1	3873	1459.146572441667	101
1	3874	1459.21746739469	101
1	3876	1459.411928205896	101
1	3877	1460.165748989622	101
1	3879	1460.753135847531	101
1	3881	1461.352327151962	102
1	3882	1461.800063529507	102
1	3884	1463.384984186785	102
1	3886	1463.51412998718	103
1	3887	1463.739026462007	103
1	3888	1464.117793697238	102
1	3889	1464.165470860334	101
1	3896	1467.303366451789	101
1	3902	1471.116209596447	102
1	3904	1471.231726143399	103
1	3906	1472.280256551424	104
1	3907	1472.280751247674	104
1	3911	1473.07192768177	103
1	3913	1473.689769015213	103
1	3914	1473.807193362007	103
1	3915	1474.609307327333	102
1	3919	1475.726933014119	101
1	3921	1475.803877611093	101
1	3925	1476.085378549989	102
1	3930	1477.990877888183	102
1	3937	1478.808675200871	101
1	3939	1479.618457829994	101
1	3940	1479.9514041281	101
1	3941	1480.542010973755	100
1	3949	1483.383659994438	100
1	3963	1488.285891176474	101
1	3967	1489.560865666362	102
1	3970	1491.654285215888	103
1	3974	1493.441730089374	103
1	3976	1493.497456859677	103
1	3978	1494.059522643858	104
1	3980	1495.625976950828	105
1	3982	1495.703096668795	106
1	3984	1496.119785205111	107
1	3986	1496.951371807411	108
1	3990	1499.589849299429	108
1	3994	1501.002843568437	107
1	3996	1502.114408906619	107
1	3998	1502.57950293883	108
1	3999	1503.229478851023	108
1	4000	1505.860212312248	107
1	4004	1508.544265715179	106
1	4005	1509.719201857076	105
1	4007	1509.763275805809	105
1	4009	1510.592351181462	106
1	4013	1511.406273598451	106
1	4014	1512.423405068751	105
1	4022	1515.10339914098	105
1	4024	1515.799644681539	106
1	4025	1516.525985070065	106
1	4027	1517.178221896196	106
1	4028	1518.455003299662	106
1	4029	1518.497102373183	105
1	4030	1518.563289335715	104
1	4031	1519.323500459723	103
1	4033	1519.38750178498	103
1	4034	1519.81931511242	103
1	4036	1519.889586901841	103
1	4037	1520.494219437051	103
1	4039	1521.498545429075	103
1	4040	1522.120154437178	103
1	4042	1522.317520614378	103
1	4043	1524.768120122622	103
1	4045	1525.78863219527	103
1	4046	1526.227255709255	103
1	4057	1527.999312172702	103
1	4058	1528.497774052554	103
1	4065	1531.129355943764	103
1	4067	1531.377543505621	103
1	4071	1533.293262251795	102
1	4075	1533.38302877732	102
1	4077	1533.420822209492	103
1	4079	1534.563417005691	103
1	4081	1534.885595528676	103
1	4083	1535.644285779178	104
1	4084	1536.876049411329	104
1	4085	1537.273551907948	103
1	4087	1537.359605076218	103
1	4088	1538.523313567005	103
1	4090	1539.821112895934	103
1	4094	1540.545791656322	104
1	4097	1541.331168093201	105
1	4098	1541.391125468456	105
1	4100	1541.80923590798	105
1	4102	1542.101248329187	106
1	4103	1542.72910467422	106
1	4105	1543.157103309526	106
1	4106	1545.136679936438	106
1	4107	1546.581489640836	105
1	4114	1548.15170999421	104
1	4118	1549.69934395894	104
1	4120	1550.15038100135	105
1	4122	1551.009792122871	106
1	4125	1551.779218485271	107
1	4127	1552.278097785709	108
1	4131	1557.350501887172	109
1	4139	1558.838716252327	109
1	4140	1559.927053271131	108
1	4141	1559.953261967652	107
1	4142	1560.762094817766	106
1	4144	1561.192125462776	106
1	4146	1561.793503813032	107
1	4151	1562.591404057299	108
1	4152	1562.974165558747	108
1	4157	1564.656348371699	108
1	4158	1564.792161018687	108
1	4159	1564.846258674473	107
1	4161	1566.32763609426	107
1	4168	1567.753118227668	108
1	4174	1570.059241944047	109
1	4176	1570.123199981402	110
1	4177	1571.057448865402	110
1	4182	1572.663865531781	110
1	4183	1573.975082623304	110
1	4185	1574.66026976609	110
1	4187	1575.253212917474	111
1	4189	1576.395986439913	112
1	4194	1577.663297595384	113
1	4195	1578.450857921051	113
1	4205	1583.48474004093	112
1	4207	1584.698712684486	112
1	4208	1584.829748563515	112
1	4209	1584.996397153519	111
1	4210	1585.366208674745	110
1	4211	1586.101360279003	109
1	4212	1586.609816647969	108
1	4216	1588.130799730619	107
1	4221	1588.631554813022	107
1	4223	1589.072017560951	108
1	4224	1589.099172832728	108
1	4228	1592.377561141776	107
1	4230	1592.565261923868	107
1	4237	1593.537208961149	108
1	4240	1595.18443384187	109
1	4241	1595.658985988304	109
1	4245	1596.576606707641	108
1	4246	1597.612885779018	107
1	4248	1598.624703433198	107
1	4249	1598.637839850278	107
1	4253	1599.85867729188	106
1	4255	1600.195539513194	106
1	4256	1600.562262180383	106
1	4258	1601.285757764048	106
1	4260	1602.097537837587	107
1	4262	1602.380896138536	108
1	4264	1602.774014571069	109
1	4266	1603.540990548773	110
1	4267	1603.605692690339	110
1	4269	1604.576233841693	110
1	4271	1605.770958620521	111
1	4272	1606.580205835368	111
1	4277	1607.447987273201	111
1	4278	1607.719149920914	111
1	4279	1607.751413038917	110
1	4281	1608.537708024714	110
1	4285	1609.731741140037	111
1	4289	1610.121409273584	112
1	4296	1611.178771929873	113
1	4298	1612.332023530154	114
1	4299	1612.444785832968	114
1	4300	1612.681128285894	113
1	4301	1612.905630542453	112
1	4305	1613.076607879535	112
1	4307	1613.099769575529	113
1	4309	1613.747912667841	113
1	4310	1614.034636669718	112
1	4314	1614.557535911222	112
1	4319	1615.771428475921	112
1	4323	1616.102237600517	112
1	4328	1618.734510787399	112
1	4329	1619.21181044422	111
1	4334	1622.907366152542	111
1	4336	1623.655695695997	112
1	4338	1623.702812807105	113
1	4339	1624.050397138892	113
1	4340	1625.494464011763	112
1	4348	1629.30924027038	112
1	4349	1629.617275662585	112
1	4350	1629.636980427046	111
1	4351	1631.277085854126	110
1	4356	1632.860575991878	110
1	4358	1633.171293646648	111
1	4359	1633.745909332339	111
1	4361	1634.822851007417	111
1	4366	1635.447437936358	112
1	4368	1637.270388388117	113
1	4372	1637.62370460771	114
1	4375	1638.578015776647	115
1	4377	1638.61870663735	116
1	4385	1639.604645900413	117
1	4390	1640.72964371591	118
1	4391	1641.822977328613	118
1	4393	1642.295238612129	118
1	4395	1644.035432226317	119
1	4399	1644.142349778285	120
1	4401	1644.362057276839	121
1	4403	1644.574025791229	121
1	4408	1647.213538405333	121
1	4409	1647.632150220517	121
1	4414	1649.47104252125	121
1	4416	1650.323301186985	122
1	4417	1650.710149360507	122
1	4421	1651.02576227246	122
1	4426	1652.188726702773	123
1	4434	1654.006265334946	123
1	4436	1654.175254689502	123
1	4446	1657.760610487056	124
1	4451	1658.333953309121	125
1	4454	1659.449723772165	126
1	4458	1661.290524742045	127
1	4460	1661.840019682864	127
1	4462	1662.74839358043	127
1	4463	1662.819569410701	127
1	4465	1666.27637294363	127
1	4481	1672.579196567241	127
1	4485	1673.739036654115	127
1	4487	1674.226595373733	128
1	4489	1674.957058228227	129
1	4491	1675.589754423079	129
1	4492	1675.752038441959	128
1	4493	1676.310004487141	127
1	4495	1676.340492319053	127
1	4500	1677.753340272976	128
1	4501	1678.174928042334	128
1	4505	1680.329190148306	127
1	4507	1681.397503321326	127
1	4516	1683.806078573338	128
1	4522	1685.92396325985	129
1	4524	1687.021468158951	129
1	4525	1687.419798959482	128
1	4526	1687.850574239961	127
1	4528	1688.704337610072	127
1	4530	1689.188792360292	128
1	4532	1689.240202792133	129
1	4539	1691.467577118468	129
1	4541	1691.586044926708	129
1	4542	1691.807893876259	129
1	4543	1691.926837918619	128
1	4547	1692.832308538258	127
1	4548	1693.648822190104	126
1	4552	1695.519587076111	126
1	4554	1695.55934591105	127
1	4559	1697.45430337517	127
1	4560	1698.520673804989	126
1	4562	1698.592489458622	126
1	4564	1698.906854603308	127
1	4565	1698.923350652536	127
1	4570	1700.918832014861	127
1	4574	1703.155383543452	127
1	4576	1703.170842345407	127
1	4578	1704.432770546974	128
1	4583	1705.186540084827	129
1	4585	1705.601990469945	130
1	4587	1706.075656621983	131
1	4591	1707.654210881052	131
1	4593	1708.225584434009	131
1	4595	1708.309959391328	132
1	4596	1708.594132478699	132
1	4598	1709.07843946951	132
1	4599	1710.419438424133	132
1	4600	1710.933137749774	131
1	4602	1711.004214983738	131
1	4604	1711.062111888644	132
1	4605	1711.138172490398	132
1	4609	1714.279251252641	131
1	4617	1715.269510299674	131
1	4621	1716.756364643932	132
1	4627	1718.082343521047	133
1	4629	1718.870019270923	134
1	4637	1720.908936446251	135
1	4639	1721.454993199467	136
1	4640	1721.537542006166	136
1	4641	1722.123571765319	135
1	4643	1722.3985229479	135
1	4644	1722.721178971893	135
1	4646	1722.789280027915	135
1	4648	1725.396518593626	136
1	4652	1726.14099355797	136
1	4654	1726.901274460956	136
1	4656	1726.953540448604	137
1	4663	1729.629060649695	138
1	4665	1730.394343492328	138
1	4669	1732.869783370336	137
1	4670	1733.715241412652	136
1	4672	1736.574581683728	136
1	4677	1739.66537909153	137
1	4678	1740.68786553936	137
1	4679	1740.967622403391	136
1	4680	1741.300630987961	135
1	4684	1741.90718119808	135
1	4689	1743.685145698372	135
1	4690	1743.738918816116	134
1	4691	1744.707779066368	133
1	4692	1745.656230005659	132
1	4697	1746.301578873628	132
1	4698	1747.567958004866	132
1	4700	1748.547604017495	132
1	4705	1749.79875244049	133
1	4706	1749.916085589656	133
1	4707	1750.766274218591	132
1	4708	1751.694857784462	131
1	4710	1752.159913677425	131
1	4711	1752.450990356952	131
1	4712	1753.926185371243	130
1	4713	1754.136146186574	129
1	4715	1755.74020572256	129
1	4717	1760.087512009376	130
1	4718	1761.949713737374	130
1	4719	1762.430751610147	129
1	4723	1763.895381972804	128
1	4724	1764.610922161349	127
1	4728	1766.605456853381	126
1	4742	1771.744846296257	126
1	4744	1773.018198475859	127
1	4745	1773.383335708817	127
1	4746	1773.746575247354	126
1	4747	1774.093390293771	125
1	4748	1774.865887153326	124
1	4749	1774.888159212861	123
1	4751	1777.340793934359	123
1	4753	1777.901186116598	124
1	4758	1778.902032759548	125
1	4760	1779.072127848459	126
1	4761	1779.181867515676	126
1	4763	1779.324339982708	126
1	4764	1779.406376495184	126
1	4765	1781.072016501131	125
1	4767	1781.139423755476	125
1	4769	1781.218311798287	126
1	4773	1782.546564355502	126
1	4774	1783.323750208735	125
1	4776	1784.138364934455	125
1	4777	1784.707380986954	125
1	4778	1785.136700962042	124
1	4780	1785.198296592559	124
1	4782	1785.638546283597	125
1	4783	1785.865100969218	125
1	4785	1785.89939192945	125
1	4787	1788.53883297854	126
1	4788	1790.438123818128	126
1	4789	1790.530342873368	125
1	4790	1790.624145304029	124
1	4792	1794.251473822591	124
1	4794	1795.845631436388	125
1	4798	1796.655227039503	125
1	4802	1797.800916545587	124
1	4804	1798.325327517701	124
1	4806	1798.606456407004	125
1	4807	1798.796406837527	125
1	4808	1798.887443065454	124
1	4822	1801.794671232741	124
1	4829	1803.679706058382	125
1	4832	1805.08041040712	126
1	4836	1806.288505324985	126
1	4838	1807.502032250377	126
1	4840	1807.529062425005	127
1	4842	1807.875599563768	128
1	4847	1810.935629855038	129
1	4849	1811.457327032532	130
1	4857	1815.151522116322	131
1	4861	1816.581522370743	131
1	4863	1816.802537171528	131
1	4864	1817.389390481651	131
1	4865	1817.409253552741	130
1	4867	1817.564131402376	130
1	4878	1821.109863065909	131
1	4883	1822.272626815254	132
1	4884	1822.65824333212	132
1	4894	1827.779757463721	132
1	4896	1828.848870587345	132
1	4898	1830.055435707848	132
1	4900	1830.375952519021	133
1	4907	1831.485792961229	133
1	4924	1835.037443728874	133
1	4932	1836.009033292376	134
1	4933	1836.13978310616	134
1	4935	1837.630887042115	134
1	4936	1838.914725329425	134
1	4944	1840.653702629951	134
1	4945	1840.683260742909	134
1	4946	1842.243512451605	133
1	4947	1842.248548269677	132
1	4954	1844.596317515208	131
1	4958	1846.969641819356	130
1	4962	1848.403368717991	129
1	4963	1848.416794475952	128
1	4964	1848.525937895282	127
1	4965	1849.024338218882	126
1	4967	1849.052937252768	126
1	4968	1849.730531563134	126
1	4970	1852.694837706594	126
1	4977	1854.361267737661	126
1	4978	1854.692046527544	125
1	4980	1854.884536789059	125
1	4981	1854.924487582497	125
1	4983	1855.253528738811	125
1	4984	1855.597931020252	125
1	4985	1855.653597525499	124
1	4989	1856.504369633242	123
1	4993	1857.954689693793	122
1	4994	1858.059951261191	121
1	4996	1858.227263387377	121
1	5001	1859.668700888803	122
1	5002	1860.198375992418	122
1	5004	1860.513836171116	122
1	5005	1860.518306784699	122
1	5006	1860.768892159851	121
1	5007	1862.040043343218	120
1	5009	1862.045576935928	120
1	5011	1862.427943135389	121
1	5013	1862.530818057516	122
1	5017	1863.376114100428	123
1	5019	1863.807425506106	124
1	5022	1863.958014206722	125
1	5026	1867.334560927344	125
1	5027	1867.605513410807	124
1	5031	1869.919764807287	123
1	5032	1870.315109430062	122
1	5034	1870.547914353762	122
1	5036	1871.331799924578	123
1	5038	1871.761556268434	124
1	5039	1871.873699207209	124
1	5041	1873.380686342413	124
1	5063	1879.154684590851	124
1	5065	1879.246695867247	124
1	5073	1880.23528591429	125
1	5074	1880.290925484787	125
1	5076	1881.317776640177	125
1	5077	1881.333840790185	125
1	5078	1881.56521035188	124
1	5080	1882.093418477554	124
1	5081	1883.703101444053	124
1	5085	1887.886867071227	123
1	5086	1888.294738951661	122
1	5090	1890.098163359613	122
1	5092	1890.203283898522	123
1	5101	1894.702818789421	124
1	5102	1895.562485631031	124
1	5107	1898.609938535444	124
1	5108	1899.809076367115	124
1	5110	1900.963754281443	124
1	5114	1902.142940000298	124
1	5119	1903.465532305406	124
1	5120	1903.472027607633	124
1	5127	1907.879464320121	123
1	5131	1908.888116592648	123
1	5133	1910.452071201131	123
1	5138	1914.505460165548	123
1	5140	1916.347435286778	124
1	5144	1917.387745667362	125
1	5146	1917.756694447625	125
1	5147	1918.305473383743	124
1	5148	1918.422590428708	123
1	5153	1920.883401125574	123
1	5155	1920.994922093082	124
1	5156	1921.168246853188	124
1	5157	1921.231875708978	123
1	5159	1922.618020690301	123
1	5166	1924.392127999068	123
1	5167	1925.582707320219	122
1	5172	1925.823943928219	122
1	5173	1926.239269192209	122
1	5175	1926.718506052298	122
1	5180	1927.458322864951	123
1	5182	1928.163472652359	124
1	5183	1928.432808219381	124
1	5185	1928.445786675271	124
1	5186	1928.822471008609	124
1	5187	1929.953013972717	123
1	5189	1932.405740361811	123
1	5191	1932.697306918316	124
1	5193	1933.286400549374	125
1	5194	1935.152992753709	125
1	5195	1935.505933799723	124
1	5197	1935.809065447175	124
1	5205	1937.350259157974	125
1	5209	1938.509000556213	126
1	5212	1939.370269089632	127
1	5220	1942.101583486555	128
1	5226	1944.521500342948	129
1	5229	1944.688559419829	129
1	5230	1945.730236394729	128
1	5232	1946.55765069444	128
1	5233	1947.085468379648	128
1	5239	1947.738433722654	128
1	5246	1951.323953770247	129
[...]
10	2145	807.58644972136	0.157604080023
10	2160	812.601110439719	0.277500823197
10	2192	831.359156280004	0.508981895625
10	2203	835.770627695267	0.268366787841
10	2215	842.285544039766	0.679841306571
10	2216	842.741167848075	0.864127572143
10	2221	843.728771640666	0.465983903178
10	2231	846.379591576669	1.067688221988
10	2234	847.097024219716	0.73266914558
10	2239	847.994244596953	0.386258899871
10	2243	848.689708247644	0.047110132511
10	2247	849.876063717872	0.420113815248
10	2252	850.2611705663	0.1563603661
10	2255	850.656560735249	0.430552531111
10	2273	859.097752031713	0.08457568581
10	2278	860.436124513755	0.660563015585
10	2289	863.795404124706	1.697513124478
10	2290	864.518902048153	0.938592967165
10	2295	865.500996283177	0.118594058247
10	2303	868.177989534903	0.42462726112
10	2306	868.30185343244	0.055037741233
10	2321	875.277904501316	0.393189307948
10	2330	879.385848651039	0.065964768491
10	2337	880.105942473715	0.045472263601
10	2340	880.590196550023	0.189486376168
10	2349	884.236216271325	0.71183645259
10	2365	892.554362182784	0.54535430498
10	2374	894.573228986904	0.682529365088
10	2375	894.645919346815	0.11317204567
10	2384	897.269435614643	1.222795099715
10	2389	899.614827420587	0.353127123155
10	2394	901.045367352923	0.139070589238
10	2401	902.946923988916	0.666036101358
10	2402	903.655709842141	0.780359357387
10	2407	906.463004601452	0.402345710366
10	2422	911.711251774726	0.134269891744
10	2441	916.260445474903	0.809625042281
10	2448	918.973569330385	0.568949991274
10	2453	919.719422533023	0.48042904492
10	2454	919.783384631875	0.464711964523
10	2459	924.19572048659	0.465421075264
10	2466	925.145864798529	0.940648143751
10	2469	925.56045745393	1.327018329278
10	2470	925.911411928893	0.697265355532
10	2485	930.339539645012	0.156789527866
10	2490	932.590295457077	0.211946854965
10	2495	934.265614587303	0.828071423511
10	2505	938.531583682666	0.112840293226
10	2514	940.669256393387	0.360801151782
10	2515	940.887932391928	0.245022726337
10	2519	941.248537781167	0.076895509789
10	2526	945.110647561417	1.414141413817
10	2527	945.312313953933	0.828086882473
10	2541	951.240928413982	0.161200336659
10	2548	954.370325305325	0.546224631748
10	2558	957.899572220127	0.038695767316
10	2566	958.888059558759	0.09753117802
10	2582	964.655269208275	0.168129125242
10	2597	969.677118064447	0.314950751919
10	2607	970.758987635813	0.041683336776
10	2615	974.430162610499	0.237508425341
10	2622	977.160623004561	0.003376480368
10	2629	981.357165259536	1.048575880347
10	2633	983.387656759928	0.762666586204
10	2646	986.678951316649	1.615756388149
10	2649	987.488542635879	2.00504291538
10	2650	987.677712285644	2.102752382953
10	2651	988.455298821133	2.565284328217
10	2662	991.795571734106	0.512688798987
10	2675	997.522504929198	0.131141884991
10	2678	998.059442107935	0.149867397286
10	2682	999.537164144372	0.224680985119
10	2689	1001.804827887325	0.463874023092
10	2700	1006.01858441905	1.554754988999
10	2705	1007.810338914699	1.031736604359
10	2706	1008.189753048157	1.303279220563
10	2715	1011.254622668212	1.273927601588
10	2728	1013.510784192661	0.841627848139
10	2729	1014.041005933226	1.039027758612
10	2730	1014.301838007725	1.200707818691
10	2731	1014.348146251968	0.869836132104
10	2734	1016.501923929299	0.497392631858
10	2744	1019.460871123791	0.247933433408
10	2747	1019.963485005753	0.336523327374
10	2754	1025.340654811325	0.682868641211
10	2762	1029.091178031966	1.172142900702
10	2770	1032.005590405106	0.921119132459
10	2771	1032.400889893028	0.639088256253
10	2775	1035.759783230895	0.517374787641
10	2782	1038.750540666243	1.083274223563
10	2783	1039.371320327482	1.102979882628
10	2799	1046.645337818157	1.014189943529
10	2808	1049.762467135912	0.641504537093
10	2811	1050.238635060432	0.3757996633
10	2818	1051.742653682399	0.058203462721
10	2823	1053.535534906041	0.291502884734
10	2834	1059.841841107411	1.680838367676
10	2847	1068.220094230504	0.238641033491
10	2858	1072.746308265449	0.119411079485
10	2863	1074.340769268503	1.166278074545
10	2869	1076.625298554285	0.635694102041
10	2874	1078.314550409272	0.81281218386
10	2887	1082.89722404291	0.342965665445
10	2888	1083.08055006777	0.476173451666
10	2893	1084.201442438851	0.498880627765
10	2901	1090.689959437258	0.054863076734
10	2911	1094.977065985802	0.067049916012
10	2920	1098.8925569267	0.28594217028
10	2924	1100.320364013544	1.242560356954
10	2927	1101.682037239892	0.223491047983
10	2935	1103.269573644049	0.0841602609
10	2945	1106.671990414746	0.701396751377
10	2948	1107.53225519807	0.147122705059
10	2954	1108.846176391864	0.77676375268
10	2961	1111.699469587026	0.890774491982
10	2962	1112.058625922058	0.740357190641
10	2973	1114.462254432448	0.963374352041
10	2974	1114.484058857898	0.478011876033
10	2975	1114.949026463177	0.813252802756
10	2984	1119.050171102798	0.428813050337
10	2988	1121.371500014015	1.81771752942
10	2995	1123.86004977008	0.234752891603
10	3001	1126.491477153387	0.3671096529
10	3009	1127.941012268765	0.10843559784
10	3017	1130.037568882853	0.339757788917
10	3039	1136.58617252664	1.189099373507
10	3042	1139.122740068818	0.127167791136
10	3050	1143.025362665723	0.080662185993
10	3064	1150.490300626674	0.161074822739
10	3073	1153.51467779003	0.12683276747
10	3076	1157.391172081837	2.209237300493
10	3079	1159.442079511553	0.113330413541
10	3087	1164.534332369864	0.962234053016
10	3088	1164.6324029546	0.200152717126
10	3091	1164.861543016772	0.228265215052
10	3095	1166.813665178933	0.985861915259
10	3108	1173.570159425892	0.310315508678
10	3111	1175.258154096058	1.322520829258
10	3123	1177.754030334225	0.023286475652
10	3138	1183.890913181195	0.197109251521
10	3146	1187.469418281055	0.049973638843
10	3150	1191.11382533183	1.162400917761
10	3160	1195.292646533428	0.104141150169
10	3163	1195.484557606249	0.048973728992
10	3166	1195.754557752781	0.174082680985
10	3170	1196.968823910766	0.290403111488
10	3177	1199.168192256596	0.474198783466
10	3180	1200.213815474815	0.15490867869
10	3188	1209.693380851722	0.075103821546
10	3194	1212.269909733992	0.763804622602
10	3211	1214.897999713724	0.917761384081
10	3212	1216.767075146732	2.596395731865
10	3215	1217.016601590693	2.837201472956
10	3216	1217.487213493683	0.583373869627
10	3219	1217.555666153729	0.019945513687
10	3226	1220.695614860498	0.541993754098
10	3236	1226.196768415343	0.301370608974
10	3239	1226.404522769039	0.199750004834
10	3246	1227.74290326852	0.619396938333
10	3247	1227.777529261606	0.620037960564
10	3253	1229.261668994272	0.666499061293
10	3254	1230.607554159019	1.81632556221
10	3267	1238.888827294464	1.508398494813
10	3274	1243.555072609701	2.368212358229
10	3288	1250.372957415892	0.493683243476
10	3300	1253.470828820158	0.460340216924
10	3301	1253.647538642163	0.516745146483
10	3302	1254.321551466382	1.152317031049
10	3309	1255.499495796515	0.728058040983
10	3310	1255.574527598098	0.733278256336
10	3311	1255.611565273472	0.249781167569
10	3314	1256.0743157104	0.28850211429
10	3317	1257.795795345483	0.217475005119
10	3326	1259.622653457995	0.246526236693
10	3329	1260.080381969369	0.513567505242
10	3330	1260.113183925261	0.197840354531
10	3337	1265.568224542449	2.700967719594
10	3342	1265.986459639177	0.378791749928
10	3343	1266.132224976341	0.462368252264
10	3350	1270.010060346925	0.409521681093
10	3356	1272.725435675112	0.036066172804
10	3365	1274.386753937371	0.049045556272
10	3370	1276.12902375721	1.106379863902
10	3374	1277.06110474873	0.275000916275
10	3377	1278.125369085442	0.875015665758
10	3382	1280.802024744686	0.494985794165
10	3386	1282.977767121609	0.431268948714
10	3393	1285.236493517537	0.350433869067
10	3398	1286.295263946945	0.225132463198
10	3401	1286.370614614193	0.070909625468
10	3406	1288.369398465549	0.138567134872
10	3411	1289.996095765451	0.242048217278
10	3417	1291.453411696586	0.072446055317
10	3422	1292.116197126473	0.196273645286
10	3433	1298.328773748177	0.032952730406
10	3438	1299.250921323888	0.247727234945
10	3443	1300.316322154265	0.199290326275
10	3447	1300.710061563727	0.246031026258
10	3460	1303.65412221111	0.216910824971
10	3461	1303.710616402517	0.261669148841
10	3466	1304.236933357633	0.330793964807
10	3471	1306.475665118362	1.756305274736
10	3477	1309.647664827685	0.156498952571
10	3483	1313.867137581256	0.854349873628
10	3488	1314.643017414654	0.335232259975
10	3497	1317.57452807776	1.611684288998
10	3501	1317.93058421264	0.144565456996
10	3507	1320.561506356768	0.123067311945
10	3513	1323.468944703157	1.368937298128
10	3514	1323.622145969046	0.727545020873
10	3519	1326.118211727721	0.494071939899
10	3524	1328.152368932695	0.830678855204
10	3527	1328.739636796631	0.270952669338
10	3534	1331.404683738003	0.062464604726
10	3543	1335.260390392754	0.107401622125
10	3552	1337.329308486783	1.514572090861
10	3553	1337.741333828856	1.60303328458
10	3554	1337.829149864538	1.624206010988
10	3557	1339.013791514166	0.04241490358
10	3562	1340.177609358777	0.309337115697
10	3565	1341.319130610423	1.375919102622
10	3566	1341.803889222507	0.960888339559
10	3573	1346.130657371542	0.2128621545
10	3580	1347.004145441318	0.396120364562
10	3581	1347.269061057148	0.447433774087
10	3584	1347.905092560936	0.209011731636
10	3594	1354.611914413178	0.382215233675
10	3595	1354.664957342635	0.23440158877
10	3615	1359.055169013284	2.80105889961
10	3616	1359.105516827336	2.391183370659
10	3617	1359.31414497472	1.113934563044
10	3620	1360.072858755131	0.036808367389
10	3623	1361.008562701435	0.473653829674
10	3627	1362.181990327378	0.744358389682
10	3632	1363.155612414985	0.123131550383
10	3643	1363.941442061688	0.178386601848
10	3649	1365.269919173213	0.018411898892
10	3659	1368.80202913977	0.869217729259
10	3676	1374.50628252671	0.201383885269
10	3679	1377.93700079213	0.520732175141
10	3692	1384.07489910915	0.649309611891
10	3695	1384.654742067449	0.666247442947
10	3702	1388.504447340078	0.108570702254
10	3713	1394.375822886441	1.426094833238
10	3722	1397.241846958278	0.035876977475
10	3727	1398.732916964797	1.361538541746
10	3739	1404.880416790837	0.81286331098
10	3746	1406.726932690863	0.531232249912
10	3749	1407.665005302119	1.32158208721
10	3750	1407.866252060499	0.809849051021
10	3759	1412.087441104831	0.920550075199
10	3760	1412.184245915321	0.481285184471
10	3772	1417.069305821005	0.316265325273
10	3779	1424.537500089546	0.34931325379
10	3788	1427.184526365087	0.350811962573
10	3792	1428.077796056538	0.04182364242
10	3804	1431.155524493357	0.666710554257
10	3805	1431.20661413745	0.189195553743
10	3827	1443.777610803627	0.138622155557
10	3831	1444.892362990199	0.025306469706
10	3834	1446.228912605096	0.217430904643
10	3838	1449.668526769136	0.293786484708
10	3846	1451.214535901256	0.809774053542
10	3847	1451.372191196389	0.834834353089
10	3860	1454.641268214877	0.225233884741
10	3863	1455.255661931937	0.485987070956
10	3866	1455.833280737479	0.118930963991
10	3892	1465.20209273153	0.75840690903
10	3897	1467.975854412352	0.727091575565
10	3900	1470.591890068992	0.10607116249
10	3910	1472.4008604236	0.018773408213
10	3918	1475.372167347058	0.621479233032
10	3928	1476.241760633067	0.170003151194
10	3929	1476.446107373492	0.288685306662
10	3933	1478.380897549166	0.054729732328
10	3936	1478.750731983965	0.306131611933
10	3946	1481.778943996911	0.609734591672
10	3947	1481.845598949814	0.604504578355
10	3956	1485.363004885	0.606493046872
10	3957	1485.396792180623	0.376198580198
10	3958	1486.000203511833	0.85824865772
10	3961	1487.129351450441	0.391291092476
10	3968	1489.794613820669	0.909901094308
10	3973	1493.139628710625	0.522151942716
10	3989	1497.928510442556	0.677454728341
10	3993	1499.788673649142	0.145078327378
10	4003	1507.3419653164	0.667591675824
10	4012	1511.128065825372	0.449627006546
10	4019	1514.398568117521	1.013175950867
10	4020	1514.849870944808	1.381241581064
10	4051	1526.614108392231	0.367725825812
10	4054	1527.875752187365	1.478897505293
10	4055	1527.951371626493	0.532762103189
10	4061	1530.819411654181	1.889959043198
10	4066	1531.306420123538	0.261181764977
10	4070	1533.154814671514	0.813454601412
10	4078	1533.476921362691	0.140009822508
10	4095	1540.600264953997	0.187710902503
10	4110	1547.111322715587	0.006596192464
10	4113	1547.335384104272	0.019468531981
10	4123	1551.336371511581	2.111430071671
10	4134	1557.594030493783	0.85993816143
10	4135	1558.214827276748	0.677213945775
10	4138	1558.362947839622	0.040633331694
10	4149	1562.181124227508	0.384069956686
10	4155	1564.020624868713	0.593781539289
10	4164	1567.192675186142	0.108667503206
10	4169	1567.754885867816	0.25789538898
10	4172	1568.532254331245	0.082490548883
10	4180	1572.179718768709	0.104616264126
10	4192	1577.326720308836	0.192350500196
10	4198	1580.186703184137	0.451147423223
10	4201	1581.345903361129	0.256825773864
10	4204	1582.296519461516	0.649618063798
10	4215	1588.065761215382	0.015383671726
10	4219	1588.315081595827	0.045647732402
10	4227	1591.625142449688	0.106739220774
10	4235	1593.471958842589	0.484772366348
10	4238	1594.178187507926	0.867927201387
10	4244	1596.218064119916	0.410293606755
10	4252	1599.436671670392	0.204015003586
10	4275	1607.271035068291	0.203263883207
10	4292	1610.605314072734	1.263384038321
10	4293	1610.98776339849	0.96677306061
10	4294	1611.084028204591	0.519130086501
10	4308	1613.537622470823	0.583475612291
10	4315	1614.827103722483	0.50164650945
10	4318	1615.709500892069	0.105583055228
10	4324	1616.886983632947	0.826128134834
10	4327	1617.860685702302	0.955403182379
10	4332	1622.732314168933	0.905193507788
10	4345	1625.998070983024	0.1372012456
10	4346	1626.441542352383	0.535613704148
10	4354	1632.724802018797	0.903491698014
10	4364	1635.234750752002	0.306854069093
10	4373	1638.208475018554	0.671239378979
10	4380	1638.882754508205	0.222915680317
10	4383	1639.587022816647	0.104064353114
10	4388	1640.63883987521	0.791320179673
10	4402	1644.463191405848	0.344428157769
10	4406	1646.942972002723	0.006354291617
10	4412	1648.653710668469	0.027946594592
10	4424	1651.519291338411	0.504868853134
10	4427	1652.226507441653	1.177129714611
10	4432	1653.649412930003	0.639982803502
10	4433	1653.816671701444	0.467594247993
10	4439	1654.77346778203	0.262352406947
10	4442	1655.964289519464	0.159930942208
10	4447	1657.867666879119	1.59715954658
10	4452	1658.438955974029	0.414323864503
10	4459	1661.606798492873	0.390727845473
10	4472	1668.000661354203	0.941243763135
10	4473	1668.662872970815	1.207568704149
10	4474	1669.329564277918	1.443450638478
10	4477	1669.934570365105	0.52222250211
10	4480	1671.598740509897	0.313170370171
10	4490	1675.040579773572	1.749905061485
10	4498	1677.213117945646	0.250186497453
10	4504	1680.090196271076	0.282946411211
10	4512	1683.029153292838	1.128043604301
10	4517	1683.808127363326	1.145570020566
10	4518	1684.327733063906	0.992104237293
10	4523	1686.788393734242	1.550071651547
10	4537	1689.93437602284	0.16495287936
10	4538	1690.05700522769	0.15188638668
10	4546	1692.567952764127	0.263576122416
10	4555	1695.634948923376	1.359026992192
10	4558	1697.452064626356	0.660921173908
10	4568	1700.004159339728	0.113123235035
10	4573	1701.76466757659	0.773592086041
10	4581	1705.18501802026	0.466650246907
10	4590	1707.409200150927	0.317726653543
10	4608	1713.072053767235	0.070798589829
10	4614	1714.916580028857	0.423004250114
10	4615	1714.96673377466	0.297791665735
10	4624	1717.536384549993	0.965527521063
10	4625	1717.861681629423	0.97663656762
10	4634	1719.881806160538	0.384254005898
10	4635	1719.927667127436	0.061478318855
10	4651	1725.973984740577	0.336912617656
10	4659	1728.397030367155	0.236429012843
10	4664	1730.094737649772	0.541625018985
10	4668	1730.910699562874	0.318392516272
10	4675	1736.755051443197	0.084096388169
10	4685	1742.036224870467	0.316676450564
10	4688	1743.429563647511	0.458959970279
10	4695	1746.18697237177	0.091366838299
10	4703	1749.339834222568	0.418323255226
10	4722	1763.163270059045	0.596363530346
10	4727	1766.151583430309	0.17849278385
10	4731	1767.321037859353	0.429201054109
10	4734	1768.298219248105	0.097820175308
10	4737	1768.814321249156	0.17426184089
10	4740	1771.26433772608	0.03836152931
10	4756	1778.253198415119	0.102760261543
10	4772	1781.60813179277	0.014289843977
10	4797	1796.635050601222	0.446672183551
10	4801	1797.730516613585	0.295164934884
10	4811	1800.212661874928	0.118163736956
10	4814	1800.548690523921	0.007593007599
10	4817	1801.012388347204	0.400933775518
10	4820	1801.468099490999	0.26196903539
10	4825	1802.998290631207	0.384005618272
10	4830	1805.051807047212	1.408929148585
10	4835	1806.212327946696	0.876533030166
10	4845	1810.873223543901	0.050896913697
10	4854	1813.377398193452	1.050022046966
10	4855	1813.64596109246	0.504432158005
10	4860	1816.274858689214	0.463467353496
10	4870	1818.934748237057	0.801821046817
10	4875	1819.734400745869	0.169114605315
10	4876	1820.711874319313	1.059114562609
10	4881	1821.675632263486	0.463661976586
10	4889	1824.947142233498	0.940499313427
10	4890	1825.213206363271	0.90024931351
10	4895	1828.463002150521	1.262967748481
10	4903	1830.532165735799	0.141809234632
10	4906	1830.904158027395	0.04984930837
10	4910	1832.012422359544	0.416291808896
10	4913	1832.639468161884	0.117087594875
10	4916	1833.424102251806	0.616871393773
10	4919	1834.612431995421	0.032070120135
10	4922	1834.784230595588	0.092877275533
10	4929	1835.279801829319	0.10703380068
10	4930	1835.619750701862	0.405864990533
10	4939	1840.293023583175	0.599287619049
10	4942	1840.640982600864	0.120074929437
10	4950	1843.591343321034	0.171782355693
10	4953	1844.229024363312	0.32851815047
10	4957	1846.911556308777	0.1021928299
10	4961	1847.96045073632	0.053723637364
10	4975	1853.214819896708	0.512087507831
10	4976	1853.319760437096	0.38822144517
10	4988	1856.47136709409	0.550318865424
10	4992	1857.174798975447	0.094180837903
10	4999	1858.983693791711	0.023372407392
10	5020	1863.941741621136	0.969575658728
10	5025	1866.546851235513	0.1574791819
10	5030	1868.579190391668	0.591951066248
10	5048	1875.235705850137	0.243647055521
10	5049	1875.599782934517	0.558065027172
10	5050	1875.817625538785	0.740655782028
10	5053	1875.911093257623	0.034481851561
10	5056	1876.04726410513	0.020139790162
10	5059	1877.200451491951	0.796775650563
10	5062	1879.11278743818	0.499250133461
10	5068	1879.386970566401	0.044065246593
10	5071	1879.619837249383	0.013289150147
10	5084	1885.65545359248	1.261965691836
10	5095	1891.039059164956	2.424181112024
10	5096	1891.284041693965	0.663347817885
10	5099	1891.558891276833	0.024737686473
10	5105	1897.916471961259	0.327674060687
10	5113	1901.750729708842	0.287844143049
10	5117	1903.242718925246	0.050598853447
10	5123	1903.601329823478	0.083969357624
10	5126	1906.097270610674	1.880729322687
10	5132	1909.422584349742	1.428676919126
10	5136	1911.304684051225	0.133485997994
10	5145	1917.434882579248	0.539084909953
10	5151	1919.272155513929	0.253681800404
10	5164	1923.558323544992	0.363331397691
10	5165	1923.981576962327	0.490096853066
10	5170	1925.767534472722	0.099688677348
10	5178	1927.197766623893	0.398450852988
10	5206	1937.911075202069	1.51910537301
10	5207	1938.281908711303	1.327283586839
10	5210	1938.887224827392	1.821620196313
10	5215	1939.797411399598	0.081267351552
10	5218	1941.462427316663	0.809163396552
10	5227	1944.586125520415	0.441603626892
10	5228	1944.610844816556	0.265629126109
10	5240	1948.676823330775	1.29307293467
10	5241	1948.952100643901	1.32073693262
10	5244	1950.281094376072	1.273018074372
10	5259	1958.076572571561	2.117636231509
10	5260	1958.138948520289	1.744009170634
10	5261	1958.510913433139	1.045708321194
10	5262	1958.597666783249	1.04101474596
10	5273	1964.623826677964	0.927971727379
10	5276	1965.965481011881	0.795485943373
10	5285	1970.286786721705	1.65431239354
10	5286	1971.884634818978	2.672959592355
10	5291	1974.555573879769	0.721562710007
10	5295	1975.77536327258	0.054359369146
10	5298	1976.352895344238	0.425715932073
10	5303	1978.61418081561	0.837877756935
10	5319	1987.727458767391	1.928195644504
10	5324	1990.114463651318	0.6071812485
10	5330	1994.252659789188	0.070969088845
10	5340	1999.781013521956	0.56567806965
11	5342	2000	0.435
12	5342	2000	0.4125

