file 358121 1671470923                                          
version 2
run Monotonicity_test_recover_rate-441-20221219-18:28:43-16694
attr configname Monotonicity_test_recover_rate
attr datetime 20221219-18:28:43
attr experiment Monotonicity_test_recover_rate
attr inifile omnetpp.ini
attr iterationvars $0=100
attr iterationvarsf 100-
attr measurement $0=100
attr network Network
attr processid 16694
attr repetition 41
attr replication #41
attr resultdir results
attr runnumber 441
attr seedset 41
param *.minion.arrival_mean 2
param *.minion.service_mean 1.5
param *.boss.arrival_mean 2.5
param *.boss.service_mean 0.5
param *.player.recover_rate_x 100
param **.minion.arrival_distribution 0
param **.minion.service_distribution 0
param **.boss.arrival_distribution 0
param **.boss.service_distribution 0

vector 0 Network.player minion_jobs_number_stat:vector ETV
attr source signal_minion_jobs_number
vector 1 Network.player minion_jobs_queue_number_stat:vector ETV
attr source signal_minion_jobs_queue_number
vector 2 Network.player minion_recovered_stat:vector ETV
attr source signal_minion_recovered
vector 3 Network.player minion_defeated_stat:vector ETV
attr source signal_minion_defeated
vector 4 Network.player boss_jobs_number_stat:vector ETV
attr source signal_boss_jobs_number
vector 5 Network.player boss_jobs_queue_number_stat:vector ETV
attr source signal_boss_jobs_queue_number
vector 6 Network.player boss_defeated_stat:vector ETV
attr source signal_boss_defeated
vector 7 Network.player minion_waiting_time_stat:vector ETV
attr source signal_minion_waiting_time
vector 8 Network.player boss_waiting_time_stat:vector ETV
attr source signal_boss_waiting_time
vector 9 Network.player boss_response_time_stat:vector ETV
attr source signal_boss_response_time
vector 10 Network.player minion_response_time_stat:vector ETV
attr source signal_minion_response_time
vector 11 Network.player minion_throughput:vector ETV
attr source signal_minion_throughput
vector 12 Network.player boss_throughput:vector ETV
attr source signal_boss_throughput
0	1994 26897 0 5287 0 1999.863375706023 1000 0 104 39216 2489876
1	28891 50937 0 5287 0 1999.863375706023 1895 0 103 71078 4455322
2	79828 17520 0 5276 0 1998.503636392723 627 0 626 196251 81967501
3	97348 25080 0 5274 0 1997.67401167273 896 0 895 400960 239373120
4	122428 20871 0 5276 0 1998.503636392723 799 0 4 984 1434
5	143299 41728 0 5279 0 1998.578064228077 1597 0 3 372 528
6	185027 22353 0 5279 0 1998.578064228077 799 0 798 318801 169708399
7	207380 60232 2 5279 0.883167411662 1998.578064228077 1522 0 132.33255390332 68475.594703297 5246835.522082
8	267612 22813 4 5276 0.883625480093 1998.503636392723 798 0 2.452512958753 78.781429821456 77.145099817552
9	290425 31124 9 5279 2.026878227694 1998.578064228077 798 0.000301038881 3.687285256904 472.09061040645 517.52542257392
10	321549 36532 17 5274 5.384747668116 1997.67401167273 895 0.006025720713 134.62029697558 40378.051027246 3084539.7271372
11	358081 20 5288 5288 2000 2000 1 0.4475 0.4475 0.4475 0.20025625
12	358101 19 5288 5288 2000 2000 1 0.399 0.399 0.399 0.159201

