version 2
run Monotonicity_test_recover_rate-157-20221219-18:27:44-15255
attr configname Monotonicity_test_recover_rate
attr datetime 20221219-18:27:44
attr experiment Monotonicity_test_recover_rate
attr inifile omnetpp.ini
attr iterationvars $0=25
attr iterationvarsf 25-
attr measurement $0=25
attr network Network
attr processid 15255
attr repetition 57
attr replication #57
attr resultdir results
attr runnumber 157
attr seedset 57
param *.minion.arrival_mean 2
param *.minion.service_mean 1.5
param *.boss.arrival_mean 2.5
param *.boss.service_mean 0.5
param *.player.recover_rate_x 25
param **.minion.arrival_distribution 0
param **.minion.service_distribution 0
param **.boss.arrival_distribution 0
param **.boss.service_distribution 0

vector 0 Network.player minion_jobs_number_stat:vector ETV
attr source signal_minion_jobs_number
vector 1 Network.player minion_jobs_queue_number_stat:vector ETV
attr source signal_minion_jobs_queue_number
vector 2 Network.player minion_recovered_stat:vector ETV
attr source signal_minion_recovered
vector 3 Network.player minion_defeated_stat:vector ETV
attr source signal_minion_defeated
vector 4 Network.player boss_jobs_number_stat:vector ETV
attr source signal_boss_jobs_number
vector 5 Network.player boss_jobs_queue_number_stat:vector ETV
attr source signal_boss_jobs_queue_number
vector 6 Network.player boss_defeated_stat:vector ETV
attr source signal_boss_defeated
vector 7 Network.player minion_waiting_time_stat:vector ETV
attr source signal_minion_waiting_time
vector 8 Network.player minion_response_time_stat:vector ETV
attr source signal_minion_response_time
vector 9 Network.player boss_waiting_time_stat:vector ETV
attr source signal_boss_waiting_time
vector 10 Network.player boss_response_time_stat:vector ETV
attr source signal_boss_response_time
vector 11 Network.player minion_throughput:vector ETV
attr source signal_minion_throughput
vector 12 Network.player boss_throughput:vector ETV
attr source signal_boss_throughput
0	0	0	0
0	2	1.102638438232	1
0	5	1.592589650384	1
0	11	3.153238875254	2
0	15	3.966293391396	3
0	17	6.299357748572	4
0	38	13.672884409986	4
0	41	14.522434192288	4
0	44	15.339807473983	4
0	46	16.4959796328	5
0	51	17.782477354147	3
0	56	19.561040381237	3
0	59	20.291861606467	4
0	64	22.412542802166	5
0	70	25.040706898048	4
0	72	25.27437200067	5
0	84	30.849666585008	3
0	87	31.158074136105	3
0	89	33.405726718582	4
0	94	37.551490554075	2
0	103	39.836518796797	2
0	105	40.65848477568	3
0	107	41.715486508923	4
0	109	41.858642359581	5
0	111	42.108385719753	6
0	113	42.856084142038	7
0	115	42.972420084013	8
0	120	44.869947865821	9
0	122	44.875843738895	10
0	129	46.998716523406	9
0	132	48.381831291766	9
0	137	53.025720313351	10
0	139	53.054661787076	11
0	141	53.250071927821	12
0	144	55.379266150914	12
0	163	60.545179911771	8
0	165	61.658818413421	9
0	167	62.060851558048	10
0	177	64.317165754625	6
0	179	64.417730047872	7
0	181	64.817793743577	8
0	183	65.400489090156	9
0	186	66.914555261926	9
0	192	67.318020370314	9
0	194	67.593616807359	10
0	196	68.757234883041	11
0	198	69.336375989516	12
0	204	72.018230535602	9
0	208	72.316507644403	10
0	211	73.006182471801	11
0	213	73.33668415134	12
0	215	74.003013208065	13
0	217	74.057259523821	14
0	219	74.335500193898	15
0	232	83.419309552724	11
0	235	85.494580868252	11
0	237	86.774713904377	12
0	239	86.886917189602	13
0	249	90.556543790723	9
0	251	91.217843087169	10
0	264	99.22110378529	6
0	267	100.062496380428	6
0	273	101.70866636509	6
0	277	102.196835425688	7
0	279	102.553945497306	8
0	282	102.828309841355	9
0	285	103.647151160699	9
0	291	104.720209992149	9
0	293	104.977653964428	10
0	299	106.846649589602	10
0	301	106.884981130726	11
0	308	108.200861280518	12
0	322	110.837249637386	9
0	324	110.848543643111	10
0	331	113.867104798471	11
0	333	115.162102336198	12
0	342	120.926970536672	12
0	344	121.124772988031	13
0	350	123.577633956751	13
0	353	124.862233551968	13
0	359	129.681025020934	13
0	364	130.685277239537	11
0	366	132.13229858381	12
0	372	132.76875464338	13
0	391	139.364922934522	14
0	393	141.720172938189	15
0	395	142.228458585743	16
0	399	144.210218213318	15
0	410	148.183333877231	13
0	417	149.739638582905	12
0	422	152.896089648019	13
0	429	158.064775353029	9
0	431	158.616121649184	10
0	437	159.288788164399	10
0	439	159.291433673135	11
0	446	160.99471924246	11
0	448	161.231724250502	12
0	450	161.301268050911	13
0	471	167.886913365182	12
0	479	169.602439673352	12
0	481	171.422566608513	13
0	486	172.504305829544	12
0	488	173.004402695912	13
0	500	178.221614205633	13
0	503	178.565179647204	13
0	508	180.738553412754	13
0	511	181.735794060326	14
0	521	185.503203378667	7
0	523	185.621879926695	8
0	525	185.981530931946	9
0	532	188.640759998566	9
0	539	190.057455278511	10
0	545	193.707185915879	10
0	553	197.045688904754	8
0	559	199.603547340052	8
0	561	199.816178404073	9
0	567	202.222022352101	9
0	572	203.95601710669	10
0	574	204.275783171671	11
0	576	204.470610390602	12
0	579	205.006583635645	12
0	583	205.412657787903	13
0	586	206.124224720064	14
0	605	215.413576822386	12
0	613	217.490886425034	11
0	615	217.950786347313	12
0	619	219.648653819998	11
0	621	220.564076611652	12
0	623	221.035007424316	13
0	626	221.413002287971	13
0	632	222.419791164556	13
0	634	222.919906184765	14
0	637	224.060120037733	14
0	644	226.444159360914	13
0	650	227.373346553516	13
0	654	228.196035972009	14
0	662	230.965215624719	15
0	673	234.508590261384	16
0	676	236.166722952536	17
0	694	242.907211680261	13
0	700	243.162738413611	14
0	708	245.502970423549	14
0	710	245.534745285344	15
0	717	249.295826225527	12
0	723	251.391180243508	11
0	732	255.350574826548	9
0	737	256.156016324646	10
0	744	259.561766434803	8
0	749	260.706445868558	9
0	751	260.728032785186	10
0	757	262.277804061632	11
0	760	266.106314614527	11
0	775	273.091755302747	8
0	779	274.351674373237	9
0	782	274.527110870843	10
0	787	275.966021466498	11
0	789	276.283482022428	12
0	798	281.026806660738	12
0	800	281.112511763187	13
0	804	283.916749823352	12
0	812	284.84695154104	13
0	818	287.762976638237	13
0	825	288.496900334826	12
0	834	290.603657131757	12
0	836	290.847355594297	13
0	845	291.745795174939	13
0	852	293.31890569501	14
0	872	301.843919522942	10
0	874	303.006520364779	11
0	878	303.780779583469	10
0	884	309.327360345275	10
0	888	310.376755034469	11
0	897	313.694945446984	11
0	904	314.798025492919	11
0	906	315.120862829042	12
0	913	320.615520813056	11
0	922	323.654070427824	10
0	925	323.912792215123	11
0	930	325.436335139449	9
0	933	326.25260984983	9
0	936	329.104386416407	9
0	939	329.921395244703	9
0	941	330.405925095768	10
0	948	334.777321815279	6
0	952	334.843467402419	7
0	967	340.212867352156	7
0	975	342.705650052172	6
0	985	347.65949988711	5
0	987	348.45068010922	6
0	991	349.231658526119	7
0	999	350.466380218315	6
0	1015	355.814015625623	2
0	1022	363.102723547071	1
0	1025	364.230893526277	1
0	1027	364.887534101702	2
0	1029	366.254151972399	3
0	1031	366.847112134622	4
0	1038	368.703255697429	5
0	1046	370.160539791275	6
0	1055	373.087233714407	7
0	1060	373.724572477594	8
0	1063	373.972308874552	8
0	1081	381.822817908542	8
0	1083	381.886436342794	9
0	1085	382.561514525579	10
0	1087	382.801884657175	11
0	1094	385.117310856854	12
0	1099	385.78868433204	11
0	1101	385.878674181759	12
0	1110	390.737692773832	11
0	1113	390.867869411263	12
0	1115	390.958258282882	13
0	1118	391.095174403367	13
0	1121	391.281250163252	13
0	1123	391.496582293228	14
0	1125	392.420786380815	15
0	1130	393.02029457232	16
0	1137	395.8964686336	15
0	1139	396.164699676283	16
0	1146	400.313038716906	15
0	1148	400.359749621459	16
0	1154	402.61240746016	16
0	1158	403.34771551804	17
0	1165	405.262650631933	18
0	1168	405.848599973367	19
0	1170	406.045965778538	20
0	1173	407.553321203749	21
0	1175	407.858036888082	22
0	1180	409.192957745985	23
0	1187	415.659661041767	21
0	1192	417.402425783704	20
0	1194	417.585791657156	21
0	1197	419.232671248483	21
0	1199	419.403384220938	22
0	1201	420.797253484131	23
0	1204	421.157661022148	23
0	1207	424.324911727586	23
0	1215	427.830094327849	23
0	1218	429.138244493888	24
0	1225	430.903007328616	23
0	1230	432.483756137998	23
0	1232	432.725671586923	24
0	1235	433.295394818058	25
0	1237	435.111470808869	26
0	1239	436.6170870198	27
0	1241	437.124869087381	28
0	1246	438.754397260444	29
0	1248	438.95633684558	30
0	1250	440.130947526096	31
0	1255	440.667611948751	32
0	1257	440.918028642234	33
0	1259	441.095466862916	34
0	1264	441.711043885887	35
0	1269	444.90757770546	36
0	1275	446.869358636962	36
0	1277	447.264289684914	37
0	1285	449.162628863583	35
0	1287	450.99166257266	36
0	1292	453.373000179339	37
0	1301	457.752154301272	37
0	1304	460.247256383397	37
0	1307	460.800952822432	37
0	1310	461.824624073355	37
0	1313	462.27336583764	37
0	1316	462.519375442876	37
0	1324	466.286447049747	35
0	1333	467.563939858146	35
0	1336	469.594055285494	35
0	1339	471.636894304102	35
0	1352	474.895695516346	34
0	1369	480.671207962644	32
0	1371	481.026210392879	33
0	1373	481.33549215858	34
0	1376	482.605161444718	34
0	1387	485.592359882032	32
0	1401	487.996575861318	33
0	1404	488.974188622143	34
0	1407	490.772822962574	35
0	1413	492.113605515126	35
0	1417	495.037774462341	35
0	1422	496.941487095147	35
0	1425	498.094873403285	36
0	1428	498.566607891702	36
0	1432	501.867158747105	35
0	1434	501.946298388375	36
0	1441	504.089033647014	35
0	1452	506.812368190632	33
0	1454	507.080168938218	34
0	1456	507.089244628396	35
0	1469	512.806793216767	32
0	1472	513.426400218567	33
0	1476	516.946883598196	33
0	1481	518.128893577601	34
0	1483	518.740387001912	35
0	1486	520.269532871001	35
0	1488	520.456805216177	36
0	1497	525.055336977411	36
0	1502	525.731227550052	37
0	1504	527.030624515488	38
0	1507	527.802438454718	38
0	1519	531.940906779064	38
0	1525	536.188514209636	38
0	1532	536.508237054719	39
0	1534	537.091941696332	40
0	1536	537.511485517295	41
0	1543	540.230091960966	41
0	1545	540.288590148791	42
0	1547	540.475695119638	43
0	1550	541.168966491044	43
0	1567	547.29940710013	41
0	1569	547.649298595721	42
0	1575	549.875053878253	42
0	1578	551.45595343961	42
0	1585	555.127037421872	43
0	1587	555.173327777164	44
0	1595	559.186400118756	45
0	1598	560.065515457627	46
0	1600	560.082719191995	47
0	1603	561.217328811022	47
0	1605	561.233875413095	48
0	1610	561.672031830706	49
0	1619	564.293296192652	46
0	1627	571.90476865937	44
0	1634	573.42035374193	44
0	1636	574.215275040001	45
0	1639	574.646847539734	46
0	1644	575.004432755544	47
0	1651	577.075441728586	47
0	1654	580.07826901391	47
0	1658	580.566914013383	46
0	1671	584.736328979324	45
0	1684	587.112047788815	43
0	1692	592.314541312246	42
0	1699	594.904620469619	41
0	1701	595.094613787857	42
0	1725	600.894341261252	42
0	1732	604.412585681556	40
0	1734	604.771842136335	41
0	1737	605.680631022691	42
0	1743	607.922758962762	42
0	1746	609.160878196666	42
0	1761	616.14552554459	39
0	1766	617.838344609138	39
0	1773	621.447353136872	39
0	1778	624.16917863977	39
0	1783	625.287325011508	40
0	1785	625.818967109599	41
0	1787	625.913763955061	42
0	1793	628.003487313714	40
0	1800	630.116896404664	39
0	1802	630.390466837599	40
0	1804	630.399290747445	41
0	1813	632.486288454915	40
0	1816	637.148289056686	41
0	1832	643.391648778846	37
0	1835	646.57215160908	37
0	1841	648.100325174997	37
0	1846	649.153236118922	38
0	1854	650.741375012732	39
0	1877	660.123483182207	33
0	1880	662.325781501979	34
0	1882	664.927596179709	35
0	1884	668.360357098866	36
0	1886	669.320460451403	37
0	1891	670.222714641864	38
0	1901	673.081074165524	37
0	1903	673.276452510269	38
0	1907	674.454656662702	39
0	1916	678.375263173121	39
0	1921	680.505535975659	38
0	1924	681.229235167093	38
0	1926	682.405300020312	39
0	1931	685.243943476441	40
0	1934	686.10040934437	40
0	1937	687.525297418088	40
0	1939	687.699459070444	41
0	1942	688.582141006944	41
0	1951	695.974350322197	38
0	1956	696.560051743607	39
0	1965	697.991319158915	40
0	1967	698.021896218141	41
0	1977	699.886859903874	42
0	1979	700.180956755508	43
0	1981	700.714525998895	44
0	1985	701.079946271656	45
0	1988	701.249518987646	46
0	1998	705.002527937611	43
0	2000	705.150730173327	44
0	2004	705.26286406835	45
0	2007	705.387135190279	46
0	2014	710.643862040149	47
0	2017	711.180240624067	47
0	2019	712.484712314768	48
0	2023	716.872494335932	47
0	2025	718.494506297727	48
0	2028	719.407217581816	48
0	2030	720.111588791717	49
0	2035	720.885612285543	49
0	2038	721.98394672085	50
0	2042	723.759305899848	49
0	2048	726.216924098305	49
0	2051	726.597789338461	49
0	2054	728.70618400897	49
0	2066	738.12879172927	46
0	2069	739.316550227178	46
0	2073	741.05949580786	47
0	2076	741.678588095567	48
0	2083	744.371975966846	47
0	2088	747.669955737069	45
0	2094	751.065026796775	44
0	2097	753.108392169467	45
0	2110	761.063849977538	44
0	2116	762.684144786552	44
0	2120	765.622912834351	43
0	2122	766.633270199497	44
0	2124	768.097379736352	45
0	2126	768.376050790153	46
0	2129	769.080845684688	46
0	2132	769.832166989797	46
0	2136	771.113957066378	45
0	2143	772.875154355533	43
0	2147	774.359172301923	44
0	2149	774.470951159919	45
0	2158	778.632201553282	46
0	2167	780.756241458478	44
0	2177	783.830773532608	40
0	2179	786.05801091374	41
0	2181	786.844009952616	42
0	2183	787.240464024051	43
0	2185	787.615908263834	44
0	2190	791.190096459409	42
0	2194	791.692511116597	43
0	2208	797.737871957449	39
0	2220	803.662736740712	36
0	2224	805.65752244695	35
0	2227	807.566874759689	35
0	2237	809.927147573532	36
0	2240	811.679064169736	37
0	2249	814.624779447784	37
0	2251	814.752130489477	38
0	2254	814.846658156322	38
0	2264	817.296585386147	37
0	2274	820.80789613231	36
0	2276	820.959202362933	37
0	2280	823.109714221539	36
0	2291	825.760615999262	37
0	2299	830.602818389262	37
0	2318	839.438997806301	31
0	2341	847.494618277464	28
0	2343	848.108789903124	29
0	2345	848.214666124953	30
0	2369	861.092425274914	28
0	2375	863.459130775558	28
0	2384	866.590030790477	28
0	2386	866.798413048004	29
0	2391	867.606653204746	30
0	2398	871.261961656225	29
0	2410	875.949882555494	29
0	2419	879.038884597869	28
0	2425	880.594902102989	29
0	2428	881.412146489455	29
0	2430	884.025214681131	30
0	2432	884.259712891085	31
0	2441	889.808742080784	31
0	2453	895.069607513696	28
0	2458	895.830314888445	28
0	2465	897.011094043368	27
0	2470	898.758178426327	26
0	2479	902.01099274589	25
0	2483	902.588760614213	26
0	2492	906.815346285869	25
0	2497	910.28835099577	26
0	2500	910.603124634896	26
0	2513	911.676242391728	27
0	2522	915.5426638762	25
0	2527	917.660872591987	26
0	2529	917.667082607438	27
0	2534	919.720898445749	28
0	2540	923.055284367535	28
0	2545	928.307357315802	26
0	2549	930.455898670546	25
0	2556	933.117303028167	24
0	2559	933.97656385073	24
0	2561	934.894303483661	25
0	2563	936.216755371192	26
0	2568	938.299277141497	27
0	2571	940.051317071723	27
0	2576	941.490290102973	28
0	2578	942.984668173221	29
0	2582	944.710015337741	28
0	2585	944.909210763156	28
0	2591	948.440610394033	28
0	2595	949.037854016831	29
0	2603	953.888084464175	28
0	2605	954.398815075278	29
0	2611	956.496399518292	29
0	2613	958.898961067092	30
0	2616	960.117564041229	30
0	2621	960.81283532626	30
0	2623	960.996063021048	31
0	2632	962.711027265432	29
0	2637	966.045184166273	30
0	2640	967.440333834614	30
0	2646	970.167170013014	27
0	2648	971.78122752178	28
0	2651	972.415437591297	28
0	2654	973.914449932209	28
0	2661	978.090496676889	27
0	2663	979.158219457578	28
0	2690	988.776258980206	21
0	2699	994.366370056156	19
0	2703	994.633207568758	20
0	2709	996.602482655066	21
0	2711	999.205224683329	22
0	2717	1003.339216067837	22
0	2725	1004.401429097771	23
0	2727	1004.498612858614	24
0	2729	1004.946883500249	25
0	2742	1009.928822649634	21
0	2746	1011.563144985284	20
0	2749	1012.66201839955	20
0	2751	1012.898569445312	21
0	2762	1015.380652852794	21
0	2771	1019.028044387203	21
0	2774	1021.02107999021	22
0	2778	1021.695403641901	23
0	2782	1022.904939345199	24
0	2784	1022.968967397387	25
0	2789	1025.340830029465	25
0	2793	1027.615982272306	24
0	2815	1035.114743275041	23
0	2820	1035.600033327504	23
0	2828	1040.28061487159	22
0	2830	1041.817789446738	23
0	2833	1044.344456844248	23
0	2845	1046.287747282647	23
0	2847	1046.316446640104	24
0	2852	1046.741288260463	25
0	2857	1049.409070955447	26
0	2859	1049.598151116738	27
0	2861	1049.601697186559	28
0	2863	1050.81005193815	29
0	2870	1056.225297939424	28
0	2872	1056.759298932796	29
0	2874	1057.533111065785	30
0	2881	1057.959035316465	31
0	2887	1058.73929100443	32
0	2889	1060.58460806549	33
0	2891	1060.710685221278	34
0	2895	1061.410205718314	35
0	2900	1064.029353297477	36
0	2902	1064.197606558926	37
0	2908	1067.155131739143	38
0	2917	1070.007419093771	38
0	2920	1070.110779467759	38
0	2923	1070.466307094375	38
0	2925	1071.932518509418	39
0	2927	1072.803532037981	40
0	2929	1073.094894405046	41
0	2931	1073.476686341107	42
0	2935	1074.458861179638	43
0	2942	1076.150562447949	43
0	2945	1076.716024717363	43
0	2947	1076.745997652461	44
0	2953	1078.170781021513	44
0	2958	1079.419824973404	44
0	2970	1081.969468598779	44
0	2972	1082.576601369154	45
0	2974	1082.945371091316	46
0	2981	1084.828640992574	43
0	2983	1084.865704274511	44
0	2990	1090.26376383343	40
0	2992	1090.411534949388	41
0	2997	1091.779358195213	42
0	2999	1092.559406979188	43
0	3009	1096.34541808059	43
0	3035	1105.238775737249	40
0	3042	1106.857055730219	39
0	3044	1107.28967073588	40
0	3046	1107.571115015603	41
0	3053	1110.160729580712	40
0	3055	1110.876673433993	41
0	3057	1110.932615018376	42
0	3065	1112.278945970275	43
0	3067	1113.42434873112	44
0	3071	1114.631229157633	45
0	3077	1117.147528125452	46
0	3084	1118.307382785172	47
0	3087	1118.884523779851	48
0	3089	1119.440067963759	49
0	3099	1123.871534866943	48
0	3103	1124.918868781805	49
0	3116	1128.110018565679	50
0	3119	1128.298566982086	51
0	3122	1129.55420470958	52
0	3139	1134.807968401594	50
0	3141	1136.05509062521	51
0	3143	1138.316828029276	52
0	3145	1141.446898243528	53
0	3149	1142.195335020836	52
0	3154	1143.751155136433	50
0	3159	1145.138206761447	51
0	3166	1148.045683822432	50
0	3168	1148.754705182761	51
0	3179	1154.703789417498	52
0	3181	1154.721286468563	53
0	3194	1160.868612445402	49
0	3202	1167.18359245658	47
0	3204	1167.293086566158	48
0	3206	1167.821376616257	49
0	3211	1169.084984354068	50
0	3215	1169.479193266156	49
0	3218	1170.265885151556	49
0	3221	1172.169812368063	49
0	3223	1172.265206743512	50
0	3225	1173.463703765696	51
0	3237	1178.014286265616	48
0	3239	1178.186682102666	49
0	3242	1178.459107997661	49
0	3254	1182.375500048268	49
0	3265	1185.955672325797	50
0	3270	1188.763826269965	48
0	3273	1189.784578672383	48
0	3276	1190.71054946519	48
0	3279	1191.133835799143	48
0	3281	1192.500246185419	49
0	3286	1194.189417341738	50
0	3288	1194.459300095586	51
0	3297	1196.415882316543	51
0	3301	1196.846804597619	50
0	3303	1197.410956662767	51
0	3305	1197.458628172161	52
0	3308	1198.079767665533	52
0	3311	1199.635131634869	52
0	3345	1216.978680941289	42
0	3354	1220.92727623899	39
0	3359	1222.658448829858	39
0	3364	1223.685008882511	40
0	3366	1224.217408242998	41
0	3368	1224.289231739374	42
0	3371	1224.957383195167	43
0	3373	1225.781143706805	44
0	3376	1227.15895859401	44
0	3383	1227.767174722357	43
0	3385	1229.017677568352	44
0	3393	1230.449709410681	44
0	3399	1231.612063494315	45
0	3402	1232.602043704721	45
0	3404	1232.962374188462	46
0	3406	1233.579066377224	47
0	3421	1242.537637325398	41
0	3423	1245.275451639579	42
0	3429	1248.541518411117	42
0	3441	1254.096105104827	42
0	3443	1254.690665324073	43
0	3456	1259.116501591258	44
0	3458	1259.182001034331	45
0	3462	1259.977595229666	46
0	3470	1262.682285911288	46
0	3472	1262.821076703952	47
0	3475	1263.67272733104	47
0	3477	1264.061636133884	48
0	3484	1265.374075105161	49
0	3500	1272.220317561027	46
0	3511	1274.453311164385	47
0	3516	1275.742195681167	45
0	3521	1280.18335664558	45
0	3529	1288.919095357719	44
0	3532	1289.599368215978	44
0	3537	1290.374725627402	45
0	3540	1292.35359272496	45
0	3550	1294.243018150607	46
0	3554	1295.881396894497	46
0	3560	1298.511395063118	43
0	3570	1301.357324039744	44
0	3574	1302.771557864847	44
0	3587	1311.390626491413	42
0	3612	1319.385320708131	39
0	3638	1330.759650759322	34
0	3642	1331.327997575525	33
0	3659	1336.666274491125	31
0	3664	1337.990995009438	32
0	3669	1338.732672273665	32
0	3675	1341.106926697878	33
0	3677	1342.52883783273	34
0	3683	1343.486445460177	35
0	3685	1343.962548921111	36
0	3689	1345.72108347244	37
0	3694	1346.582843095304	38
0	3696	1346.762623961783	39
0	3698	1346.859183306298	40
0	3703	1349.219023810052	40
0	3714	1349.970747521734	41
0	3717	1350.780641060941	42
0	3722	1352.571618492251	43
0	3734	1357.207754826057	44
0	3738	1358.194085608263	45
0	3740	1358.349082322777	46
0	3744	1359.373467896807	45
0	3750	1361.821474262278	45
0	3752	1362.329870663864	46
0	3761	1365.193526895162	46
0	3764	1366.313349027203	46
0	3767	1367.437569003208	46
0	3776	1369.583543742281	45
0	3789	1372.359070718661	42
0	3791	1372.897288698672	43
0	3793	1374.580791411364	44
0	3802	1380.248284076367	41
0	3810	1382.027234829405	39
0	3812	1383.399283573525	40
0	3816	1384.522142385634	39
0	3820	1384.640177700397	40
0	3822	1384.785125947743	41
0	3831	1389.221050508013	39
0	3839	1390.530827123348	37
0	3845	1393.935117354973	37
0	3847	1394.073081738643	38
0	3856	1396.473274051619	38
0	3871	1402.726617683913	38
0	3873	1403.066795051751	39
0	3889	1408.612346326794	37
0	3892	1408.770437178115	38
0	3901	1410.697340495	38
0	3907	1412.910265272949	38
0	3909	1413.034400275085	39
0	3911	1413.538858549778	40
0	3923	1417.233207968948	38
0	3933	1422.563684424688	36
0	3944	1423.777948804527	37
0	3949	1424.880429022231	38
0	3966	1430.589713879398	36
0	3968	1431.873542041661	37
0	3976	1434.778970785734	35
0	3978	1435.167430658059	36
0	3982	1435.909148976694	37
0	3998	1443.635199780654	37
0	4006	1445.226788941181	38
0	4008	1446.446381623254	39
0	4010	1447.066906666788	40
0	4013	1448.949198916386	40
0	4015	1449.653197192746	41
0	4021	1451.550847692929	41
0	4023	1452.775324709872	42
0	4025	1453.072715458358	43
0	4030	1454.908988277087	44
0	4035	1456.372416462917	42
0	4037	1456.704758993017	43
0	4045	1457.46992852792	43
0	4047	1457.685288986905	44
0	4056	1460.129766155285	45
0	4059	1461.662262097858	45
0	4068	1465.163022568599	44
0	4070	1466.060926805794	45
0	4073	1467.359904053895	46
0	4076	1467.824222401834	46
0	4079	1469.62172917856	46
0	4081	1471.008883837401	47
0	4096	1477.132914903746	44
0	4103	1479.568122352548	43
0	4107	1481.214133962972	44
0	4117	1483.473028278185	43
0	4120	1483.838405588638	44
0	4123	1485.781775682987	44
0	4126	1486.95004055052	44
0	4130	1488.616877209094	45
0	4146	1495.345387518056	39
0	4151	1496.87743946233	40
0	4153	1497.562032918476	41
0	4163	1498.559848190912	39
0	4165	1498.571691767294	40
0	4171	1502.741204209408	40
0	4176	1504.936673858794	39
0	4193	1513.974727173173	37
0	4196	1516.191269755969	37
0	4204	1517.748777850309	38
0	4209	1518.823581839327	38
0	4214	1522.041139146379	37
0	4221	1526.194082407268	36
0	4228	1527.387726483649	37
0	4239	1530.34165260273	37
0	4243	1534.126605114854	38
0	4251	1537.872304342226	36
0	4264	1543.166129202133	35
0	4271	1546.665138249717	36
0	4273	1546.7290002711	37
0	4279	1548.899794699877	38
0	4282	1549.358645820212	38
0	4284	1549.524399082639	39
0	4290	1553.44952444932	39
0	4293	1553.735304106028	39
0	4302	1555.785995318572	39
0	4305	1556.48558552625	39
0	4315	1562.26670590463	38
0	4320	1564.94677153356	39
0	4323	1566.162067169817	39
0	4325	1566.661739670729	40
0	4330	1569.174516047854	41
0	4333	1571.201108478052	41
0	4335	1571.833697818723	42
0	4342	1572.472632005537	43
0	4349	1577.153004079913	40
0	4351	1578.250857141576	41
0	4359	1580.117869087513	42
0	4361	1580.16882376881	43
0	4363	1580.48119591178	44
0	4368	1581.534967058993	45
0	4372	1581.690773984612	46
0	4375	1583.416129471933	47
0	4395	1591.891420769105	45
0	4400	1593.104314662184	45
0	4403	1593.230052077406	46
0	4407	1593.551147677215	47
0	4409	1593.557201524467	48
0	4416	1594.278189349987	48
0	4418	1596.094691444327	49
0	4420	1596.13493979809	50
0	4422	1596.309779506747	51
0	4433	1601.68599362785	49
0	4455	1611.123804841229	48
0	4460	1611.865274882149	49
0	4468	1614.891136954165	50
0	4473	1616.242783954321	51
0	4475	1617.482637297196	52
0	4477	1617.839512590171	53
0	4479	1617.897101468573	54
0	4481	1618.076609019412	55
0	4488	1622.75631086657	54
0	4490	1624.126221416875	55
0	4497	1625.862359883341	56
0	4503	1628.432433818264	57
0	4510	1632.010828227227	56
0	4520	1635.984875846585	55
0	4524	1637.185018564916	54
0	4526	1638.129981656261	55
0	4532	1641.347126508727	54
0	4538	1642.995474605518	55
0	4540	1643.078076161837	56
0	4548	1650.803918891369	53
0	4550	1651.111299302489	54
0	4553	1653.00148691861	55
0	4558	1656.595049743933	56
0	4560	1657.503799118967	57
0	4563	1657.792618105923	57
0	4569	1660.953341377588	57
0	4572	1662.336539089676	57
0	4580	1664.201687904047	58
0	4596	1669.23704711854	54
0	4598	1669.508602909915	55
0	4611	1671.996792337596	54
0	4627	1678.087198282933	52
0	4640	1681.883118652723	49
0	4650	1684.766712759682	50
0	4652	1684.805881746938	51
0	4655	1685.777431445544	52
0	4658	1686.793814346496	52
0	4663	1691.957481636028	50
0	4673	1695.847489868835	48
0	4686	1699.351764303312	48
0	4697	1705.342629976741	48
0	4706	1706.007126184954	49
0	4710	1706.171273606933	50
0	4715	1707.348702412455	51
0	4723	1708.07741261479	52
0	4727	1710.291244689858	52
0	4736	1712.71526059144	52
0	4742	1716.6803245369	49
0	4750	1717.825704461474	47
0	4752	1718.354940634656	48
0	4755	1719.188809963634	48
0	4759	1720.841736089274	49
0	4766	1725.262231309555	49
0	4771	1726.763084228204	50
0	4774	1729.03077530645	50
0	4777	1731.06381344469	50
0	4784	1732.541735087949	51
0	4789	1733.667024467534	52
0	4798	1735.172400484474	53
0	4802	1736.510577154225	54
0	4808	1738.548249988965	54
0	4823	1745.762149770738	52
0	4825	1746.203197403126	53
0	4835	1749.170343943016	52
0	4837	1749.444487715507	53
0	4839	1750.381783580256	54
0	4841	1751.924661459578	55
0	4852	1754.796125027712	55
0	4855	1755.184208683128	56
0	4859	1756.221627801992	57
0	4867	1759.884924096398	56
0	4873	1762.248900340877	56
0	4876	1763.481752414326	56
0	4878	1763.973330834413	57
0	4881	1765.178323448976	57
0	4886	1766.98656559524	57
0	4889	1767.101814340202	58
0	4892	1767.515661601198	58
0	4894	1768.403554541905	59
0	4896	1769.906743021139	60
0	4898	1769.934752458736	61
0	4906	1772.951357928799	62
0	4909	1773.93855763305	62
0	4914	1774.5531863283	63
0	4916	1774.809434188036	64
0	4926	1779.173422722375	63
0	4934	1783.361274901366	64
0	4945	1789.057523289506	59
0	4947	1792.083018199558	60
0	4957	1794.623834860178	61
0	4959	1795.174669248466	62
0	4968	1797.106985218456	63
0	4970	1797.125400175512	64
0	4972	1797.411234673432	65
0	4974	1797.70775406013	66
0	4978	1798.420471513809	67
0	4985	1801.894525094195	67
0	4991	1804.816353904339	67
0	4993	1805.882671952167	68
0	4997	1806.864680930819	69
0	5001	1809.540001722159	69
0	5004	1811.871349492602	69
0	5010	1818.579401100611	69
0	5015	1821.065941545803	70
0	5020	1822.04778318106	71
0	5024	1823.623180076845	70
0	5028	1824.865297439155	71
0	5032	1827.031273761948	71
0	5038	1828.229588288753	72
0	5046	1832.487423313315	72
0	5052	1834.695356434505	72
0	5061	1841.211779534374	66
0	5086	1852.457281417527	65
0	5088	1852.502306093705	66
0	5092	1853.730790284758	65
0	5115	1865.647691880046	60
0	5117	1865.70127917527	61
0	5122	1866.572179399205	61
0	5135	1870.14797456903	60
0	5137	1870.441135211219	61
0	5139	1871.071336932098	62
0	5151	1875.517437429193	57
0	5155	1877.300353492584	56
0	5159	1877.911025785447	55
0	5166	1880.554504787199	56
0	5171	1881.060490030504	57
0	5176	1881.674281437563	58
0	5186	1887.018811468719	55
0	5191	1888.245680444525	55
0	5197	1890.821211240492	56
0	5201	1892.291248623015	57
0	5204	1892.5595212833	58
0	5209	1895.678383090229	59
0	5212	1897.050558855044	59
0	5215	1898.248688436321	59
0	5221	1899.073796038299	59
0	5223	1900.344282105975	60
0	5236	1907.482291138716	59
0	5238	1907.579434884865	60
0	5240	1908.595484118515	61
0	5245	1909.473499110083	62
0	5248	1911.780337367204	62
0	5257	1914.426524773839	62
0	5260	1914.818668211205	63
0	5264	1915.871879770264	64
0	5270	1918.962844961489	64
0	5272	1919.245052859598	65
0	5281	1922.909374855527	64
0	5283	1923.715237231112	65
0	5287	1927.417114763392	65
0	5290	1930.04460301476	65
0	5292	1930.828287648359	66
0	5302	1934.249733217266	62
0	5306	1938.412246073145	61
0	5310	1939.222137760912	60
0	5317	1942.083619759369	61
0	5325	1943.933611481211	60
0	5330	1945.606462845261	61
0	5340	1949.875373911543	60
0	5342	1950.00342305527	61
0	5344	1950.875756406235	62
0	5347	1951.376502693606	62
0	5357	1953.669287777242	63
0	5365	1956.55197232403	62
0	5368	1957.010984658355	62
0	5374	1958.769154520294	62
0	5384	1962.982138834668	58
0	5388	1963.679995411128	59
0	5391	1965.461519911698	60
0	5398	1973.193127338009	59
0	5415	1979.171492988789	56
0	5421	1980.604195507863	57
0	5423	1980.977983310623	58
0	5425	1981.293731945204	59
0	5431	1985.263953729432	59
0	5438	1987.69685970516	58
0	5451	1991.925380770541	57
0	5453	1992.055910884874	58
0	5457	1993.002160624305	59
0	5462	1993.515654812585	60
0	5464	1994.043468238702	61
0	5468	1994.605055811746	62
0	5476	1999.799083653479	62
0	5478	1999.911748366198	63
1	0	0	0
1	2	1.102638438232	0
1	3	1.255729051954	0
1	5	1.592589650384	0
1	11	3.153238875254	1
1	15	3.966293391396	2
1	17	6.299357748572	3
1	24	9.230990737445	3
1	38	13.672884409986	3
1	39	14.170005327997	3
1	41	14.522434192288	3
1	42	15.324241431517	3
1	44	15.339807473983	3
1	46	16.4959796328	4
1	47	16.784115875154	4
1	48	17.26910723879	3
1	49	17.695723064453	2
1	51	17.782477354147	2
1	52	18.258886723532	2
1	56	19.561040381237	2
1	59	20.291861606467	3
1	64	22.412542802166	4
1	65	23.589518503414	4
1	66	24.543148121842	3
1	70	25.040706898048	3
1	72	25.27437200067	4
1	74	27.403297280285	4
1	75	28.100799362667	3
1	76	28.233095548035	2
1	84	30.849666585008	2
1	85	31.097061468773	2
1	87	31.158074136105	2
1	89	33.405726718582	3
1	90	34.26826714591	3
1	91	35.152063680547	2
1	92	35.807870799302	1
1	94	37.551490554075	1
1	95	37.614073016615	1
1	103	39.836518796797	1
1	105	40.65848477568	2
1	107	41.715486508923	3
1	109	41.858642359581	4
1	111	42.108385719753	5
1	113	42.856084142038	6
1	115	42.972420084013	7
1	120	44.869947865821	8
1	122	44.875843738895	9
1	123	45.04373733425	9
1	124	46.416126689563	8
1	129	46.998716523406	8
1	130	47.861044016289	8
1	132	48.381831291766	8
1	137	53.025720313351	9
1	139	53.054661787076	10
1	141	53.250071927821	11
1	142	53.806038725542	11
1	144	55.379266150914	11
1	145	55.928226078825	11
1	146	56.466443556449	10
1	147	56.9920757742	9
1	151	57.541507604213	8
1	155	59.386488049025	7
1	163	60.545179911771	7
1	165	61.658818413421	8
1	167	62.060851558048	9
1	168	62.090640335225	9
1	172	62.949130661576	8
1	173	63.777210295059	7
1	174	63.799680467752	6
1	175	64.096762781367	5
1	177	64.317165754625	5
1	179	64.417730047872	6
1	181	64.817793743577	7
1	183	65.400489090156	8
1	184	65.783994918031	8
1	186	66.914555261926	8
1	190	67.091704547371	8
1	192	67.318020370314	8
1	194	67.593616807359	9
1	196	68.757234883041	10
1	198	69.336375989516	11
1	199	69.590860929945	11
1	200	69.852013364445	10
1	201	70.234335795512	9
1	202	71.894764988105	8
1	204	72.018230535602	8
1	208	72.316507644403	9
1	211	73.006182471801	10
1	213	73.33668415134	11
1	215	74.003013208065	12
1	217	74.057259523821	13
1	219	74.335500193898	14
1	223	77.529891960416	14
1	224	77.940903211972	13
1	225	78.508707922557	12
1	226	80.06340682429	11
1	227	80.068209719869	10
1	232	83.419309552724	10
1	233	84.40959612256	10
1	235	85.494580868252	10
1	237	86.774713904377	11
1	239	86.886917189602	12
1	240	87.373080449059	12
1	244	89.268495441221	11
1	245	89.293243600493	10
1	246	89.921482368597	9
1	247	90.329842177638	8
1	249	90.556543790723	8
1	251	91.217843087169	9
1	255	92.499803529353	9
1	256	92.813411685559	8
1	257	93.837338084171	7
1	258	95.627515129713	6
1	259	96.374408736973	5
1	264	99.22110378529	5
1	265	99.799174652326	5
1	267	100.062496380428	5
1	268	100.627906932406	5
1	273	101.70866636509	5
1	277	102.196835425688	6
1	279	102.553945497306	7
1	282	102.828309841355	8
1	283	103.613517120107	8
1	285	103.647151160699	8
1	286	103.855846874404	8
1	291	104.720209992149	8
1	293	104.977653964428	9
1	297	106.265086820548	9
1	299	106.846649589602	9
1	301	106.884981130726	10
1	308	108.200861280518	11
1	313	109.326845071343	11
1	314	110.327978667304	10
1	315	110.508594466729	9
1	316	110.525801118448	8
1	322	110.837249637386	8
1	324	110.848543643111	9
1	331	113.867104798471	10
1	333	115.162102336198	11
1	340	120.802448389383	11
1	342	120.926970536672	11
1	344	121.124772988031	12
1	348	122.138217864364	12
1	350	123.577633956751	12
1	351	124.375605185997	12
1	353	124.862233551968	12
1	357	127.579105933129	12
1	359	129.681025020934	12
1	360	129.956850236675	12
1	361	130.393515540238	11
1	362	130.635460696887	10
1	364	130.685277239537	10
1	366	132.13229858381	11
1	372	132.76875464338	12
1	391	139.364922934522	13
1	393	141.720172938189	14
1	395	142.228458585743	15
1	396	142.543529724644	15
1	397	143.279079954141	14
1	399	144.210218213318	14
1	400	145.655018012602	14
1	404	147.093440367503	13
1	405	147.816445131383	12
1	410	148.183333877231	12
1	411	148.650397680157	12
1	412	148.807372483827	11
1	417	149.739638582905	11
1	422	152.896089648019	12
1	423	154.475868436333	12
1	424	154.920176207165	11
1	425	155.339818319298	10
1	426	155.839559916428	9
1	427	157.113533169728	8
1	429	158.064775353029	8
1	431	158.616121649184	9
1	432	158.887627515826	9
1	437	159.288788164399	9
1	439	159.291433673135	10
1	440	159.611877961727	10
1	446	160.99471924246	10
1	448	161.231724250502	11
1	450	161.301268050911	12
1	468	166.900384632002	12
1	469	167.422701548002	11
1	471	167.886913365182	11
1	472	168.969715104227	11
1	479	169.602439673352	11
1	481	171.422566608513	12
1	483	172.194318816629	12
1	484	172.489814696958	11
1	486	172.504305829544	11
1	488	173.004402695912	12
1	489	173.887519744105	12
1	500	178.221614205633	12
1	501	178.554442635032	12
1	503	178.565179647204	12
1	504	179.606574461883	12
1	508	180.738553412754	12
1	511	181.735794060326	13
1	512	181.84112026157	13
1	513	181.944048881224	12
1	514	182.543484173832	11
1	515	182.73906495457	10
1	516	183.035360289058	9
1	517	183.487745306893	8
1	518	184.118205101152	7
1	519	184.327277027288	6
1	521	185.503203378667	6
1	523	185.621879926695	7
1	525	185.981530931946	8
1	526	187.439463859313	8
1	532	188.640759998566	8
1	539	190.057455278511	9
1	540	190.416546588436	9
1	545	193.707185915879	9
1	546	194.775755299131	9
1	550	195.843577381376	8
1	551	195.946834392768	7
1	553	197.045688904754	7
1	554	197.606583449908	7
1	559	199.603547340052	7
1	561	199.816178404073	8
1	565	201.08519196055	8
1	567	202.222022352101	8
1	572	203.95601710669	9
1	574	204.275783171671	10
1	576	204.470610390602	11
1	577	204.938241870673	11
1	579	205.006583635645	11
1	583	205.412657787903	12
1	586	206.124224720064	13
1	587	206.957299832453	13
1	594	211.443742883257	12
1	595	212.348246098325	11
1	605	215.413576822386	11
1	607	215.586303912929	11
1	608	216.001748067046	10
1	613	217.490886425034	10
1	615	217.950786347313	11
1	616	218.086326662423	11
1	617	218.957760054067	10
1	619	219.648653819998	10
1	621	220.564076611652	11
1	623	221.035007424316	12
1	624	221.385666285729	12
1	626	221.413002287971	12
1	627	221.686872015833	12
1	632	222.419791164556	12
1	634	222.919906184765	13
1	635	223.432942500392	13
1	637	224.060120037733	13
1	638	224.465737243329	13
1	642	226.085437600929	12
1	644	226.444159360914	12
1	645	226.921146697217	12
1	650	227.373346553516	12
1	654	228.196035972009	13
1	662	230.965215624719	14
1	673	234.508590261384	15
1	676	236.166722952536	16
1	680	237.342023880843	16
1	687	240.505228354606	15
1	688	241.895661643841	14
1	689	242.246596504751	13
1	690	242.524795128732	12
1	694	242.907211680261	12
1	700	243.162738413611	13
1	704	244.735055369415	13
1	708	245.502970423549	13
1	710	245.534745285344	14
1	712	245.78439523138	14
1	713	246.40662510339	13
1	714	247.064433428024	12
1	715	248.938840498525	11
1	717	249.295826225527	11
1	718	249.671279233484	11
1	719	249.983494489593	10
1	723	251.391180243508	10
1	725	252.16055022463	10
1	729	253.937860513034	9
1	730	254.874369992136	8
1	732	255.350574826548	8
1	737	256.156016324646	9
1	738	257.521282696364	9
1	739	257.604522135089	8
1	740	257.864677822558	7
1	744	259.561766434803	7
1	749	260.706445868558	8
1	751	260.728032785186	9
1	757	262.277804061632	10
1	758	263.004224287783	10
1	760	266.106314614527	10
1	761	266.632249164517	10
1	771	271.041530486138	9
1	772	272.194093767274	8
1	773	272.451705939609	7
1	775	273.091755302747	7
1	779	274.351674373237	8
1	782	274.527110870843	9
1	787	275.966021466498	10
1	789	276.283482022428	11
1	796	280.717217820031	11
1	798	281.026806660738	11
1	800	281.112511763187	12
1	801	281.899189678385	12
1	802	282.424701386243	11
1	804	283.916749823352	11
1	812	284.84695154104	12
1	813	284.85128017455	12
1	818	287.762976638237	12
1	819	287.992824722591	12
1	820	288.036543116945	11
1	825	288.496900334826	11
1	826	289.363599771303	11
1	834	290.603657131757	11
1	836	290.847355594297	12
1	837	290.893527288205	12
1	845	291.745795174939	12
1	852	293.31890569501	13
1	854	294.441630672973	13
1	855	295.809712910145	12
1	865	298.755126658183	11
1	869	301.149312521905	10
1	870	301.733869261539	9
1	872	301.843919522942	9
1	874	303.006520364779	10
1	875	303.259885845433	10
1	876	303.317038210818	9
1	878	303.780779583469	9
1	882	308.461925620822	9
1	884	309.327360345275	9
1	888	310.376755034469	10
1	893	313.000493912734	10
1	897	313.694945446984	10
1	899	314.035511148456	10
1	904	314.798025492919	10
1	906	315.120862829042	11
1	910	317.757113661718	11
1	911	317.926444990454	10
1	913	320.615520813056	10
1	914	320.699656663348	10
1	915	321.413485976857	9
1	922	323.654070427824	9
1	925	323.912792215123	10
1	926	324.366902265097	10
1	927	324.622582640406	9
1	928	324.917289309399	8
1	930	325.436335139449	8
1	931	325.584283201365	8
1	933	326.25260984983	8
1	934	326.603160419122	8
1	936	329.104386416407	8
1	937	329.428962108676	8
1	939	329.921395244703	8
1	941	330.405925095768	9
1	942	331.295063841217	9
1	943	331.921920748315	8
1	944	332.782312772779	7
1	945	333.625815826254	6
1	946	334.723627278762	5
1	948	334.777321815279	5
1	952	334.843467402419	6
1	963	337.595493053489	6
1	967	340.212867352156	6
1	972	341.812940114935	6
1	973	342.175820677713	5
1	975	342.705650052172	5
1	976	345.43708782918	5
1	977	345.581083171414	4
1	985	347.65949988711	4
1	987	348.45068010922	5
1	991	349.231658526119	6
1	993	349.684960025711	6
1	994	349.720205704286	5
1	999	350.466380218315	5
1	1000	350.880897916955	5
1	1007	351.883145215237	4
1	1008	352.052118394801	3
1	1012	353.959623392321	2
1	1013	354.496218529829	1
1	1015	355.814015625623	1
1	1019	358.370739746497	1
1	1020	359.25186043959	0
1	1022	363.102723547071	0
1	1023	363.916290646264	0
1	1025	364.230893526277	0
1	1027	364.887534101702	1
1	1029	366.254151972399	2
1	1031	366.847112134622	3
1	1038	368.703255697429	4
1	1046	370.160539791275	5
1	1055	373.087233714407	6
1	1060	373.724572477594	7
1	1061	373.744791839168	7
1	1063	373.972308874552	7
1	1073	380.336451335017	7
1	1081	381.822817908542	7
1	1083	381.886436342794	8
1	1085	382.561514525579	9
1	1087	382.801884657175	10
1	1094	385.117310856854	11
1	1096	385.573176437159	11
1	1097	385.770412141834	10
1	1099	385.78868433204	10
1	1101	385.878674181759	11
1	1102	386.477774990022	11
1	1106	390.58860502595	10
1	1110	390.737692773832	10
1	1113	390.867869411263	11
1	1115	390.958258282882	12
1	1116	391.025320901987	12
1	1118	391.095174403367	12
1	1119	391.261865348842	12
1	1121	391.281250163252	12
1	1123	391.496582293228	13
1	1125	392.420786380815	14
1	1130	393.02029457232	15
1	1134	394.178815121921	15
1	1135	394.811258708749	14
1	1137	395.8964686336	14
1	1139	396.164699676283	15
1	1143	399.903438610128	15
1	1144	399.919627665294	14
1	1146	400.313038716906	14
1	1148	400.359749621459	15
1	1149	400.619952575513	15
1	1154	402.61240746016	15
1	1158	403.34771551804	16
1	1165	405.262650631933	17
1	1168	405.848599973367	18
1	1170	406.045965778538	19
1	1173	407.553321203749	20
1	1175	407.858036888082	21
1	1180	409.192957745985	22
1	1181	409.750752756763	22
1	1182	410.406990800102	21
1	1183	411.001431598529	20
1	1187	415.659661041767	20
1	1189	416.301570133453	20
1	1190	416.784817377372	19
1	1192	417.402425783704	19
1	1194	417.585791657156	20
1	1195	417.988099556754	20
1	1197	419.232671248483	20
1	1199	419.403384220938	21
1	1201	420.797253484131	22
1	1202	420.876206865273	22
1	1204	421.157661022148	22
1	1205	423.17335288944	22
1	1207	424.324911727586	22
1	1211	427.549378296861	22
1	1215	427.830094327849	22
1	1218	429.138244493888	23
1	1219	429.14036768701	23
1	1220	430.252771823585	22
1	1225	430.903007328616	22
1	1226	431.669952873515	22
1	1230	432.483756137998	22
1	1232	432.725671586923	23
1	1235	433.295394818058	24
1	1237	435.111470808869	25
1	1239	436.6170870198	26
1	1241	437.124869087381	27
1	1246	438.754397260444	28
1	1248	438.95633684558	29
1	1250	440.130947526096	30
1	1255	440.667611948751	31
1	1257	440.918028642234	32
1	1259	441.095466862916	33
1	1264	441.711043885887	34
1	1269	444.90757770546	35
1	1273	446.329402939864	35
1	1275	446.869358636962	35
1	1277	447.264289684914	36
1	1281	448.268173647093	36
1	1282	448.861052293256	35
1	1283	448.883950374049	34
1	1285	449.162628863583	34
1	1287	450.99166257266	35
1	1292	453.373000179339	36
1	1296	456.933343429716	36
1	1301	457.752154301272	36
1	1302	458.587634897851	36
1	1304	460.247256383397	36
1	1305	460.319432975203	36
1	1307	460.800952822432	36
1	1308	461.016154086445	36
1	1310	461.824624073355	36
1	1311	462.035020354923	36
1	1313	462.27336583764	36
1	1314	462.454634387718	36
1	1316	462.519375442876	36
1	1317	463.832671767362	36
1	1321	465.134807730784	35
1	1322	466.122512202675	34
1	1324	466.286447049747	34
1	1328	467.171384201408	34
1	1333	467.563939858146	34
1	1334	469.470740149732	34
1	1336	469.594055285494	34
1	1337	470.304745759124	34
1	1339	471.636894304102	34
1	1340	471.703095933528	34
1	1341	471.822851009785	33
1	1352	474.895695516346	33
1	1359	477.32407741551	33
1	1360	477.484674224094	32
1	1364	478.079611793031	31
1	1369	480.671207962644	31
1	1371	481.026210392879	32
1	1373	481.33549215858	33
1	1374	481.95990398949	33
1	1376	482.605161444718	33
1	1377	482.816628718855	33
1	1378	482.92825873067	32
1	1382	483.974700256334	31
1	1387	485.592359882032	31
1	1401	487.996575861318	32
1	1404	488.974188622143	33
1	1407	490.772822962574	34
1	1409	491.737163386935	34
1	1413	492.113605515126	34
1	1415	494.49808087571	34
1	1417	495.037774462341	34
1	1418	495.22959544624	34
1	1422	496.941487095147	34
1	1425	498.094873403285	35
1	1426	498.482083818448	35
1	1428	498.566607891702	35
1	1429	498.970381607754	35
1	1430	500.922335122546	34
1	1432	501.867158747105	34
1	1434	501.946298388375	35
1	1435	502.576707663811	35
1	1439	503.78995239296	34
1	1441	504.089033647014	34
1	1442	504.197178179073	34
1	1443	504.303295557372	33
1	1444	504.416707726377	32
1	1452	506.812368190632	32
1	1454	507.080168938218	33
1	1456	507.089244628396	34
1	1457	507.909309552614	34
1	1458	508.463965344819	33
1	1459	508.956357321552	32
1	1463	511.15008553336	31
1	1469	512.806793216767	31
1	1472	513.426400218567	32
1	1474	514.446684567832	32
1	1476	516.946883598196	32
1	1481	518.128893577601	33
1	1483	518.740387001912	34
1	1484	520.052393499733	34
1	1486	520.269532871001	34
1	1488	520.456805216177	35
1	1489	522.14613492126	35
1	1497	525.055336977411	35
1	1502	525.731227550052	36
1	1504	527.030624515488	37
1	1505	527.088284948733	37
1	1507	527.802438454718	37
1	1508	528.056558573747	37
1	1519	531.940906779064	37
1	1520	534.020120045833	37
1	1525	536.188514209636	37
1	1532	536.508237054719	38
1	1534	537.091941696332	39
1	1536	537.511485517295	40
1	1538	539.030461083466	40
1	1543	540.230091960966	40
1	1545	540.288590148791	41
1	1547	540.475695119638	42
1	1548	541.156529977318	42
1	1550	541.168966491044	42
1	1554	542.565698882309	42
1	1558	544.993463964142	41
1	1565	546.605053053806	40
1	1567	547.29940710013	40
1	1569	547.649298595721	41
1	1570	547.881671055512	41
1	1575	549.875053878253	41
1	1576	550.551585995919	41
1	1578	551.45595343961	41
1	1585	555.127037421872	42
1	1587	555.173327777164	43
1	1595	559.186400118756	44
1	1598	560.065515457627	45
1	1600	560.082719191995	46
1	1601	561.203051584642	46
1	1603	561.217328811022	46
1	1605	561.233875413095	47
1	1610	561.672031830706	48
1	1611	562.608979854579	48
1	1612	563.038987268385	47
1	1613	563.920865840859	46
1	1617	564.282301779151	45
1	1619	564.293296192652	45
1	1620	567.481594621933	45
1	1621	568.266609917149	44
1	1622	570.596680429298	43
1	1627	571.90476865937	43
1	1628	572.214943400829	43
1	1634	573.42035374193	43
1	1636	574.215275040001	44
1	1639	574.646847539734	45
1	1644	575.004432755544	46
1	1649	575.880120704588	46
1	1651	577.075441728586	46
1	1652	578.60984915597	46
1	1654	580.07826901391	46
1	1655	580.118307366954	46
1	1656	580.187973720407	45
1	1658	580.566914013383	45
1	1659	581.464821098427	45
1	1660	582.17753684036	44
1	1671	584.736328979324	44
1	1672	584.968692085178	44
1	1673	585.754428251162	43
1	1677	586.06159814758	42
1	1684	587.112047788815	42
1	1686	589.608587672454	42
1	1690	592.238147621136	41
1	1692	592.314541312246	41
1	1696	594.086217258658	41
1	1697	594.75492533657	40
1	1699	594.904620469619	40
1	1701	595.094613787857	41
1	1702	595.167122281373	41
1	1725	600.894341261252	41
1	1726	601.198058981424	41
1	1727	601.408329983233	40
1	1728	602.268609733815	39
1	1732	604.412585681556	39
1	1734	604.771842136335	40
1	1737	605.680631022691	41
1	1741	606.94868395975	41
1	1743	607.922758962762	41
1	1744	609.137245418572	41
1	1746	609.160878196666	41
1	1747	609.224058079541	41
1	1748	610.921819700189	40
1	1749	611.259388295666	39
1	1759	615.089945028467	38
1	1761	616.14552554459	38
1	1762	616.59294449512	38
1	1766	617.838344609138	38
1	1771	620.025034819327	38
1	1773	621.447353136872	38
1	1774	623.263627992283	38
1	1778	624.16917863977	38
1	1783	625.287325011508	39
1	1785	625.818967109599	40
1	1787	625.913763955061	41
1	1789	626.050494937024	41
1	1790	626.707792988005	40
1	1791	626.728268300472	39
1	1793	628.003487313714	39
1	1794	628.283105461157	39
1	1798	629.854066260248	38
1	1800	630.116896404664	38
1	1802	630.390466837599	39
1	1804	630.399290747445	40
1	1805	630.79680887671	40
1	1806	631.755943913136	39
1	1813	632.486288454915	39
1	1816	637.148289056686	40
1	1817	638.525424620697	40
1	1818	638.526930410522	39
1	1819	638.956650497243	38
1	1820	639.043497836093	37
1	1821	641.288872163894	36
1	1832	643.391648778846	36
1	1833	646.12125279084	36
1	1835	646.57215160908	36
1	1836	647.385456958481	36
1	1841	648.100325174997	36
1	1846	649.153236118922	37
1	1854	650.741375012732	38
1	1864	654.88505284315	38
1	1865	656.03985319658	37
1	1866	656.270368948132	36
1	1867	656.406174592985	35
1	1868	657.428397455018	34
1	1869	658.691535407642	33
1	1870	659.242269018116	32
1	1877	660.123483182207	32
1	1880	662.325781501979	33
1	1882	664.927596179709	34
1	1884	668.360357098866	35
1	1886	669.320460451403	36
1	1891	670.222714641864	37
1	1892	670.949658574312	37
1	1896	672.46560146985	36
1	1901	673.081074165524	36
1	1903	673.276452510269	37
1	1907	674.454656662702	38
1	1909	674.849322428908	38
1	1916	678.375263173121	38
1	1918	680.272549109421	38
1	1919	680.427903530291	37
1	1921	680.505535975659	37
1	1922	680.74141787958	37
1	1924	681.229235167093	37
1	1926	682.405300020312	38
1	1931	685.243943476441	39
1	1932	685.675863794337	39
1	1934	686.10040934437	39
1	1935	686.879384009918	39
1	1937	687.525297418088	39
1	1939	687.699459070444	40
1	1940	687.792995121073	40
1	1942	688.582141006944	40
1	1943	689.644752161662	40
1	1944	692.136302488358	39
1	1945	692.538544610816	38
1	1949	694.955870877974	37
1	1951	695.974350322197	37
1	1956	696.560051743607	38
1	1965	697.991319158915	39
1	1967	698.021896218141	40
1	1977	699.886859903874	41
1	1979	700.180956755508	42
1	1981	700.714525998895	43
1	1985	701.079946271656	44
1	1988	701.249518987646	45
1	1989	701.435544910357	45
1	1990	701.828061449467	44
1	1991	703.437190041234	43
1	1992	704.2102962596	42
1	1998	705.002527937611	42
1	2000	705.150730173327	43
1	2004	705.26286406835	44
1	2007	705.387135190279	45
1	2014	710.643862040149	46
1	2015	710.671178824976	46
1	2017	711.180240624067	46
1	2019	712.484712314768	47
1	2020	713.243719049158	47
1	2021	716.796900829494	46
1	2023	716.872494335932	46
1	2025	718.494506297727	47
1	2026	719.123086056934	47
1	2028	719.407217581816	47
1	2030	720.111588791717	48
1	2031	720.528332260502	48
1	2035	720.885612285543	48
1	2038	721.98394672085	49
1	2039	723.3546097771	49
1	2040	723.757527357247	48
1	2042	723.759305899848	48
1	2043	724.043552057455	48
1	2048	726.216924098305	48
1	2049	726.321428314444	48
1	2051	726.597789338461	48
1	2052	727.574410268819	48
1	2054	728.70618400897	48
1	2055	728.785236101682	48
1	2062	736.628625730677	47
1	2063	737.245901404167	46
1	2064	737.367141694237	45
1	2066	738.12879172927	45
1	2067	738.951573956368	45
1	2069	739.316550227178	45
1	2073	741.05949580786	46
1	2076	741.678588095567	47
1	2080	743.427265005304	47
1	2081	744.165421716559	46
1	2083	744.371975966846	46
1	2084	746.411131617938	46
1	2085	747.282488124987	45
1	2086	747.307055234434	44
1	2088	747.669955737069	44
1	2089	748.023683760526	44
1	2090	750.471581710939	43
1	2094	751.065026796775	43
1	2097	753.108392169467	44
1	2101	755.147609646099	44
1	2102	755.556986784385	43
1	2110	761.063849977538	43
1	2111	761.934037834507	43
1	2116	762.684144786552	43
1	2117	763.87093838722	43
1	2118	765.295643892174	42
1	2120	765.622912834351	42
1	2122	766.633270199497	43
1	2124	768.097379736352	44
1	2126	768.376050790153	45
1	2127	769.049807151172	45
1	2129	769.080845684688	45
1	2130	769.253378841577	45
1	2132	769.832166989797	45
1	2133	770.445428822501	45
1	2134	770.474084045133	44
1	2136	771.113957066378	44
1	2137	771.28044612623	44
1	2138	772.05389677309	43
1	2139	772.695488069046	42
1	2143	772.875154355533	42
1	2147	774.359172301923	43
1	2149	774.470951159919	44
1	2158	778.632201553282	45
1	2160	779.245235240386	45
1	2161	779.754551446967	44
1	2162	779.932845660484	43
1	2167	780.756241458478	43
1	2168	781.09926860226	43
1	2169	781.535270517573	42
1	2170	781.713941641171	41
1	2171	782.186472407458	40
1	2172	782.689457408772	39
1	2177	783.830773532608	39
1	2179	786.05801091374	40
1	2181	786.844009952616	41
1	2183	787.240464024051	42
1	2185	787.615908263834	43
1	2186	788.170670145331	43
1	2187	788.963339430209	42
1	2188	790.356331471614	41
1	2190	791.190096459409	41
1	2194	791.692511116597	42
1	2199	792.468244909568	42
1	2200	792.851980071437	41
1	2201	792.992305713967	40
1	2205	796.270569770874	39
1	2206	797.422608807596	38
1	2208	797.737871957449	38
1	2212	799.506740401722	38
1	2213	799.865604664449	37
1	2214	800.261202776974	36
1	2218	802.257793530502	35
1	2220	803.662736740712	35
1	2221	804.927648117937	35
1	2222	804.947982462492	34
1	2224	805.65752244695	34
1	2225	806.519211189329	34
1	2227	807.566874759689	34
1	2237	809.927147573532	35
1	2240	811.679064169736	36
1	2247	814.341101030273	36
1	2249	814.624779447784	36
1	2251	814.752130489477	37
1	2252	814.815273329566	37
1	2254	814.846658156322	37
1	2258	815.566252500259	37
1	2259	815.623556155253	36
1	2264	817.296585386147	36
1	2271	817.99891391566	36
1	2272	818.024089864305	35
1	2274	820.80789613231	35
1	2276	820.959202362933	36
1	2277	821.481759056058	36
1	2278	822.079434530542	35
1	2280	823.109714221539	35
1	2291	825.760615999262	36
1	2295	829.141171260491	36
1	2299	830.602818389262	36
1	2301	832.084577008892	36
1	2302	832.180136542145	35
1	2306	833.2847500681	34
1	2307	835.067178382353	33
1	2308	835.252268342173	32
1	2315	838.302906788687	31
1	2316	839.183951829862	30
1	2318	839.438997806301	30
1	2334	844.985667790289	30
1	2335	845.677183246817	29
1	2336	845.843178184435	28
1	2337	846.877646070468	27
1	2341	847.494618277464	27
1	2343	848.108789903124	28
1	2345	848.214666124953	29
1	2353	853.261170429716	29
1	2357	855.50815635394	28
1	2358	855.689428043606	27
1	2369	861.092425274914	27
1	2370	862.118995342	27
1	2375	863.459130775558	27
1	2376	863.995841158418	27
1	2384	866.590030790477	27
1	2386	866.798413048004	28
1	2391	867.606653204746	29
1	2392	868.718449329216	29
1	2393	869.893073267021	28
1	2398	871.261961656225	28
1	2408	875.154907215948	28
1	2410	875.949882555494	28
1	2414	877.164310579738	28
1	2415	878.82709956831	27
1	2419	879.038884597869	27
1	2425	880.594902102989	28
1	2426	881.392506473874	28
1	2428	881.412146489455	28
1	2430	884.025214681131	29
1	2432	884.259712891085	30
1	2439	889.743379207167	30
1	2441	889.808742080784	30
1	2442	889.96389714077	30
1	2449	892.526045886654	29
1	2450	893.625617793555	28
1	2451	894.572688612294	27
1	2453	895.069607513696	27
1	2454	895.245089461702	27
1	2458	895.830314888445	27
1	2460	896.242245392178	27
1	2461	896.433956238474	26
1	2465	897.011094043368	26
1	2467	897.661045703613	26
1	2468	897.996795560786	25
1	2470	898.758178426327	25
1	2474	901.059193605075	25
1	2475	901.633750631868	24
1	2479	902.01099274589	24
1	2483	902.588760614213	25
1	2486	904.959992455806	25
1	2487	905.586123088241	24
1	2492	906.815346285869	24
1	2497	910.28835099577	25
1	2498	910.483354776032	25
1	2500	910.603124634896	25
1	2513	911.676242391728	26
1	2515	912.864111586586	26
1	2516	914.211173170134	25
1	2520	915.298805894471	24
1	2522	915.5426638762	24
1	2527	917.660872591987	25
1	2529	917.667082607438	26
1	2534	919.720898445749	27
1	2538	922.492193751972	27
1	2540	923.055284367535	27
1	2541	923.705395694558	27
1	2542	924.508880328976	26
1	2543	926.047598411235	25
1	2545	928.307357315802	25
1	2546	929.688383676449	25
1	2547	930.411639123631	24
1	2549	930.455898670546	24
1	2550	931.279907449648	24
1	2554	932.987151052558	23
1	2556	933.117303028167	23
1	2557	933.778440525203	23
1	2559	933.97656385073	23
1	2561	934.894303483661	24
1	2563	936.216755371192	25
1	2568	938.299277141497	26
1	2569	939.057195307391	26
1	2571	940.051317071723	26
1	2576	941.490290102973	27
1	2578	942.984668173221	28
1	2579	944.240014054846	28
1	2580	944.693534464673	27
1	2582	944.710015337741	27
1	2583	944.815977208548	27
1	2585	944.909210763156	27
1	2586	946.310441466236	27
1	2591	948.440610394033	27
1	2595	949.037854016831	28
1	2597	949.546407579487	28
1	2598	949.603300491572	27
1	2603	953.888084464175	27
1	2605	954.398815075278	28
1	2609	956.312774356322	28
1	2611	956.496399518292	28
1	2613	958.898961067092	29
1	2614	959.632369819002	29
1	2616	960.117564041229	29
1	2617	960.605780404534	29
1	2621	960.81283532626	29
1	2623	960.996063021048	30
1	2625	961.515504251309	30
1	2626	961.564197960423	29
1	2627	961.63322188087	28
1	2632	962.711027265432	28
1	2637	966.045184166273	29
1	2638	966.135209889347	29
1	2640	967.440333834614	29
1	2641	967.555625267597	29
1	2642	969.060359400958	28
1	2643	969.072503019637	27
1	2644	969.3540756387	26
1	2646	970.167170013014	26
1	2648	971.78122752178	27
1	2649	971.888490605356	27
1	2651	972.415437591297	27
1	2652	972.670461690824	27
1	2654	973.914449932209	27
1	2658	976.866084607698	27
1	2659	976.982056370121	26
1	2661	978.090496676889	26
1	2663	979.158219457578	27
1	2664	979.490921845376	27
1	2674	983.693287276829	26
1	2675	985.292748043444	25
1	2676	985.301602192396	24
1	2680	985.896908626529	23
1	2681	986.117750835478	22
1	2682	986.373271800625	21
1	2683	987.560296440697	20
1	2690	988.776258980206	20
1	2695	993.291158782555	20
1	2696	993.582221145029	19
1	2697	994.36590957405	18
1	2699	994.366370056156	18
1	2703	994.633207568758	19
1	2709	996.602482655066	20
1	2711	999.205224683329	21
1	2712	999.617343554349	21
1	2717	1003.339216067837	21
1	2725	1004.401429097771	22
1	2727	1004.498612858614	23
1	2729	1004.946883500249	24
1	2730	1005.509383489685	24
1	2731	1005.972362234292	23
1	2732	1006.419507693578	22
1	2736	1007.411983881583	21
1	2737	1008.664944762263	20
1	2742	1009.928822649634	20
1	2743	1010.4342765259	20
1	2744	1011.195691121978	19
1	2746	1011.563144985284	19
1	2747	1012.285137415007	19
1	2749	1012.66201839955	19
1	2751	1012.898569445312	20
1	2755	1014.329883054594	20
1	2762	1015.380652852794	20
1	2767	1018.326834625233	20
1	2771	1019.028044387203	20
1	2774	1021.02107999021	21
1	2778	1021.695403641901	22
1	2782	1022.904939345199	23
1	2784	1022.968967397387	24
1	2787	1025.083912767775	24
1	2789	1025.340830029465	24
1	2790	1026.318897925331	24
1	2791	1027.26445727345	23
1	2793	1027.615982272306	23
1	2803	1031.506271106475	23
1	2807	1033.689663907247	22
1	2815	1035.114743275041	22
1	2816	1035.263640344945	22
1	2820	1035.600033327504	22
1	2822	1036.516992925884	22
1	2826	1040.195102319108	21
1	2828	1040.28061487159	21
1	2830	1041.817789446738	22
1	2831	1044.070649517952	22
1	2833	1044.344456844248	22
1	2834	1044.403440322174	22
1	2845	1046.287747282647	22
1	2847	1046.316446640104	23
1	2852	1046.741288260463	24
1	2857	1049.409070955447	25
1	2859	1049.598151116738	26
1	2861	1049.601697186559	27
1	2863	1050.81005193815	28
1	2864	1053.976681796158	28
1	2865	1054.673248762882	27
1	2870	1056.225297939424	27
1	2872	1056.759298932796	28
1	2874	1057.533111065785	29
1	2881	1057.959035316465	30
1	2887	1058.73929100443	31
1	2889	1060.58460806549	32
1	2891	1060.710685221278	33
1	2895	1061.410205718314	34
1	2900	1064.029353297477	35
1	2902	1064.197606558926	36
1	2908	1067.155131739143	37
1	2912	1068.229066719048	37
1	2917	1070.007419093771	37
1	2918	1070.080991589393	37
1	2920	1070.110779467759	37
1	2921	1070.179729787845	37
1	2923	1070.466307094375	37
1	2925	1071.932518509418	38
1	2927	1072.803532037981	39
1	2929	1073.094894405046	40
1	2931	1073.476686341107	41
1	2935	1074.458861179638	42
1	2937	1074.80875562354	42
1	2942	1076.150562447949	42
1	2943	1076.334663074216	42
1	2945	1076.716024717363	42
1	2947	1076.745997652461	43
1	2948	1076.845152557291	43
1	2953	1078.170781021513	43
1	2954	1078.42256371251	43
1	2958	1079.419824973404	43
1	2960	1080.00236901509	43
1	2970	1081.969468598779	43
1	2972	1082.576601369154	44
1	2974	1082.945371091316	45
1	2976	1083.052481812031	45
1	2977	1083.454173123499	44
1	2978	1083.565494005229	43
1	2979	1084.104400175288	42
1	2981	1084.828640992574	42
1	2983	1084.865704274511	43
1	2984	1088.398389081285	43
1	2985	1088.495911492839	42
1	2986	1089.72872496615	41
1	2987	1089.817620447027	40
1	2988	1089.833510846939	39
1	2990	1090.26376383343	39
1	2992	1090.411534949388	40
1	2997	1091.779358195213	41
1	2999	1092.559406979188	42
1	3000	1095.065328340392	42
1	3009	1096.34541808059	42
1	3015	1098.994453582905	42
1	3016	1099.153344016953	41
1	3017	1100.364045394758	40
1	3024	1101.797283125487	39
1	3035	1105.238775737249	39
1	3039	1106.398713808591	39
1	3040	1106.714498546885	38
1	3042	1106.857055730219	38
1	3044	1107.28967073588	39
1	3046	1107.571115015603	40
1	3047	1108.562551322248	40
1	3051	1110.107429011514	39
1	3053	1110.160729580712	39
1	3055	1110.876673433993	40
1	3057	1110.932615018376	41
1	3065	1112.278945970275	42
1	3067	1113.42434873112	43
1	3071	1114.631229157633	44
1	3077	1117.147528125452	45
1	3084	1118.307382785172	46
1	3087	1118.884523779851	47
1	3089	1119.440067963759	48
1	3090	1119.940951974267	48
1	3097	1122.45068197647	47
1	3099	1123.871534866943	47
1	3103	1124.918868781805	48
1	3116	1128.110018565679	49
1	3119	1128.298566982086	50
1	3122	1129.55420470958	51
1	3123	1131.244004458482	51
1	3130	1132.504880637205	50
1	3134	1134.093385593666	49
1	3139	1134.807968401594	49
1	3141	1136.05509062521	50
1	3143	1138.316828029276	51
1	3145	1141.446898243528	52
1	3146	1142.100802475537	52
1	3147	1142.190793486453	51
1	3149	1142.195335020836	51
1	3150	1142.626712047597	51
1	3151	1142.982118797635	50
1	3152	1143.543557855298	49
1	3154	1143.751155136433	49
1	3159	1145.138206761447	50
1	3160	1145.379012764086	50
1	3164	1147.681628480096	49
1	3166	1148.045683822432	49
1	3168	1148.754705182761	50
1	3179	1154.703789417498	51
1	3181	1154.721286468563	52
1	3182	1156.562818303444	52
1	3183	1156.867730919949	51
1	3184	1157.162476889608	50
1	3188	1158.815679389967	49
1	3192	1160.612160673862	48
1	3194	1160.868612445402	48
1	3198	1164.031368073851	48
1	3199	1164.490696157974	47
1	3200	1165.779076533487	46
1	3202	1167.18359245658	46
1	3204	1167.293086566158	47
1	3206	1167.821376616257	48
1	3211	1169.084984354068	49
1	3212	1169.122453833654	49
1	3213	1169.167795338158	48
1	3215	1169.479193266156	48
1	3216	1169.845546463422	48
1	3218	1170.265885151556	48
1	3219	1171.325506476815	48
1	3221	1172.169812368063	48
1	3223	1172.265206743512	49
1	3225	1173.463703765696	50
1	3226	1174.08034153396	50
1	3227	1174.083035822798	49
1	3234	1177.361851063969	48
1	3235	1177.844200911777	47
1	3237	1178.014286265616	47
1	3239	1178.186682102666	48
1	3240	1178.265431761319	48
1	3242	1178.459107997661	48
1	3252	1181.186356881075	48
1	3254	1182.375500048268	48
1	3265	1185.955672325797	49
1	3266	1186.122401285044	49
1	3267	1186.904177343844	48
1	3268	1188.253891031787	47
1	3270	1188.763826269965	47
1	3271	1189.095662506815	47
1	3273	1189.784578672383	47
1	3274	1190.649336810786	47
1	3276	1190.71054946519	47
1	3277	1190.77074751588	47
1	3279	1191.133835799143	47
1	3281	1192.500246185419	48
1	3286	1194.189417341738	49
1	3288	1194.459300095586	50
1	3292	1196.117789403807	50
1	3297	1196.415882316543	50
1	3298	1196.584952972792	50
1	3299	1196.678101215912	49
1	3301	1196.846804597619	49
1	3303	1197.410956662767	50
1	3305	1197.458628172161	51
1	3306	1197.891896609687	51
1	3308	1198.079767665533	51
1	3309	1199.566599086359	51
1	3311	1199.635131634869	51
1	3312	1200.559069880079	51
1	3322	1203.194125083829	50
1	3326	1204.335079797722	49
1	3327	1206.281619659255	48
1	3331	1209.089652438019	47
1	3335	1209.86704187499	46
1	3339	1213.206608747931	45
1	3340	1213.420084660969	44
1	3341	1214.038812173561	43
1	3342	1214.381215184345	42
1	3343	1216.696430281304	41
1	3345	1216.978680941289	41
1	3346	1217.727684049137	41
1	3347	1219.223434108688	40
1	3351	1220.425495908567	39
1	3352	1220.783712289581	38
1	3354	1220.92727623899	38
1	3355	1220.927486777586	38
1	3359	1222.658448829858	38
1	3364	1223.685008882511	39
1	3366	1224.217408242998	40
1	3368	1224.289231739374	41
1	3371	1224.957383195167	42
1	3373	1225.781143706805	43
1	3374	1227.023997849461	43
1	3376	1227.15895859401	43
1	3377	1227.213991611962	43
1	3378	1227.320086303298	42
1	3383	1227.767174722357	42
1	3385	1229.017677568352	43
1	3386	1229.032166394845	43
1	3393	1230.449709410681	43
1	3399	1231.612063494315	44
1	3400	1231.627011587912	44
1	3402	1232.602043704721	44
1	3404	1232.962374188462	45
1	3406	1233.579066377224	46
1	3410	1235.592464717058	46
1	3411	1235.983149357988	45
1	3412	1239.539294628409	44
1	3413	1239.640742064217	43
1	3414	1240.028890649115	42
1	3415	1240.356829353559	41
1	3419	1241.134341525428	40
1	3421	1242.537637325398	40
1	3423	1245.275451639579	41
1	3427	1247.75058221919	41
1	3429	1248.541518411117	41
1	3439	1252.715623834425	41
1	3441	1254.096105104827	41
1	3443	1254.690665324073	42
1	3456	1259.116501591258	43
1	3458	1259.182001034331	44
1	3462	1259.977595229666	45
1	3465	1260.621464866018	45
1	3470	1262.682285911288	45
1	3472	1262.821076703952	46
1	3473	1263.54243366432	46
1	3475	1263.67272733104	46
1	3477	1264.061636133884	47
1	3484	1265.374075105161	48
1	3495	1269.545726340963	48
1	3496	1270.67138635544	47
1	3497	1270.726816033901	46
1	3498	1271.28575308168	45
1	3500	1272.220317561027	45
1	3511	1274.453311164385	46
1	3512	1274.713024199938	46
1	3513	1275.00985245648	45
1	3514	1275.0589245583	44
1	3516	1275.742195681167	44
1	3517	1277.376478728575	44
1	3521	1280.18335664558	44
1	3523	1283.030359125795	44
1	3527	1283.47852820175	43
1	3529	1288.919095357719	43
1	3530	1289.306813563489	43
1	3532	1289.599368215978	43
1	3537	1290.374725627402	44
1	3538	1291.436203560803	44
1	3540	1292.35359272496	44
1	3550	1294.243018150607	45
1	3552	1295.296747378018	45
1	3554	1295.881396894497	45
1	3555	1296.003603796397	45
1	3556	1296.146141309245	44
1	3557	1296.589389327909	43
1	3558	1296.782456535453	42
1	3560	1298.511395063118	42
1	3570	1301.357324039744	43
1	3572	1302.284366092994	43
1	3574	1302.771557864847	43
1	3578	1304.118107524064	43
1	3579	1307.957065738557	42
1	3583	1311.04063787752	41
1	3587	1311.390626491413	41
1	3589	1312.776343336514	41
1	3593	1313.662900554943	40
1	3594	1313.879792935921	39
1	3598	1315.655446835506	38
1	3612	1319.385320708131	38
1	3616	1320.980987825825	38
1	3617	1321.962271395541	37
1	3618	1322.068859697116	36
1	3625	1326.457429495464	35
1	3629	1328.411379566926	34
1	3636	1330.211796109169	33
1	3638	1330.759650759322	33
1	3639	1330.824778108637	33
1	3640	1331.165224807441	32
1	3642	1331.327997575525	32
1	3643	1331.999948852642	32
1	3644	1332.418875580971	31
1	3657	1336.015063450163	30
1	3659	1336.666274491125	30
1	3664	1337.990995009438	31
1	3665	1338.29596279258	31
1	3669	1338.732672273665	31
1	3675	1341.106926697878	32
1	3677	1342.52883783273	33
1	3683	1343.486445460177	34
1	3685	1343.962548921111	35
1	3689	1345.72108347244	36
1	3694	1346.582843095304	37
1	3696	1346.762623961783	38
1	3698	1346.859183306298	39
1	3699	1347.641020595414	39
1	3703	1349.219023810052	39
1	3714	1349.970747521734	40
1	3717	1350.780641060941	41
1	3722	1352.571618492251	42
1	3734	1357.207754826057	43
1	3738	1358.194085608263	44
1	3740	1358.349082322777	45
1	3741	1358.721002241358	45
1	3742	1359.09119185925	44
1	3744	1359.373467896807	44
1	3748	1360.416559655632	44
1	3750	1361.821474262278	44
1	3752	1362.329870663864	45
1	3753	1362.549214057992	45
1	3761	1365.193526895162	45
1	3762	1365.413555064411	45
1	3764	1366.313349027203	45
1	3765	1367.139357627565	45
1	3767	1367.437569003208	45
1	3768	1367.585416750049	45
1	3772	1368.546999883277	44
1	3776	1369.583543742281	44
1	3781	1371.198774504242	44
1	3782	1371.737297483201	43
1	3783	1371.881652024988	42
1	3787	1372.351549959421	41
1	3789	1372.359070718661	41
1	3791	1372.897288698672	42
1	3793	1374.580791411364	43
1	3794	1374.865067914558	43
1	3795	1375.860961944281	42
1	3796	1375.969727130207	41
1	3800	1379.417603583796	40
1	3802	1380.248284076367	40
1	3803	1380.449888696803	40
1	3804	1381.4939344861	39
1	3805	1381.565065420804	38
1	3810	1382.027234829405	38
1	3812	1383.399283573525	39
1	3813	1384.080282890274	39
1	3814	1384.309538140036	38
1	3816	1384.522142385634	38
1	3820	1384.640177700397	39
1	3822	1384.785125947743	40
1	3827	1385.952992340448	40
1	3828	1387.243144265148	39
1	3829	1389.019669148356	38
1	3831	1389.221050508013	38
1	3835	1390.348749586412	38
1	3836	1390.370633871567	37
1	3837	1390.470952121795	36
1	3839	1390.530827123348	36
1	3843	1392.874320232378	36
1	3845	1393.935117354973	36
1	3847	1394.073081738643	37
1	3854	1396.285771381967	37
1	3856	1396.473274051619	37
1	3869	1402.426516422041	37
1	3871	1402.726617683913	37
1	3873	1403.066795051751	38
1	3874	1403.184848677795	38
1	3875	1403.967740925945	37
1	3879	1405.582741303458	36
1	3889	1408.612346326794	36
1	3892	1408.770437178115	37
1	3899	1410.416246483458	37
1	3901	1410.697340495	37
1	3902	1411.258013270376	37
1	3907	1412.910265272949	37
1	3909	1413.034400275085	38
1	3911	1413.538858549778	39
1	3912	1413.693382474051	39
1	3913	1415.561940760124	38
1	3914	1415.823509589261	37
1	3923	1417.233207968948	37
1	3929	1419.454250419941	37
1	3930	1421.071486104581	36
1	3931	1422.108193823832	35
1	3933	1422.563684424688	35
1	3944	1423.777948804527	36
1	3949	1424.880429022231	37
1	3953	1426.523586807886	37
1	3954	1426.680087579028	36
1	3964	1429.325529167571	35
1	3966	1430.589713879398	35
1	3968	1431.873542041661	36
1	3969	1433.013973399069	36
1	3970	1433.14523486038	35
1	3971	1433.604619775364	34
1	3976	1434.778970785734	34
1	3978	1435.167430658059	35
1	3982	1435.909148976694	36
1	3993	1442.332065864279	36
1	3998	1443.635199780654	36
1	4006	1445.226788941181	37
1	4008	1446.446381623254	38
1	4010	1447.066906666788	39
1	4011	1448.322794571171	39
1	4013	1448.949198916386	39
1	4015	1449.653197192746	40
1	4019	1451.144637293887	40
1	4021	1451.550847692929	40
1	4023	1452.775324709872	41
1	4025	1453.072715458358	42
1	4030	1454.908988277087	43
1	4031	1455.075782161187	43
1	4032	1455.322782093983	42
1	4033	1456.262597129903	41
1	4035	1456.372416462917	41
1	4037	1456.704758993017	42
1	4041	1457.153373517128	42
1	4045	1457.46992852792	42
1	4047	1457.685288986905	43
1	4056	1460.129766155285	44
1	4057	1460.706575586265	44
1	4059	1461.662262097858	44
1	4060	1462.601061971991	44
1	4061	1463.205049694202	43
1	4068	1465.163022568599	43
1	4070	1466.060926805794	44
1	4073	1467.359904053895	45
1	4074	1467.368040875449	45
1	4076	1467.824222401834	45
1	4077	1468.587071303983	45
1	4079	1469.62172917856	45
1	4081	1471.008883837401	46
1	4085	1471.8276163501	46
1	4089	1473.545401410952	45
1	4090	1474.452407095707	44
1	4094	1475.2274375214	43
1	4096	1477.132914903746	43
1	4100	1479.128068742423	43
1	4101	1479.368825530249	42
1	4103	1479.568122352548	42
1	4107	1481.214133962972	43
1	4109	1481.968189752222	43
1	4110	1482.006023046161	42
1	4117	1483.473028278185	42
1	4120	1483.838405588638	43
1	4121	1484.854427518877	43
1	4123	1485.781775682987	43
1	4124	1486.758131631597	43
1	4126	1486.95004055052	43
1	4130	1488.616877209094	44
1	4132	1489.198311375651	44
1	4139	1492.246878549061	43
1	4140	1492.497406208594	42
1	4141	1492.864939296857	41
1	4142	1492.996963990348	40
1	4143	1493.094452171037	39
1	4144	1493.73382212946	38
1	4146	1495.345387518056	38
1	4151	1496.87743946233	39
1	4153	1497.562032918476	40
1	4157	1498.034479831438	40
1	4158	1498.199094999261	39
1	4159	1498.330883709584	38
1	4163	1498.559848190912	38
1	4165	1498.571691767294	39
1	4167	1499.366926524158	39
1	4171	1502.741204209408	39
1	4173	1504.023918693373	39
1	4174	1504.398209704188	38
1	4176	1504.936673858794	38
1	4177	1505.635414935948	38
1	4190	1513.747942741624	37
1	4191	1513.753292095063	36
1	4193	1513.974727173173	36
1	4194	1515.645929743915	36
1	4196	1516.191269755969	36
1	4204	1517.748777850309	37
1	4205	1517.791026226608	37
1	4209	1518.823581839327	37
1	4211	1519.012010703821	37
1	4212	1519.386444071233	36
1	4214	1522.041139146379	36
1	4215	1524.445154708597	36
1	4216	1524.719550592507	35
1	4221	1526.194082407268	35
1	4228	1527.387726483649	36
1	4230	1528.473861218037	36
1	4239	1530.34165260273	36
1	4243	1534.126605114854	37
1	4244	1535.54927393933	37
1	4248	1536.907630504381	36
1	4249	1537.830889676787	35
1	4251	1537.872304342226	35
1	4252	1538.178861229896	35
1	4259	1540.971027873666	34
1	4264	1543.166129202133	34
1	4271	1546.665138249717	35
1	4273	1546.7290002711	36
1	4279	1548.899794699877	37
1	4280	1549.097330182721	37
1	4282	1549.358645820212	37
1	4284	1549.524399082639	38
1	4288	1550.508303783073	38
1	4290	1553.44952444932	38
1	4291	1553.682106216233	38
1	4293	1553.735304106028	38
1	4294	1553.769917077161	38
1	4302	1555.785995318572	38
1	4303	1556.300526341111	38
1	4305	1556.48558552625	38
1	4309	1558.82825279284	38
1	4310	1561.906202980547	37
1	4315	1562.26670590463	37
1	4320	1564.94677153356	38
1	4321	1565.229478063493	38
1	4323	1566.162067169817	38
1	4325	1566.661739670729	39
1	4330	1569.174516047854	40
1	4331	1570.020910417794	40
1	4333	1571.201108478052	40
1	4335	1571.833697818723	41
1	4342	1572.472632005537	42
1	4344	1574.071951813691	42
1	4345	1575.67649414003	41
1	4346	1576.20315368851	40
1	4347	1576.948242515373	39
1	4349	1577.153004079913	39
1	4351	1578.250857141576	40
1	4359	1580.117869087513	41
1	4361	1580.16882376881	42
1	4363	1580.48119591178	43
1	4368	1581.534967058993	44
1	4372	1581.690773984612	45
1	4375	1583.416129471933	46
1	4376	1583.517598020864	46
1	4377	1583.806258489252	45
1	4378	1585.171476341678	44
1	4395	1591.891420769105	44
1	4396	1592.561966416345	44
1	4400	1593.104314662184	44
1	4403	1593.230052077406	45
1	4407	1593.551147677215	46
1	4409	1593.557201524467	47
1	4411	1594.072537037217	47
1	4416	1594.278189349987	47
1	4418	1596.094691444327	48
1	4420	1596.13493979809	49
1	4422	1596.309779506747	50
1	4423	1596.604761736851	50
1	4427	1598.349745269937	49
1	4428	1598.401706020226	48
1	4433	1601.68599362785	48
1	4437	1604.568943642787	48
1	4453	1611.09628602796	47
1	4455	1611.123804841229	47
1	4460	1611.865274882149	48
1	4468	1614.891136954165	49
1	4473	1616.242783954321	50
1	4475	1617.482637297196	51
1	4477	1617.839512590171	52
1	4479	1617.897101468573	53
1	4481	1618.076609019412	54
1	4482	1618.567257330842	54
1	4486	1621.992873826004	53
1	4488	1622.75631086657	53
1	4490	1624.126221416875	54
1	4497	1625.862359883341	55
1	4503	1628.432433818264	56
1	4507	1630.427326959927	56
1	4508	1630.846643876885	55
1	4510	1632.010828227227	55
1	4511	1634.242211490494	55
1	4512	1634.454604189493	54
1	4520	1635.984875846585	54
1	4521	1636.659889325627	54
1	4522	1636.688520769568	53
1	4524	1637.185018564916	53
1	4526	1638.129981656261	54
1	4527	1638.595376845429	54
1	4528	1639.423096007454	53
1	4532	1641.347126508727	53
1	4538	1642.995474605518	54
1	4540	1643.078076161837	55
1	4541	1644.844530058015	55
1	4542	1645.15397582176	54
1	4543	1646.382255332061	53
1	4544	1649.920095009878	52
1	4548	1650.803918891369	52
1	4550	1651.111299302489	53
1	4553	1653.00148691861	54
1	4558	1656.595049743933	55
1	4560	1657.503799118967	56
1	4561	1657.603138368425	56
1	4563	1657.792618105923	56
1	4564	1658.086689705262	56
1	4569	1660.953341377588	56
1	4570	1661.22200916822	56
1	4572	1662.336539089676	56
1	4580	1664.201687904047	57
1	4584	1665.216398708005	57
1	4588	1667.535800579543	56
1	4589	1667.978810656787	55
1	4590	1668.294664913926	54
1	4591	1668.409914088352	53
1	4596	1669.23704711854	53
1	4598	1669.508602909915	54
1	4599	1669.568583990399	54
1	4600	1669.810480494098	53
1	4611	1671.996792337596	53
1	4618	1674.674168183823	53
1	4619	1676.057525862342	52
1	4620	1676.229616254515	51
1	4627	1678.087198282933	51
1	4629	1678.31588955377	51
1	4633	1679.368455356349	50
1	4634	1679.807938114877	49
1	4635	1680.050615846355	48
1	4640	1681.883118652723	48
1	4650	1684.766712759682	49
1	4652	1684.805881746938	50
1	4655	1685.777431445544	51
1	4656	1686.481891023721	51
1	4658	1686.793814346496	51
1	4659	1688.36129636336	51
1	4660	1689.85748495669	50
1	4661	1691.836084353381	49
1	4663	1691.957481636028	49
1	4664	1692.174825322129	49
1	4665	1692.733270049117	48
1	4666	1693.552170549705	47
1	4673	1695.847489868835	47
1	4678	1697.601363554131	47
1	4686	1699.351764303312	47
1	4687	1700.183018130432	47
1	4697	1705.342629976741	47
1	4706	1706.007126184954	48
1	4710	1706.171273606933	49
1	4715	1707.348702412455	50
1	4723	1708.07741261479	51
1	4725	1709.94276747516	51
1	4727	1710.291244689858	51
1	4728	1710.65077909544	51
1	4736	1712.71526059144	51
1	4737	1713.021055913139	51
1	4738	1713.049565402108	50
1	4739	1713.991453889512	49
1	4740	1716.294396350442	48
1	4742	1716.6803245369	48
1	4743	1716.958163817226	48
1	4744	1717.381168176111	47
1	4748	1717.823063246654	46
1	4750	1717.825704461474	46
1	4752	1718.354940634656	47
1	4753	1719.074887622737	47
1	4755	1719.188809963634	47
1	4759	1720.841736089274	48
1	4761	1722.66579345964	48
1	4766	1725.262231309555	48
1	4771	1726.763084228204	49
1	4772	1728.760333710638	49
1	4774	1729.03077530645	49
1	4775	1730.072191214385	49
1	4777	1731.06381344469	49
1	4784	1732.541735087949	50
1	4789	1733.667024467534	51
1	4798	1735.172400484474	52
1	4802	1736.510577154225	53
1	4804	1737.32218379801	53
1	4808	1738.548249988965	53
1	4810	1739.617275523254	53
1	4811	1740.156264361911	52
1	4815	1741.730513977527	51
1	4823	1745.762149770738	51
1	4825	1746.203197403126	52
1	4829	1747.515488901671	52
1	4833	1748.145149665018	51
1	4835	1749.170343943016	51
1	4837	1749.444487715507	52
1	4839	1750.381783580256	53
1	4841	1751.924661459578	54
1	4842	1753.090706199527	54
1	4852	1754.796125027712	54
1	4855	1755.184208683128	55
1	4859	1756.221627801992	56
1	4861	1757.126214192753	56
1	4862	1758.686391840675	55
1	4867	1759.884924096398	55
1	4871	1762.103625486991	55
1	4873	1762.248900340877	55
1	4874	1762.60823991565	55
1	4876	1763.481752414326	55
1	4878	1763.973330834413	56
1	4879	1764.233939010871	56
1	4881	1765.178323448976	56
1	4882	1766.502897925356	56
1	4886	1766.98656559524	56
1	4889	1767.101814340202	57
1	4890	1767.413152502436	57
1	4892	1767.515661601198	57
1	4894	1768.403554541905	58
1	4896	1769.906743021139	59
1	4898	1769.934752458736	60
1	4906	1772.951357928799	61
1	4907	1773.207957983242	61
1	4909	1773.93855763305	61
1	4914	1774.5531863283	62
1	4916	1774.809434188036	63
1	4917	1775.790726088695	63
1	4921	1777.689896249394	62
1	4926	1779.173422722375	62
1	4934	1783.361274901366	63
1	4935	1783.905940540289	63
1	4936	1783.909341654727	62
1	4937	1784.732361988355	61
1	4941	1785.20679785981	60
1	4942	1786.390617624026	59
1	4943	1788.016634981813	58
1	4945	1789.057523289506	58
1	4947	1792.083018199558	59
1	4957	1794.623834860178	60
1	4959	1795.174669248466	61
1	4968	1797.106985218456	62
1	4970	1797.125400175512	63
1	4972	1797.411234673432	64
1	4974	1797.70775406013	65
1	4978	1798.420471513809	66
1	4983	1800.928221829489	66
1	4985	1801.894525094195	66
1	4989	1803.047456830954	66
1	4991	1804.816353904339	66
1	4993	1805.882671952167	67
1	4997	1806.864680930819	68
1	4999	1808.215651473662	68
1	5001	1809.540001722159	68
1	5002	1810.991636883992	68
1	5004	1811.871349492602	68
1	5005	1817.016868320694	68
1	5010	1818.579401100611	68
1	5015	1821.065941545803	69
1	5020	1822.04778318106	70
1	5021	1822.986598075249	70
1	5022	1823.331690416668	69
1	5024	1823.623180076845	69
1	5028	1824.865297439155	70
1	5030	1825.497465646736	70
1	5032	1827.031273761948	70
1	5038	1828.229588288753	71
1	5044	1831.981712362207	71
1	5046	1832.487423313315	71
1	5050	1834.35529605717	71
1	5052	1834.695356434505	71
1	5053	1834.822709588898	71
1	5054	1834.843154576221	70
1	5055	1836.203272678947	69
1	5056	1836.846676776237	68
1	5057	1838.30669054948	67
1	5058	1838.862938032786	66
1	5059	1839.507084130758	65
1	5061	1841.211779534374	65
1	5062	1841.518923045426	65
1	5081	1851.189655225126	64
1	5086	1852.457281417527	64
1	5088	1852.502306093705	65
1	5089	1853.042729104318	65
1	5090	1853.410776472902	64
1	5092	1853.730790284758	64
1	5093	1854.092658124136	64
1	5094	1855.323998536164	63
1	5098	1856.758407399628	62
1	5102	1858.915238319306	61
1	5106	1860.243652582039	60
1	5110	1864.861276047883	59
1	5115	1865.647691880046	59
1	5117	1865.70127917527	60
1	5118	1866.3948209498	60
1	5122	1866.572179399205	60
1	5124	1867.121975738543	60
1	5125	1867.224716471544	59
1	5135	1870.14797456903	59
1	5137	1870.441135211219	60
1	5139	1871.071336932098	61
1	5141	1871.885974369012	61
1	5142	1872.161270593136	60
1	5146	1873.502204882147	59
1	5147	1874.310892744374	58
1	5148	1874.6353644819	57
1	5149	1875.366910173661	56
1	5151	1875.517437429193	56
1	5152	1875.896084366037	56
1	5153	1876.981750046871	55
1	5155	1877.300353492584	55
1	5156	1877.40697860786	55
1	5157	1877.637368857084	54
1	5159	1877.911025785447	54
1	5166	1880.554504787199	55
1	5171	1881.060490030504	56
1	5176	1881.674281437563	57
1	5178	1883.419336882879	57
1	5179	1883.693499552318	56
1	5180	1885.218745657556	55
1	5184	1886.830115956069	54
1	5186	1887.018811468719	54
1	5187	1887.473769077491	54
1	5191	1888.245680444525	54
1	5197	1890.821211240492	55
1	5201	1892.291248623015	56
1	5204	1892.5595212833	57
1	5209	1895.678383090229	58
1	5210	1897.026655061534	58
1	5212	1897.050558855044	58
1	5213	1897.119911155629	58
1	5215	1898.248688436321	58
1	5219	1898.569868461459	58
1	5221	1899.073796038299	58
1	5223	1900.344282105975	59
1	5224	1901.877047873455	59
1	5234	1907.164582419782	58
1	5236	1907.482291138716	58
1	5238	1907.579434884865	59
1	5240	1908.595484118515	60
1	5245	1909.473499110083	61
1	5246	1911.251737030949	61
1	5248	1911.780337367204	61
1	5249	1912.373804804258	61
1	5257	1914.426524773839	61
1	5260	1914.818668211205	62
1	5264	1915.871879770264	63
1	5268	1918.607976759132	63
1	5270	1918.962844961489	63
1	5272	1919.245052859598	64
1	5273	1920.114434154451	64
1	5277	1922.336225595214	63
1	5281	1922.909374855527	63
1	5283	1923.715237231112	64
1	5285	1925.24551362068	64
1	5287	1927.417114763392	64
1	5288	1928.979104344499	64
1	5290	1930.04460301476	64
1	5292	1930.828287648359	65
1	5293	1931.056157346022	65
1	5297	1932.461549163403	64
1	5298	1933.16206056031	63
1	5299	1933.786537032176	62
1	5300	1933.819680646362	61
1	5302	1934.249733217266	61
1	5303	1935.496338002638	61
1	5304	1936.124960716186	60
1	5306	1938.412246073145	60
1	5307	1938.703905940433	60
1	5308	1939.045253018716	59
1	5310	1939.222137760912	59
1	5317	1942.083619759369	60
1	5322	1943.360323477995	60
1	5323	1943.445412249115	59
[...]
10	2407	875.115573332626	0.617471909507
10	2413	876.332652077108	0.320364184567
10	2422	879.994312640324	1.143451977962
10	2423	880.022550699121	0.324980208531
10	2435	887.99609985972	2.561218968713
10	2438	888.207010499559	0.207171833513
10	2445	891.689467524651	0.474539926551
10	2448	892.501177269267	0.126982446662
10	2459	895.947822148319	0.196060112841
10	2466	897.222845183953	0.235901601122
10	2473	900.249257487153	0.910301507905
10	2484	903.528216823978	1.58444444635
10	2485	903.599015978735	1.114083415571
10	2490	906.256026553774	0.211479038338
10	2495	910.116468175044	0.066432823265
10	2503	911.02155073215	0.394161948272
10	2510	911.485782346448	0.408141771814
10	2511	911.65161271494	0.571751544356
10	2514	911.700964571419	0.351327868123
10	2519	914.638570801805	0.266527261483
10	2525	917.440487945832	0.261292331091
10	2532	919.547854641717	0.420492958556
10	2537	921.791870783601	1.334499168199
10	2553	931.69000485489	0.1998938503
10	2566	937.356855345661	0.403735295364
10	2574	940.839708091795	0.28854282765
10	2589	947.878947270129	0.18929144506
10	2596	949.212339925605	0.521911964333
10	2601	952.385786550015	1.433790361549
10	2608	955.118354491397	0.177906711871
10	2624	961.09957330502	0.305841284833
10	2630	962.586693055913	0.395157996656
10	2635	963.351949814492	0.238436898263
10	2657	975.303477468651	0.369558695836
10	2669	981.674067916259	1.333555295592
10	2672	982.76549714503	1.7864171714
10	2673	982.996178128226	0.772021008609
10	2679	985.875508429825	0.463591234759
10	2686	987.792508445153	0.162948945404
10	2691	988.954942301714	1.020129537619
10	2694	991.729815200183	0.215757274283
10	2704	995.129505969515	0.537089989634
10	2707	996.281663119426	0.457985790771
10	2715	1000.499731662852	0.355510959206
10	2722	1004.119780306613	0.545689954101
10	2723	1004.300695523692	0.19291021162
10	2735	1007.049638203063	0.490562853251
10	2740	1008.835163368867	0.074263830108
10	2754	1013.667016231256	0.208290318542
10	2760	1014.879163573909	0.134751412284
10	2763	1015.58965885154	0.760883618648
10	2766	1015.881512220163	0.176727673285
10	2772	1019.350245047894	0.363384914969
10	2785	1023.194545386223	1.798848016126
10	2786	1023.78688942038	1.790777937533
10	2798	1028.788007937076	0.551564335437
10	2799	1028.883338693484	0.264134310779
10	2802	1029.493405864982	0.004975900455
10	2806	1032.625549677926	0.336005526221
10	2812	1035.013820986095	0.944159529119
10	2813	1035.08510402362	0.876237407827
10	2821	1035.856721327491	0.32672613936
10	2825	1039.67725061204	0.536533706361
10	2837	1044.99335295948	0.233597707153
10	2840	1045.755066049434	0.428214633287
10	2843	1046.079258102277	0.117162174977
10	2850	1046.538350384927	0.147899839438
10	2855	1048.512234253918	0.824088951517
10	2868	1055.652165043525	0.344309285241
10	2879	1057.898025775907	0.17688658352
10	2882	1058.006277566072	0.206975018264
10	2885	1058.72873588422	0.558819476713
10	2896	1061.670409567512	0.271830614977
10	2903	1064.487367368149	2.31344756816
10	2906	1065.505220176729	0.772326654417
10	2911	1067.71037652634	0.052903332228
10	2915	1068.803122979141	0.496871896304
10	2936	1074.633946861203	0.651536329168
10	2940	1075.459741999197	0.155712743662
10	2951	1077.053114994992	0.156497067486
10	2959	1079.829451912886	1.376879767249
10	2963	1080.598695446617	0.129702739236
10	2966	1081.513134777226	0.558072679955
10	2975	1083.028617162132	1.101003593833
10	2995	1090.900399019683	0.422879752243
10	3007	1096.335662931027	1.155417715265
10	3010	1096.729505562277	1.467468201285
10	3011	1096.779925135256	0.852191828351
10	3014	1098.833795803466	1.382482228465
10	3020	1100.718823568787	0.114651289455
10	3023	1100.759366849498	0.002023195379
10	3027	1103.088612740419	0.776783004184
10	3030	1104.235207964709	0.974735211395
10	3033	1105.196087109632	0.463332379768
10	3038	1105.674252557677	0.376642665916
10	3050	1108.849605455587	0.016421430955
10	3062	1111.701206226709	0.251828597153
10	3063	1111.815778813658	0.140478615064
10	3074	1116.202021626782	1.778113659904
10	3075	1116.312445098019	0.227335189762
10	3080	1117.964005889133	0.154960517695
10	3085	1118.337757886837	0.175598368957
10	3093	1120.664359077628	0.146815404181
10	3096	1122.042545434482	0.419212840316
10	3104	1125.273785165712	0.779582947117
10	3109	1127.132156274358	1.19211382479
10	3114	1127.922153365655	1.968565747371
10	3117	1128.14702957087	0.575175289406
10	3120	1128.54000091168	0.754916282572
10	3126	1131.741139586532	0.401011577448
10	3129	1131.830404161751	0.033660239985
10	3133	1133.536094825856	0.998143297627
10	3137	1134.674313486833	0.568485985752
10	3157	1143.893065907168	0.104329096859
10	3163	1147.534632965289	0.080444116103
10	3171	1150.490914010038	0.080199131054
10	3174	1152.013757476282	1.294155080039
10	3177	1154.644272597788	0.302089946792
10	3187	1158.673574319722	1.471628269682
10	3191	1159.298297793235	0.001199982858
10	3197	1161.896922625339	0.215038019167
10	3209	1168.627194106662	0.112257911923
10	3230	1175.821252535117	0.030970032584
10	3233	1177.202126252163	0.044637348301
10	3245	1179.145754302976	0.351183359748
10	3248	1179.239829876889	0.039399715245
10	3251	1180.533653978009	0.241393729058
10	3257	1184.315550346647	0.496025255881
10	3260	1185.110638122824	0.443387187879
10	3263	1185.573187191727	0.14118938093
10	3284	1193.78491973244	0.826269673144
10	3291	1195.980709581484	0.371863592814
10	3295	1196.219549162756	0.006266750905
10	3317	1202.017709633636	1.415901573134
10	3318	1202.542604224919	0.891799944201
10	3321	1203.073864822138	0.021121153036
10	3325	1203.970426445802	0.711321894463
10	3330	1207.08797653884	0.775433371098
10	3334	1209.284164441513	0.189176902598
10	3338	1211.701307177767	1.484504192182
10	3350	1220.333493875643	0.29057304309
10	3360	1222.689160214163	0.175134254612
10	3369	1224.350165362101	0.725006871196
10	3381	1227.492376201602	0.110513019117
10	3391	1230.417014883647	0.830698617524
10	3396	1230.692442448091	0.975543615415
10	3397	1230.800446176754	0.227273920367
10	3409	1233.886399545889	0.230647587114
10	3418	1240.753439077331	0.276982066035
10	3426	1246.578389032566	0.106559305146
10	3432	1248.943720647511	0.118958876866
10	3437	1251.184675498191	0.704147345879
10	3438	1251.935483975867	1.21619669389
10	3446	1255.012924177028	0.071697558477
10	3449	1255.373929907449	0.197094199407
10	3454	1258.74849971878	3.113795743845
10	3463	1260.116781222052	1.932348126002
10	3464	1260.539735437914	1.036961374555
10	3468	1261.526146124209	0.094019336347
10	3482	1264.865984203643	0.314235575228
10	3487	1265.424275551933	0.737595157541
10	3488	1265.651140113958	0.255253031785
10	3491	1268.321396042297	1.144365122445
10	3494	1269.01331869107	0.589325860967
10	3507	1272.816096290483	0.485991071124
10	3508	1272.860765218493	0.455740573552
10	3509	1273.74413768889	1.099399750128
10	3522	1281.708401216256	1.577792171579
10	3526	1283.215592485347	0.139160003761
10	3535	1289.7214423678	0.034081887279
10	3543	1293.123558031339	0.116585756877
10	3546	1293.926407146115	0.17545536887
10	3551	1294.841625037704	0.629020734819
10	3567	1300.67451619177	1.71531828207
10	3568	1301.077458688375	1.804027507959
10	3571	1301.703296151448	2.090757525346
10	3577	1304.081571663698	0.960920226958
10	3582	1309.274179008854	0.661662932865
10	3588	1311.944367252194	0.621631752516
10	3592	1313.426942494659	0.642785659411
10	3597	1314.664416518253	0.289756036683
10	3605	1317.511414099077	1.777843320992
10	3608	1319.014579612704	2.769309777711
10	3613	1319.59421019045	2.427992201248
10	3614	1320.393135789009	2.817339689041
10	3615	1320.677690067587	1.628129060357
10	3621	1324.445890022803	0.419299176808
10	3624	1325.71334509703	1.079630917882
10	3628	1328.297093196605	0.342320138041
10	3632	1329.018540908552	0.32980812908
10	3635	1329.719649007323	0.391499238461
10	3647	1332.625098260877	0.111233371587
10	3654	1334.111566198683	0.632119069037
10	3655	1334.169897346746	0.421529678515
10	3656	1335.011627832008	1.26135787277
10	3662	1337.875792312152	0.661810737732
10	3670	1339.060307473498	0.462228599609
10	3673	1339.384175211271	0.197507238605
10	3686	1344.10404726621	1.558333390344
10	3687	1345.219077383997	1.954779213102
10	3692	1346.400830988657	0.004886169251
10	3708	1349.540962303665	1.337901618188
10	3709	1349.5612983043	0.21065996934
10	3712	1349.958048539441	0.482931307265
10	3715	1350.239688401089	0.303266707948
10	3720	1351.400778678624	0.19307257766
10	3725	1352.852912113889	0.064640027289
10	3732	1357.093892891208	0.973967341028
10	3735	1357.210626545563	0.873822226847
10	3736	1357.376565604975	0.49608747493
10	3747	1360.352500230623	0.615576011883
10	3756	1362.90823923973	0.331918415769
10	3759	1364.086818865682	0.241993393867
10	3771	1367.686059565272	0.010033946851
10	3779	1369.813148472443	0.428351805504
10	3780	1370.196899822668	0.508155161125
10	3786	1372.141110292864	0.058943569348
10	3799	1377.514457520631	0.221549495352
10	3808	1381.921969311706	0.337807193262
10	3823	1385.107247941466	0.519072205651
10	3826	1385.262165399502	0.106060960901
10	3834	1390.240417397869	0.276180222911
10	3842	1392.32220443428	1.697651107774
10	3850	1395.122574623859	0.474355396554
10	3853	1396.266570338799	0.255151013596
10	3859	1397.590478941003	0.465849687266
10	3862	1398.073676118832	0.27912768913
10	3865	1398.567909959591	0.103484595512
10	3868	1400.290768015585	0.261806386372
10	3878	1404.992822336846	0.144926942265
10	3882	1407.339756526138	0.604547422027
10	3885	1407.440773980868	0.023778732025
10	3890	1408.734887825374	0.329455738355
10	3895	1408.964433884934	0.033542035372
10	3898	1410.289237057597	0.80975180268
10	3905	1412.434541426221	0.257445127362
10	3921	1416.692811496125	0.144091587045
10	3924	1417.480293517287	0.831892196868
10	3925	1417.615758048124	0.95181242422
10	3928	1418.300104911128	0.542946244375
10	3938	1423.574373841594	0.179837052701
10	3945	1423.91331562837	0.489737885335
10	3946	1424.244761169984	0.632840555092
10	3947	1424.552509451229	0.877093258076
10	3952	1426.255485208391	0.926398991068
10	3959	1427.75976746811	0.790272931052
10	3960	1427.762832576997	0.744230746148
10	3963	1428.948249079017	0.922729612109
10	3974	1434.488563385486	0.052876059831
10	3983	1436.516940943954	1.169615801976
10	3986	1437.48638242057	0.057641862292
10	3989	1437.626397861224	0.11973732281
10	3992	1441.748907705359	0.254863388215
10	3996	1442.818418548207	0.328845423692
10	4003	1444.962968640563	0.226120340804
10	4004	1445.103330645625	0.264311053006
10	4018	1450.474316262844	0.188299542567
10	4028	1454.879434586153	0.913880493336
10	4040	1456.92823631069	0.215149722119
10	4048	1458.258726017706	0.83203890387
10	4053	1459.066619545198	0.558742887563
10	4054	1459.331823731281	0.291029974096
10	4064	1464.142453193957	0.141734223297
10	4071	1466.318529016291	2.115757520696
10	4084	1471.772735175303	0.154477910747
10	4088	1473.481117064067	0.744541848804
10	4093	1474.993616353762	0.114338390274
10	4099	1479.103862473822	1.084149255027
10	4108	1481.616309055663	0.549278960931
10	4115	1483.440369693149	0.09239386862
10	4118	1483.831125063383	0.463105167053
10	4131	1488.871953345438	1.380846085613
10	4135	1490.90932684048	0.235292346302
10	4138	1492.09869264398	1.033573130337
10	4149	1496.32798966388	0.551361208308
10	4156	1497.967754097909	0.265382206994
10	4166	1498.870660101775	0.39471236244
10	4172	1503.113766601946	0.390832441421
10	4184	1508.914650777279	1.764472672571
10	4185	1509.203218215948	0.626790437473
10	4186	1509.305709591237	0.560807121755
10	4189	1513.4272249407	0.023584689264
10	4201	1517.215642487554	0.10683749166
10	4202	1517.534950468286	0.364632957772
10	4210	1518.918359341592	0.699498150354
10	4219	1525.772164404681	0.233115295586
10	4224	1526.325249929317	0.084943389919
10	4229	1528.017521716971	0.798566139228
10	4233	1529.715881568925	0.879515929202
10	4240	1530.714152039289	0.419603186204
10	4241	1531.260874104335	0.949977458737
10	4247	1536.434325363667	0.437802931106
10	4257	1540.233917022978	1.755752151638
10	4258	1540.848803396836	2.198981592944
10	4262	1541.186613991234	0.070967910975
10	4267	1546.003533355514	0.377650515543
10	4276	1547.514037504832	1.401571678353
10	4277	1548.687861032671	1.614220336497
10	4287	1550.470592620455	0.65991917266
10	4297	1554.619618361326	0.288190200834
10	4300	1555.510224127963	0.224021845396
10	4308	1557.993574432336	0.507648395668
10	4313	1561.99954906417	0.083927683119
10	4318	1563.435109232944	0.665096238128
10	4328	1568.217407398648	0.749909432832
10	4338	1572.114437803129	0.112342948365
10	4343	1573.592739136322	1.287651086687
10	4356	1579.547201403711	0.871002658599
10	4357	1579.74561199359	0.199740870398
10	4366	1580.606976814985	0.061001046094
10	4373	1582.180421299936	0.585940620026
10	4381	1585.775480002228	0.270428464297
10	4384	1587.984168587444	0.194930816651
10	4387	1588.524421674314	0.180804467359
10	4390	1591.256256291319	0.100871170956
10	4393	1591.761451395075	0.006780388266
10	4401	1593.209671025917	0.19259793593
10	4410	1593.936513540675	0.400593410843
10	4414	1594.192856349852	0.104605683474
10	4426	1597.625107919772	0.156770351149
10	4431	1598.849076735655	0.164698010377
10	4436	1602.623462501134	0.204597649299
10	4442	1606.775329636218	2.09253773298
10	4443	1607.200570487533	0.425403862039
10	4446	1607.641705822303	0.267914451204
10	4449	1608.92674293437	0.15422917891
10	4452	1611.037863586758	1.260990483127
10	4458	1611.706365601586	0.524803031389
10	4469	1615.041719238419	1.057960014381
10	4470	1615.28066575727	1.223577785057
10	4471	1615.452286199966	1.063346309467
10	4485	1621.599826287711	0.228859072098
10	4493	1625.170676518804	0.125362078077
10	4498	1625.895572836024	0.500931375643
10	4501	1626.569879184647	0.049129295799
10	4506	1629.564974721085	0.680686387668
10	4517	1635.418141662931	0.44818357812
10	4518	1635.878870325507	0.615946961105
10	4533	1641.87189082694	0.813100627927
10	4536	1642.224196125396	0.209551731693
10	4551	1652.242583988091	1.557023508552
10	4556	1654.331313725595	0.722470770354
10	4567	1659.174537066812	0.024766078823
10	4575	1662.572489412532	0.036995748388
10	4578	1663.408540548259	0.81637761302
10	4583	1665.154092432666	0.384419001632
10	4587	1665.546361325377	0.251816712198
10	4594	1669.178697727389	0.362470678886
10	4609	1671.061205703576	0.785292657911
10	4612	1672.122702341406	1.842387859733
10	4613	1672.272030895834	1.677803830728
10	4614	1672.33366791443	1.534161135664
10	4617	1673.92883782105	0.16833973519
10	4623	1677.02740450465	0.048390716905
10	4628	1678.128878175902	0.481087824991
10	4632	1678.575603120961	0.010010545966
10	4638	1681.574811182887	0.869621945537
10	4645	1682.673595824954	0.494648726949
10	4646	1683.013202503777	0.39172469
10	4653	1685.341541573062	0.931164677068
10	4669	1694.792471087395	0.377507646896
10	4674	1696.001711874523	0.501113475171
10	4677	1697.220047998798	0.882079654765
10	4683	1698.36839576309	0.329873815494
10	4684	1699.086732875877	0.980560282524
10	4692	1704.277994052945	1.507262585558
10	4695	1704.953348445228	1.672308142442
10	4704	1705.655341010706	1.223095642683
10	4711	1706.944936108831	1.555190488599
10	4712	1707.118328198704	1.591156407496
10	4713	1707.261164519745	1.64559839599
10	4718	1707.78775406452	1.677046289227
10	4721	1707.843008351383	0.346268532986
10	4724	1708.690561169442	0.884351411416
10	4731	1711.386582616002	0.41028096019
10	4734	1712.012577293217	0.195890061222
10	4747	1717.613138032353	0.04867185572
10	4760	1720.857546030539	0.711173496933
10	4764	1724.487688311673	0.012504392869
10	4769	1725.812589331686	0.378999918854
10	4780	1731.344436942138	0.116092485022
10	4785	1732.552393811242	0.241462969411
10	4790	1734.073509439641	1.303253555794
10	4793	1734.751517554485	0.163441747436
10	4796	1734.874559608276	0.095865098484
10	4803	1736.885622175474	0.376787876917
10	4809	1739.178958016454	1.648764981177
10	4814	1741.670147147188	0.420194248501
10	4818	1742.180243094243	0.063570133419
10	4821	1743.44274233837	0.255133014091
10	4828	1746.392674467507	0.172998581757
10	4832	1747.605680125386	0.007157065003
10	4845	1753.962650468831	0.036604535575
10	4848	1754.045176013242	0.046158598211
10	4853	1755.04995170254	0.346563714633
10	4860	1756.867376836989	0.699666974624
10	4865	1759.607077284348	0.809881122357
10	4870	1760.50002935177	0.160105779455
10	4887	1767.053575498753	0.424762479015
10	4903	1771.499389220687	0.465058020039
10	4904	1772.795172582655	1.551950378502
10	4912	1774.410941523333	0.381715489904
10	4920	1777.160128434223	0.881518687545
10	4924	1778.935784872935	0.038105155765
10	4929	1779.867564318563	0.048925301249
10	4932	1780.170674867104	0.26993984039
10	4940	1784.870907835931	0.012993714247
10	4950	1792.441041314039	0.027577386137
10	4955	1794.475049869801	0.547136614098
10	4964	1796.125009491792	1.929771706853
10	4965	1796.36879860208	1.040119754374
10	4966	1796.532801649968	1.163239857003
10	4979	1798.510290407944	0.182500271421
10	4982	1799.687731328821	0.786588186963
10	4988	1802.132859731845	0.003230285254
10	4998	1807.209026170549	0.635412725865
10	5008	1817.678719708159	0.398158457461
10	5013	1819.745906596994	1.154383144712
10	5018	1821.971067350541	0.133178460809
10	5029	1825.145795164925	0.341442916666
10	5041	1828.485625467629	1.121659626946
10	5042	1828.647209325932	1.060611697497
10	5043	1829.95951848718	1.526566484675
10	5049	1833.882663132418	0.406062924993
10	5065	1843.145525165479	0.558414772831
10	5068	1846.447802306116	0.202585959761
10	5073	1847.522344462385	0.165094169449
10	5074	1848.116937303288	0.681434105793
10	5077	1848.686070898189	0.408272917021
10	5080	1850.873700077549	0.062709260122
10	5084	1851.328295849172	0.074207784745
10	5097	1855.893976163702	0.063366736406
10	5101	1857.604682003496	0.373529402676
10	5105	1859.08399025499	0.009164254642
10	5109	1863.561136131051	1.871992465836
10	5113	1865.585905343381	0.473838407809
10	5123	1867.071650589146	0.6629453183
10	5130	1868.822779559209	0.573398145638
10	5131	1869.153669728463	0.57637960425
10	5140	1871.3243341874	1.521451833344
10	5145	1873.050392257048	0.0210474856
10	5162	1880.062540443212	0.22242746899
10	5167	1880.712905621137	0.632026026436
10	5172	1881.472919990926	0.554580363254
10	5177	1882.777389133073	1.208800220391
10	5183	1885.643037704944	0.284168428802
10	5198	1891.177147976099	3.379509504034
10	5199	1891.697884258511	1.762608810347
10	5202	1892.467345169977	1.83758056964
10	5207	1893.079008870202	0.137497210322
10	5218	1898.416640406835	0.080365731062
10	5229	1905.230304494271	1.416890967807
10	5230	1905.982877514196	1.705520079618
10	5233	1906.665490735249	0.048615771788
10	5243	1909.080915645356	0.152644703668
10	5258	1914.469227523067	1.084345498227
10	5261	1914.945741195979	1.065883357569
10	5262	1915.178007368146	1.071117490052
10	5267	1916.828172326001	0.148622992181
10	5276	1921.631494830498	0.263257432186
10	5284	1923.931757206898	1.240068744922
10	5296	1931.273983760678	0.074625093874
10	5313	1940.939457326247	0.041199898825
10	5318	1942.193680511336	0.823763748748
10	5321	1943.339762081746	1.072537185411
10	5328	1944.935570884924	0.033417027569
10	5334	1946.689382237942	0.112650867548
10	5337	1948.116614190998	0.298217460381
10	5350	1952.764366270541	1.213494854306
10	5353	1953.581823303912	0.742014483975
10	5358	1953.797847570277	0.152158505781
10	5361	1954.483478299552	0.264622779898
10	5371	1957.747696260691	0.363188131664
10	5379	1960.551595015864	0.039695918184
10	5389	1965.355904164155	1.814350851125
10	5396	1968.367626468276	0.283944686108
10	5401	1974.57443322702	1.188528703509
10	5407	1977.412654451511	0.07058527992
10	5410	1978.613209092734	0.070818054484
10	5418	1979.542905411831	0.800605900817
10	5419	1980.021173621217	0.644259934016
10	5429	1984.297005727267	0.303642385305
10	5436	1987.311909834153	0.155291940141
10	5443	1987.799019972112	0.088610840424
10	5444	1988.533963625881	0.745020364572
10	5448	1990.63205474485	1.262206723983
10	5458	1993.115131281399	0.114836148163
10	5469	1996.112987020618	2.69080610117
10	5470	1996.140251212089	1.614168913041
10	5474	1998.576659372408	0.424795877342
11	5479	2000	0.4695
12	5479	2000	0.4225

