version 2
run Monotonicity_test_recover_rate-441-20221219-18:28:43-16694
attr configname Monotonicity_test_recover_rate
attr datetime 20221219-18:28:43
attr experiment Monotonicity_test_recover_rate
attr inifile omnetpp.ini
attr iterationvars $0=100
attr iterationvarsf 100-
attr measurement $0=100
attr network Network
attr processid 16694
attr repetition 41
attr replication #41
attr resultdir results
attr runnumber 441
attr seedset 41
param *.minion.arrival_mean 2
param *.minion.service_mean 1.5
param *.boss.arrival_mean 2.5
param *.boss.service_mean 0.5
param *.player.recover_rate_x 100
param **.minion.arrival_distribution 0
param **.minion.service_distribution 0
param **.boss.arrival_distribution 0
param **.boss.service_distribution 0

vector 0 Network.player minion_jobs_number_stat:vector ETV
attr source signal_minion_jobs_number
vector 1 Network.player minion_jobs_queue_number_stat:vector ETV
attr source signal_minion_jobs_queue_number
vector 2 Network.player minion_recovered_stat:vector ETV
attr source signal_minion_recovered
vector 3 Network.player minion_defeated_stat:vector ETV
attr source signal_minion_defeated
vector 4 Network.player boss_jobs_number_stat:vector ETV
attr source signal_boss_jobs_number
vector 5 Network.player boss_jobs_queue_number_stat:vector ETV
attr source signal_boss_jobs_queue_number
vector 6 Network.player boss_defeated_stat:vector ETV
attr source signal_boss_defeated
vector 7 Network.player minion_waiting_time_stat:vector ETV
attr source signal_minion_waiting_time
vector 8 Network.player boss_waiting_time_stat:vector ETV
attr source signal_boss_waiting_time
vector 9 Network.player boss_response_time_stat:vector ETV
attr source signal_boss_response_time
vector 10 Network.player minion_response_time_stat:vector ETV
attr source signal_minion_response_time
vector 11 Network.player minion_throughput:vector ETV
attr source signal_minion_throughput
vector 12 Network.player boss_throughput:vector ETV
attr source signal_boss_throughput
0	0	0	0
0	2	0.883167411662	1
0	6	1.306402827847	2
0	11	2.038994503491	3
0	13	2.222040323267	4
0	16	2.87420018368	5
0	26	8.483972859054	4
0	39	11.973802773116	5
0	44	14.623923981338	4
0	48	15.955239982483	5
0	52	16.773688280528	6
0	58	19.261749069729	7
0	61	20.162145930689	8
0	63	20.326702099888	9
0	67	24.836271674114	10
0	74	27.867894059497	10
0	78	28.138321766422	11
0	82	29.728847617941	11
0	87	31.605134211662	11
0	90	31.944720891995	12
0	94	32.809633189158	11
0	98	34.671450659162	12
0	101	36.312430196797	13
0	104	37.049463636515	13
0	106	38.614414270905	14
0	108	38.913082383245	15
0	112	45.177816230671	14
0	114	45.259255956255	15
0	118	47.929117886535	14
0	128	53.943052656265	13
0	132	54.407888033699	12
0	134	55.531750691443	13
0	149	60.944519500557	10
0	158	65.383508256054	10
0	160	67.312019354844	11
0	169	69.70420386821	11
0	171	69.870318404821	12
0	173	70.552632878296	13
0	177	72.767116491374	12
0	184	74.703658284391	13
0	194	75.749388667938	14
0	199	77.888296342372	14
0	201	79.206213773185	15
0	214	82.205119829885	14
0	216	82.260709177928	15
0	222	88.11402078933	15
0	225	89.248934687544	15
0	238	91.487376896919	16
0	245	92.43199458502	16
0	252	96.286513031332	15
0	254	96.504577365642	16
0	257	97.579587631695	16
0	274	103.465374193439	14
0	277	103.90077292562	14
0	282	106.383885141688	15
0	285	108.638366862131	15
0	298	113.922453870716	14
0	300	114.311025054466	15
0	312	116.182456731273	15
0	314	116.501978014402	16
0	316	117.272040118792	17
0	322	121.108354370697	14
0	324	122.16226733866	15
0	330	124.080996530602	12
0	332	124.303729097881	13
0	334	124.712214466958	14
0	336	125.066903363929	15
0	340	126.936316798005	14
0	349	130.660098850887	14
0	353	132.603237666535	13
0	355	133.142651223514	14
0	357	133.666440577019	15
0	359	135.510756608019	16
0	361	136.045681116338	17
0	366	137.089475364477	18
0	369	137.426353801813	18
0	372	137.635263163796	18
0	391	142.290193844691	17
0	396	143.028508664532	17
0	405	145.579294681119	18
0	409	145.829947703288	19
0	412	147.316072690678	20
0	418	150.211324906688	20
0	420	150.343132273506	21
0	430	152.858620241099	20
0	433	153.103334302211	20
0	443	157.244967434442	19
0	446	158.312714306168	19
0	452	159.496380618253	16
0	463	162.533317676406	14
0	466	162.9170774997	14
0	473	164.135874408239	15
0	480	166.81630666931	15
0	485	167.669162332834	16
0	493	170.163668707471	17
0	500	171.890062786506	16
0	502	171.964119707089	17
0	514	177.271633342278	14
0	520	180.172908776185	14
0	523	183.4458062775	14
0	527	183.667430205315	15
0	534	185.895499817465	15
0	541	190.522031783838	13
0	543	190.832653025298	14
0	546	191.373925211934	15
0	550	192.829597424103	14
0	553	194.735247471744	14
0	558	196.667840373159	12
0	563	198.370469163274	13
0	568	199.72839342695	14
0	570	200.061775263343	15
0	577	204.254882225162	14
0	579	205.162648178523	15
0	581	205.444469468314	16
0	583	205.79167417583	17
0	592	209.270321850463	14
0	595	212.476197509479	14
0	597	213.162845878236	15
0	599	213.737697794889	16
0	601	215.917205468246	17
0	617	221.86433583234	13
0	619	221.924331047901	14
0	625	224.538695800963	14
0	629	228.685056367806	13
0	631	228.80566878386	14
0	636	230.087435845363	14
0	640	230.529900391283	14
0	643	231.147197849817	14
0	645	231.517782222903	15
0	657	235.307145016316	15
0	659	235.824669570262	16
0	666	237.450714006662	17
0	682	243.556511830646	13
0	684	244.340326689662	14
0	687	245.905459318693	15
0	693	246.83513314652	15
0	698	248.313094164828	15
0	700	249.048832093632	16
0	703	249.837597873282	17
0	709	254.600201269691	17
0	717	256.281547136285	18
0	725	260.11047257522	16
0	734	263.536453539264	13
0	737	264.154806353003	13
0	742	265.354935488629	11
0	746	265.817424569469	12
0	758	269.353265009457	12
0	764	270.424381565368	13
0	767	272.685141032448	13
0	770	274.665303189665	13
0	787	280.777622167593	11
0	792	283.914804998572	9
0	798	285.929759105022	9
0	807	293.388052427878	6
0	815	297.131970456396	6
0	827	301.874861172053	4
0	829	302.077579083374	5
0	831	302.53475091161	6
0	833	302.61744474475	7
0	838	304.05426283425	7
0	840	304.27674779491	8
0	843	305.388715172972	9
0	850	309.01161093484	5
0	853	310.277299132044	5
0	855	310.313564934408	6
0	857	310.316682808806	7
0	859	310.768616315363	8
0	862	311.603703501494	8
0	864	311.887292582425	9
0	866	312.019929585576	10
0	868	312.602023810331	11
0	873	313.657067584641	12
0	880	315.238494753443	11
0	883	319.042266737578	11
0	891	322.716586363501	9
0	899	327.174341239296	4
0	905	330.033501730268	4
0	912	333.482466195881	3
0	923	337.413064743394	3
0	929	338.766146907111	4
0	942	342.245511568154	4
0	944	342.616146616631	5
0	948	344.216340472924	6
0	950	344.439088789062	7
0	952	344.444502547558	8
0	954	345.005331603447	9
0	957	346.142020932641	9
0	971	349.223159472061	6
0	976	350.744652702344	7
0	981	355.62080731002	6
0	983	355.698153181987	7
0	985	355.819070494439	8
0	989	359.219252135442	7
0	993	362.111905108486	8
0	1001	363.832727827235	7
0	1005	364.779162928776	6
0	1010	367.222264516516	4
0	1019	370.28433852579	1
0	1021	372.035841834037	2
0	1023	372.64308878848	3
0	1031	375.472986057638	4
0	1034	376.958568692744	4
0	1039	380.424993022083	5
0	1045	381.349376498691	5
0	1048	381.552508117479	5
0	1050	382.472935566131	6
0	1052	382.718822942225	7
0	1066	387.275612379195	6
0	1068	387.945476291725	7
0	1072	389.808055346362	8
0	1077	392.246020762846	8
0	1080	394.046112377562	9
0	1087	398.267255836223	10
0	1094	400.273758830892	9
0	1096	400.401425446215	10
0	1098	400.636659387863	11
0	1101	402.098210898766	12
0	1103	402.311412213681	13
0	1109	402.765257731203	12
0	1122	409.255373938936	12
0	1141	415.405323928343	8
0	1151	417.102039171802	9
0	1154	418.359083715246	10
0	1163	425.610089105675	7
0	1168	427.520784195465	7
0	1171	429.593614107724	8
0	1178	434.776683305057	7
0	1180	435.833923073015	8
0	1182	436.721384922276	9
0	1205	446.316531010183	4
0	1209	449.189221598319	5
0	1219	453.529093767463	5
0	1221	455.275256648913	6
0	1224	458.486135565389	6
0	1227	459.586634989217	6
0	1229	460.809047569462	7
0	1231	461.625292709421	8
0	1233	461.805274539975	9
0	1235	461.89083401603	10
0	1243	464.331482928013	10
0	1256	466.793827612619	10
0	1266	471.6269637247	9
0	1276	475.919526866697	8
0	1280	476.391772371428	9
0	1282	476.728617076292	10
0	1285	476.97756825021	11
0	1287	477.343924477814	12
0	1296	481.18972727727	11
0	1305	483.877307060544	12
0	1311	485.250812324338	12
0	1316	486.912537773853	12
0	1320	489.556461056812	12
0	1324	491.35302258028	13
0	1329	492.785665373627	14
0	1337	494.453682627469	13
0	1344	497.296531666602	12
0	1355	501.252829109883	10
0	1360	503.024142207942	8
0	1368	508.149394865041	9
0	1370	510.548041405306	10
0	1372	511.631119738045	11
0	1385	518.51509055554	10
0	1392	520.748975617448	11
0	1395	521.292095763898	12
0	1397	522.094556901951	13
0	1399	522.787590071934	14
0	1401	522.862515581974	15
0	1403	524.673480344347	16
0	1406	527.438581570214	16
0	1410	533.07091332854	15
0	1416	536.22808510145	12
0	1421	537.432016821181	13
0	1423	537.721820656914	14
0	1427	538.165756736804	15
0	1431	538.881399345891	15
0	1453	548.295189934937	11
0	1459	554.506952756169	11
0	1467	557.901523669797	9
0	1470	558.214861923054	9
0	1473	559.570310603553	9
0	1486	567.333805994147	8
0	1499	572.772157593119	4
0	1507	575.899970418017	2
0	1511	578.212103847936	1
0	1513	578.432472451781	2
0	1515	578.456327786761	3
0	1521	580.668962688308	3
0	1524	581.076437920034	3
0	1544	588.95671942853	1
0	1546	589.141758988848	2
0	1556	593.360714056226	1
0	1565	596.100170510564	1
0	1568	596.980005352172	1
0	1574	598.342663548126	1
0	1577	598.948041237865	1
0	1583	602.143341469672	1
0	1592	607.397137138349	1
0	1606	611.054844024392	1
0	1615	616.522557935605	2
0	1618	617.204891661867	2
0	1620	618.119756075049	3
0	1625	621.458947967569	4
0	1627	622.135531426682	5
0	1630	624.249148655021	5
0	1633	626.314501530726	5
0	1641	631.348908245143	3
0	1646	634.064818896598	1
0	1648	634.220139068153	2
0	1653	635.023320115734	3
0	1661	638.557305821615	1
0	1663	638.625012449404	2
0	1665	640.006299244416	3
0	1671	642.439994130522	3
0	1681	655.195246156579	2
0	1683	656.080187512714	3
0	1688	658.612644013401	3
0	1691	661.23475024645	4
0	1695	663.627965348055	3
0	1712	668.716177944717	1
0	1715	671.175027683807	1
0	1721	673.518579083142	1
0	1723	675.006848409	2
0	1730	678.804951216927	1
0	1732	679.077555948683	2
0	1738	680.364850541573	2
0	1746	683.763830912162	1
0	1750	684.566407200242	2
0	1756	689.116104239169	2
0	1761	690.119431475667	3
0	1765	691.183019584745	2
0	1767	691.428033471539	3
0	1772	693.146054210339	1
0	1778	696.948304662476	1
0	1783	699.702249699357	1
0	1786	700.971696019155	2
0	1788	702.363719558782	3
0	1790	702.531885468368	4
0	1796	706.055403859731	1
0	1799	709.559642629345	1
0	1802	709.946255157682	1
0	1811	713.948790655104	1
0	1813	714.06306395198	2
0	1816	716.08924732445	2
0	1819	718.771826568582	2
0	1823	719.136989426204	3
0	1828	720.537067083163	4
0	1831	721.009124423725	5
0	1838	723.330578244136	6
0	1851	729.305856827972	3
0	1853	729.3270702872	4
0	1861	732.739623446085	2
0	1864	735.019676465156	2
0	1877	741.27982309363	1
0	1886	743.064168342234	1
0	1889	745.618255856567	1
0	1891	745.83433170651	2
0	1895	746.288624063355	1
0	1902	748.234146350511	2
0	1906	749.247109736246	2
0	1912	751.860083403736	2
0	1915	752.443837602981	2
0	1924	755.587912987095	2
0	1934	760.073402195398	1
0	1938	761.26762214266	2
0	1941	763.321324130705	3
0	1952	766.38000072467	4
0	1964	768.339158587936	4
0	1969	769.114433451779	5
0	1982	778.181030732533	1
0	1986	782.629958610898	2
0	1989	785.036088785915	3
0	1996	787.657700707211	1
0	1998	787.860581245336	2
0	2004	789.908770076218	3
0	2018	793.961508931186	3
0	2020	794.295031257383	4
0	2030	796.141709176524	4
0	2033	797.398088029897	4
0	2049	800.535572664999	1
0	2062	802.640281939938	2
0	2064	803.61647639537	3
0	2066	804.019374224072	4
0	2075	808.317734742604	4
0	2078	809.005767257141	4
0	2080	809.374537418303	5
0	2091	812.988896216177	4
0	2097	815.403540051935	5
0	2101	816.774773981482	5
0	2107	819.508245447695	4
0	2109	819.513704071037	5
0	2124	825.367386040471	3
0	2126	825.933579616319	4
0	2130	827.088873647987	5
0	2145	833.954282365994	3
0	2148	835.504930120396	3
0	2150	837.525410342688	4
0	2156	839.472990441519	5
0	2164	841.255419970788	5
0	2168	842.097411563358	6
0	2175	847.030798343871	6
0	2177	847.080774009669	7
0	2181	849.209718176746	6
0	2186	852.764086533315	7
0	2188	852.903441600003	8
0	2190	853.004199854847	9
0	2192	853.539790535556	10
0	2196	854.414702287559	11
0	2202	856.123179918488	11
0	2206	856.557200129895	12
0	2213	857.747565462946	13
0	2216	857.834804154747	14
0	2224	858.655399876624	15
0	2228	859.241703501436	16
0	2230	859.303690520576	17
0	2232	860.047667511704	18
0	2235	861.868636672125	18
0	2238	862.066737232364	18
0	2249	867.11902339332	16
0	2251	868.790265609749	17
0	2257	871.239092023623	17
0	2268	873.950529156103	18
0	2270	875.277382671769	19
0	2272	877.034911694425	20
0	2278	877.806972461083	19
0	2281	879.234907989454	20
0	2283	879.302646871823	21
0	2289	879.85916515567	21
0	2295	883.42381231282	22
0	2298	883.578495270125	23
0	2300	883.739940097257	24
0	2304	884.200154357976	24
0	2310	885.713034113394	24
0	2314	887.487663825246	25
0	2317	889.558715481745	26
0	2319	889.823009383882	27
0	2322	890.74348355719	27
0	2324	891.670007586715	28
0	2326	892.31543547923	29
0	2335	894.384251357493	29
0	2338	895.898262575642	29
0	2342	897.232977568578	30
0	2347	898.735246162488	31
0	2355	900.499516136796	32
0	2389	913.715820088268	26
0	2395	914.519379942142	26
0	2400	920.690059140863	27
0	2409	923.984286825741	27
0	2413	925.214742545416	26
0	2416	926.31893164756	26
0	2419	926.733204633734	26
0	2429	928.888294974115	27
0	2431	929.34045265367	28
0	2433	929.604834286519	29
0	2445	933.141869854671	27
0	2447	935.2091266259	28
0	2452	936.050008954039	29
0	2454	936.202881950052	30
0	2473	944.578922849898	26
0	2477	946.82426334201	25
0	2479	948.885819699385	26
0	2491	953.282770808984	26
0	2507	961.159608684677	22
0	2512	962.383102299377	23
0	2516	965.748587815785	22
0	2519	966.190360582643	22
0	2526	967.641861951424	23
0	2529	968.431181746389	24
0	2531	970.088956073246	25
0	2536	971.697081749505	25
0	2539	972.324092587574	26
0	2543	975.59817648277	25
0	2546	976.022812863762	25
0	2550	976.876534548895	26
0	2552	976.93750233759	27
0	2560	981.33026644	26
0	2562	981.912143028609	27
0	2565	983.012910280255	27
0	2573	985.748766984202	27
0	2582	989.92855513429	25
0	2588	992.565189040652	25
0	2590	992.800290952749	26
0	2594	993.580330376618	27
0	2596	993.774181872096	28
0	2598	994.213559967627	29
0	2605	996.397010475501	29
0	2608	999.54501738837	29
0	2611	1000.545740681427	29
0	2628	1006.212962271139	27
0	2638	1011.462803919848	25
0	2641	1012.692674232839	26
0	2644	1016.487919502537	26
0	2646	1016.898865536945	27
0	2648	1017.567730654061	28
0	2652	1018.645947766113	27
0	2654	1020.633054827474	28
0	2656	1022.491856748691	29
0	2668	1027.948442095445	28
0	2675	1028.804932902999	28
0	2679	1030.638012954688	29
0	2684	1031.602718911442	28
0	2691	1038.215754988629	26
0	2700	1039.532335845606	26
0	2702	1039.549479252307	27
0	2705	1040.367651546571	28
0	2707	1040.751457988102	29
0	2710	1043.425881542306	29
0	2712	1043.501450374703	30
0	2721	1045.833195916948	30
0	2725	1046.237599654082	31
0	2730	1048.258755763744	30
0	2745	1051.429949865929	26
0	2748	1051.573357132551	27
0	2750	1051.926349487098	28
0	2765	1057.794642908757	27
0	2768	1058.701470500938	28
0	2771	1061.45193731901	28
0	2774	1061.663003439456	28
0	2776	1062.227912862157	29
0	2778	1062.887580537124	30
0	2784	1064.007142837268	30
0	2787	1064.408884378885	30
0	2793	1067.44969097045	30
0	2795	1067.475107852062	31
0	2797	1068.466610001235	32
0	2800	1069.33928295128	32
0	2805	1072.341236355551	33
0	2810	1073.49208665482	34
0	2812	1073.589314982423	35
0	2817	1074.953691647271	36
0	2825	1080.650665983527	37
0	2830	1081.799549850363	38
0	2836	1084.320325665435	38
0	2842	1085.689990977321	38
0	2854	1089.442664641506	38
0	2859	1092.392859464667	39
0	2862	1093.731995167329	39
0	2867	1096.236766035066	40
0	2869	1097.388870132106	41
0	2874	1098.488244777858	42
0	2881	1100.015656286039	41
0	2885	1100.900212254743	40
0	2887	1100.998464212898	41
0	2890	1101.609856564317	41
0	2898	1105.946141075402	41
0	2903	1106.319861626792	40
0	2907	1109.517197879299	39
0	2909	1109.692627594975	40
0	2912	1110.455633962801	40
0	2914	1112.006691676593	41
0	2918	1115.952838117607	40
0	2924	1118.838995456283	40
0	2932	1123.879715481363	41
0	2935	1125.059721692865	41
0	2940	1126.170270757887	42
0	2942	1126.351415687446	43
0	2944	1126.752097515216	44
0	2946	1127.770752109494	45
0	2955	1129.562504801312	45
0	2960	1130.60328307547	45
0	2964	1134.095094107117	45
0	2974	1136.797371965499	44
0	2982	1140.238489858048	45
0	2984	1141.511338957761	46
0	2986	1142.110345352804	47
0	2994	1143.572310301156	48
0	3000	1146.422134358805	48
0	3004	1148.876766727007	47
0	3006	1149.471552909169	48
0	3011	1151.094526457679	49
0	3013	1151.826992576209	50
0	3015	1152.181627379352	51
0	3017	1152.269878400135	52
0	3022	1154.489310678947	53
0	3031	1156.008776854597	54
0	3038	1157.784128577095	55
0	3040	1157.789711545547	56
0	3046	1159.782371897518	56
0	3048	1160.517894324377	57
0	3066	1166.5004523298	56
0	3073	1168.170210757602	56
0	3075	1168.401638792165	57
0	3078	1170.386086257795	57
0	3081	1171.365733608369	57
0	3089	1174.63149131483	55
0	3091	1174.799851065566	56
0	3099	1177.6771434082	57
0	3104	1180.401993235297	55
0	3108	1183.641216624281	54
0	3115	1185.424249991793	53
0	3117	1185.814152114003	54
0	3119	1186.725979212014	55
0	3121	1188.171193982764	56
0	3129	1194.867142407677	54
0	3132	1196.016559652084	54
0	3137	1197.207235470176	54
0	3141	1198.462007080571	54
0	3144	1200.994787360122	54
0	3152	1205.875875701523	53
0	3155	1206.449428725249	54
0	3158	1207.253606928859	55
0	3165	1209.26101802797	54
0	3167	1209.888549864126	55
0	3171	1211.526141558805	54
0	3177	1213.552807626124	53
0	3181	1215.39403842442	53
0	3183	1215.755337145896	54
0	3189	1216.541824050026	54
0	3191	1217.628347074842	55
0	3195	1219.403782570576	54
0	3201	1221.698265497506	54
0	3205	1224.041852530846	53
0	3212	1225.620099169516	54
0	3215	1226.793234290915	55
0	3220	1228.283734986706	56
0	3222	1228.835354066871	57
0	3230	1229.572973298928	55
0	3248	1238.121332758251	52
0	3255	1243.485402523114	51
0	3273	1249.842043664371	51
0	3275	1250.28686941666	52
0	3278	1250.877929576529	52
0	3284	1251.328904949847	51
0	3286	1251.371217886018	52
0	3300	1256.577355824448	50
0	3307	1258.132940716216	51
0	3311	1259.046056460985	52
0	3313	1259.797856316524	53
0	3316	1265.739713104897	53
0	3318	1267.000648758136	54
0	3324	1269.62168936612	54
0	3332	1273.95505814264	54
0	3337	1276.044901653403	55
0	3339	1276.413999940665	56
0	3342	1276.53817357819	57
0	3347	1278.403664142801	57
0	3349	1278.482713516297	58
0	3362	1282.129241014604	58
0	3364	1282.14118274197	59
0	3370	1285.956478635665	59
0	3386	1290.038878670903	58
0	3390	1290.901039643996	57
0	3396	1295.963216725476	54
0	3398	1296.197068812266	55
0	3409	1299.798741122475	56
0	3413	1302.309889552289	55
0	3416	1303.127237927532	55
0	3421	1303.694780629527	55
0	3424	1304.631400600844	56
0	3429	1306.704596711108	56
0	3432	1308.009850267343	57
0	3435	1311.11818915469	57
0	3439	1312.993998597268	56
0	3451	1320.02785277146	55
0	3455	1322.144188468872	55
0	3457	1322.289578294901	56
0	3464	1325.15666689933	57
0	3481	1331.019789566279	56
0	3486	1333.35433266915	54
0	3493	1336.052015273709	52
0	3509	1338.490919395571	53
0	3519	1342.770381313884	53
0	3521	1342.798365111047	54
0	3523	1342.879856484531	55
0	3526	1344.498594046137	56
0	3533	1346.85677001284	55
0	3535	1347.128805392769	56
0	3537	1347.865767927662	57
0	3539	1347.997146409508	58
0	3550	1354.830430329574	56
0	3556	1355.433748902918	57
0	3561	1356.844421983629	57
0	3567	1358.935949643761	58
0	3569	1359.148387229201	59
0	3577	1364.490502441351	59
0	3581	1365.936357913071	58
0	3583	1366.520352167948	59
0	3590	1371.774267420354	55
0	3596	1373.596713238932	55
0	3598	1373.762206160407	56
0	3606	1375.628368187952	57
0	3609	1378.876390091411	57
0	3612	1380.412328105137	57
0	3614	1382.536984413436	58
0	3621	1383.611737568549	59
0	3631	1387.35196107029	59
0	3635	1390.129080018344	58
0	3637	1390.698331582086	59
0	3642	1391.207483058473	59
0	3644	1391.246551144853	60
0	3660	1395.49460625271	59
0	3662	1395.520804447174	60
0	3665	1398.655767657642	61
0	3673	1402.476821791954	62
0	3685	1404.544025066659	62
0	3701	1414.307816941437	60
0	3709	1415.302600018713	60
0	3719	1417.864894583678	60
0	3730	1423.884951835939	59
0	3734	1425.012039983107	60
0	3739	1426.409812500352	59
0	3744	1427.528579633253	59
0	3747	1427.918575256614	60
0	3751	1428.97324142951	61
0	3753	1429.203159130172	62
0	3769	1435.523314966227	62
0	3771	1435.596452545249	63
0	3774	1437.451476724046	63
0	3778	1438.158259966993	62
0	3781	1438.53859450181	62
0	3791	1440.874529863386	61
0	3793	1441.366807155548	62
0	3795	1444.749010532011	63
0	3801	1447.716940905297	63
0	3812	1453.04565980692	61
0	3814	1453.07373590117	62
0	3820	1455.376758293878	62
0	3828	1459.289912313607	63
0	3830	1459.306075296837	64
0	3832	1460.383388223563	65
0	3848	1463.78101320505	62
0	3855	1464.699312439234	63
0	3857	1465.058401230704	64
0	3862	1467.068176435692	65
0	3865	1468.598593178298	65
0	3870	1470.385688796455	66
0	3874	1473.250237440789	65
0	3879	1474.160962628058	66
0	3881	1474.198176410398	67
0	3885	1474.459922092898	68
0	3888	1476.05185919433	69
0	3895	1481.270949645226	68
0	3897	1481.893387682449	69
0	3903	1484.829490346352	68
0	3905	1485.020426967179	69
0	3911	1487.496169535417	70
0	3916	1489.844262244087	71
0	3920	1490.153091802612	72
0	3923	1492.139583628438	73
0	3925	1492.308008249002	74
0	3927	1492.953309589323	75
0	3930	1494.177606539687	75
0	3940	1499.295008142566	71
0	3943	1501.993049974739	71
0	3955	1508.245499344497	68
0	3959	1510.282672183251	69
0	3967	1511.680399787993	68
0	3981	1515.806471634206	66
0	3983	1516.050153647108	67
0	3988	1517.006833274627	68
0	3996	1519.647584372699	68
0	4002	1520.261163765066	68
0	4012	1524.240244170335	68
0	4014	1524.729880992695	69
0	4023	1527.668690883565	69
0	4025	1528.183391512036	70
0	4027	1528.301039101841	71
0	4036	1533.986255223951	68
0	4040	1534.273710967769	69
0	4042	1535.052015275658	70
0	4050	1537.992647159377	69
0	4052	1538.873136616773	70
0	4054	1539.670287696071	71
0	4057	1541.32755574501	71
0	4059	1542.165620757063	72
0	4064	1544.298058778316	70
0	4066	1544.674350142072	71
0	4068	1545.070148145168	72
0	4092	1557.261829061913	66
0	4095	1559.157729043292	66
0	4100	1560.115312028254	67
0	4103	1561.04085342497	67
0	4106	1561.957137844222	67
0	4108	1562.621670317134	68
0	4110	1562.666415629151	69
0	4116	1564.787453952905	69
0	4121	1565.099245122739	70
0	4124	1566.719396122839	70
0	4133	1572.421364011788	69
0	4137	1573.200489103453	69
0	4139	1574.104606044747	70
0	4141	1574.231025049473	71
0	4143	1575.056086791249	72
0	4145	1575.235069281216	73
0	4155	1579.901487716194	71
0	4158	1580.103434303053	72
0	4166	1583.507621290404	73
0	4177	1589.637139616221	70
0	4184	1589.9873655074	71
0	4193	1591.614144580727	70
0	4195	1592.421445699952	71
0	4205	1593.509998835368	71
0	4207	1593.794758707616	72
0	4215	1596.282843909346	72
0	4218	1597.829538462456	72
0	4220	1598.118386420658	73
0	4237	1602.548904675296	71
0	4243	1604.050540107821	71
0	4245	1604.84176077192	72
0	4247	1606.131250894558	73
0	4250	1606.245855612902	73
0	4252	1606.568667694318	74
0	4258	1607.0545026011	75
0	4262	1609.443660837017	76
0	4268	1612.904201513196	73
0	4270	1614.201872206244	74
0	4287	1619.847418562659	72
0	4290	1620.970263634213	72
0	4292	1621.173611193523	73
0	4304	1626.168013793251	70
0	4306	1626.22774312992	71
0	4308	1627.268252284208	72
0	4311	1627.390392466215	72
0	4316	1628.989976536926	73
0	4318	1629.535859716486	74
0	4331	1633.418095513336	73
0	4335	1633.686692576713	74
0	4338	1633.826647922819	75
0	4343	1636.423209648418	76
0	4346	1638.501046019713	76
0	4356	1644.337329853138	71
0	4358	1644.601867025538	72
0	4363	1645.013512809403	73
0	4366	1647.70569248321	74
0	4379	1653.351967160507	73
0	4388	1655.807594505253	70
0	4391	1658.068313324982	70
0	4393	1658.236443670376	71
0	4396	1660.546437540089	71
0	4404	1662.613088115553	69
0	4406	1663.470139867772	70
0	4409	1663.743747908164	70
0	4415	1665.362999155665	71
0	4417	1665.544040613521	72
0	4419	1665.595966769492	73
0	4432	1673.304594262975	74
0	4439	1675.342974609509	75
0	4442	1676.328806242961	76
0	4447	1678.094439041674	77
0	4474	1686.683735425902	70
0	4481	1688.398136550736	71
0	4497	1693.248531350751	71
0	4499	1693.397493238126	72
0	4503	1695.404586887902	72
0	4510	1697.07784363758	71
0	4512	1697.127756748721	72
0	4514	1698.695407513163	73
0	4516	1698.774028705061	74
0	4523	1700.216113828939	73
0	4525	1701.865798476459	74
0	4527	1702.122568858331	75
0	4531	1703.847581337683	74
0	4538	1706.767982718315	73
0	4540	1706.85277037505	74
0	4542	1707.342166387536	75
0	4547	1710.214124242692	76
0	4549	1711.714321326392	77
0	4551	1711.81641355976	78
0	4553	1712.040293766266	79
0	4557	1714.556393833871	78
0	4561	1716.988192402725	77
0	4570	1719.435437257435	77
0	4576	1721.979325208783	77
0	4589	1732.205491730313	76
0	4597	1735.767537907564	74
0	4601	1736.867755319808	75
0	4607	1740.113880496726	76
0	4615	1742.867730859522	76
0	4618	1744.323762073127	77
0	4621	1747.144317565438	77
0	4625	1747.848669081426	78
0	4627	1748.122028926523	79
0	4646	1756.183526493482	78
0	4649	1756.491215094075	79
0	4651	1758.247107909798	80
0	4655	1759.822634017326	79
0	4657	1760.014547556851	80
0	4659	1760.07466099497	81
0	4662	1761.504604160412	81
0	4664	1763.705695389582	82
0	4666	1763.755904720452	83
0	4681	1766.493405548299	83
0	4698	1773.247938623593	81
0	4700	1773.9467357036	82
0	4705	1774.515587043148	83
0	4707	1774.769538081809	84
0	4715	1781.786964330959	82
0	4717	1782.563292406651	83
0	4719	1783.122485271465	84
0	4721	1784.257958262697	85
0	4723	1784.355314995011	86
0	4729	1784.96445624643	86
0	4734	1787.366401417704	87
0	4737	1789.784524620055	87
0	4739	1790.684762290766	88
0	4742	1790.910102081216	88
0	4744	1792.443791931672	89
0	4749	1793.540050550071	90
0	4751	1794.406717796457	91
0	4753	1795.282629095144	92
0	4755	1795.473476112162	93
0	4757	1795.518737522356	94
0	4759	1796.173583915711	95
0	4762	1798.270747671153	95
0	4764	1799.183940828623	96
0	4774	1802.147227594155	95
0	4777	1803.826666104191	95
0	4780	1806.003686404949	95
0	4782	1806.355678937257	96
0	4791	1810.107921880233	96
0	4798	1811.735842942412	97
0	4807	1814.602872523364	95
0	4813	1817.963884894547	95
0	4816	1818.707120652843	95
0	4826	1820.649115875384	96
0	4828	1820.919726991721	97
0	4831	1822.861689104702	98
0	4836	1823.333130609282	99
0	4840	1823.940715261275	100
0	4844	1824.383474187639	101
0	4864	1832.780792800297	101
0	4869	1833.986309827399	102
0	4880	1836.062983962679	97
0	4885	1838.817253663934	97
0	4888	1839.117567263423	98
0	4895	1840.723480784211	99
0	4903	1843.322736527724	100
0	4910	1846.941893680324	100
0	4927	1856.883182919237	89
0	4952	1869.604968813532	84
0	4955	1871.872240823255	85
0	4964	1875.539168897841	82
0	4968	1877.291661648788	81
0	4992	1884.242080954002	78
0	4994	1885.735857662662	79
0	5001	1889.123659913547	75
0	5003	1889.965403100889	76
0	5005	1891.625169869323	77
0	5007	1891.925457050024	78
0	5009	1892.863555993043	79
0	5020	1898.42401121102	77
0	5026	1901.205345289152	77
0	5028	1904.083795521649	78
0	5030	1904.942393014352	79
0	5032	1908.140023852161	80
0	5034	1908.292366973993	81
0	5037	1911.891338632688	81
0	5039	1913.111583146139	82
0	5043	1915.084444978813	81
0	5045	1915.734013491541	82
0	5050	1919.23656540947	83
0	5052	1920.662512807705	84
0	5061	1922.859322246388	83
0	5065	1923.66402751385	83
0	5067	1925.206356467414	84
0	5069	1925.334083195731	85
0	5077	1929.893330956133	85
0	5079	1930.167656600646	86
0	5083	1930.755466332498	86
0	5095	1935.117368571508	86
0	5097	1935.766807665478	87
0	5099	1938.234348020368	88
0	5101	1939.007844857544	89
0	5114	1942.067343062337	87
0	5118	1942.73325821037	88
0	5122	1944.02846852712	89
0	5137	1948.828975782239	90
0	5142	1950.879375900159	90
0	5154	1957.127283979733	87
0	5166	1961.445871991753	87
0	5168	1961.733805673186	88
0	5175	1963.685910489666	87
0	5183	1967.096178205995	88
0	5196	1972.164653436443	87
0	5198	1972.257503206142	88
0	5206	1975.194750588425	88
0	5208	1975.236317572725	89
0	5211	1975.690277243229	90
0	5213	1976.812417952715	91
0	5215	1976.904707226262	92
0	5217	1976.927740789251	93
0	5219	1977.041365025216	94
0	5221	1977.434939648894	95
0	5223	1978.806328902474	96
0	5226	1981.317738217962	96
0	5229	1981.626455555744	96
0	5231	1981.709982501466	97
0	5236	1983.134967675906	97
0	5250	1988.266953698576	96
0	5252	1988.793163388087	97
0	5254	1990.114719823076	98
0	5256	1990.352161458254	99
0	5258	1991.449056876234	100
0	5265	1995.098805485784	99
0	5270	1996.513972682092	99
0	5273	1997.193729030735	100
0	5278	1998.546142172252	100
0	5281	1998.677670807634	101
0	5283	1999.439164861834	102
0	5285	1999.53817341987	103
0	5287	1999.863375706023	104
1	0	0	0
1	2	0.883167411662	0
1	6	1.306402827847	1
1	11	2.038994503491	2
1	13	2.222040323267	3
1	16	2.87420018368	4
1	17	5.384747668116	4
1	24	6.86351949178	3
1	26	8.483972859054	3
1	39	11.973802773116	4
1	41	13.53936471762	4
1	42	13.770563419144	3
1	44	14.623923981338	3
1	48	15.955239982483	4
1	52	16.773688280528	5
1	58	19.261749069729	6
1	61	20.162145930689	7
1	63	20.326702099888	8
1	67	24.836271674114	9
1	69	26.104337158545	9
1	74	27.867894059497	9
1	78	28.138321766422	10
1	80	29.692748980396	10
1	82	29.728847617941	10
1	83	29.735706485038	10
1	87	31.605134211662	10
1	90	31.944720891995	11
1	91	32.488491998079	11
1	92	32.790923220529	10
1	94	32.809633189158	10
1	98	34.671450659162	11
1	101	36.312430196797	12
1	102	36.845831849224	12
1	104	37.049463636515	12
1	106	38.614414270905	13
1	108	38.913082383245	14
1	109	42.087162791775	14
1	110	42.178096530278	13
1	112	45.177816230671	13
1	114	45.259255956255	14
1	115	47.209912198241	14
1	116	47.634198772849	13
1	118	47.929117886535	13
1	119	51.182647451092	13
1	126	52.966696398956	12
1	128	53.943052656265	12
1	129	54.002843766484	12
1	130	54.208825310545	11
1	132	54.407888033699	11
1	134	55.531750691443	12
1	135	56.628432001493	12
1	136	56.829206375244	11
1	137	57.236136794999	10
1	141	58.14469803443	9
1	149	60.944519500557	9
1	156	65.153846877094	9
1	158	65.383508256054	9
1	160	67.312019354844	10
1	161	68.321437799592	10
1	169	69.70420386821	10
1	171	69.870318404821	11
1	173	70.552632878296	12
1	174	70.579556441746	12
1	175	72.019112573759	11
1	177	72.767116491374	11
1	184	74.703658284391	12
1	194	75.749388667938	13
1	197	77.749838758046	13
1	199	77.888296342372	13
1	201	79.206213773185	14
1	202	79.353242031191	14
1	209	80.144716140251	13
1	214	82.205119829885	13
1	216	82.260709177928	14
1	220	86.365313029999	14
1	222	88.11402078933	14
1	223	88.508590250367	14
1	225	89.248934687544	14
1	238	91.487376896919	15
1	240	91.860123483129	15
1	245	92.43199458502	15
1	249	95.314573766818	15
1	250	95.564810686704	14
1	252	96.286513031332	14
1	254	96.504577365642	15
1	255	97.381915581904	15
1	257	97.579587631695	15
1	264	99.575726836388	15
1	265	101.500961262676	14
1	272	103.022555743972	13
1	274	103.465374193439	13
1	275	103.751834866859	13
1	277	103.90077292562	13
1	282	106.383885141688	14
1	283	106.459325983635	14
1	285	108.638366862131	14
1	289	109.432467689628	14
1	293	111.208559489973	13
1	298	113.922453870716	13
1	300	114.311025054466	14
1	301	114.496066294298	14
1	312	116.182456731273	14
1	314	116.501978014402	15
1	316	117.272040118792	16
1	317	117.719011110213	16
1	318	118.704026010354	15
1	319	118.752683822623	14
1	320	119.550599435508	13
1	322	121.108354370697	13
1	324	122.16226733866	14
1	325	122.346244920949	14
1	326	122.647801602218	13
1	327	122.833215631711	12
1	328	123.734738148005	11
1	330	124.080996530602	11
1	332	124.303729097881	12
1	334	124.712214466958	13
1	336	125.066903363929	14
1	337	125.6817994289	14
1	338	126.439562520478	13
1	340	126.936316798005	13
1	341	127.398753048046	13
1	349	130.660098850887	13
1	350	131.798848447559	13
1	351	132.057538578606	12
1	353	132.603237666535	12
1	355	133.142651223514	13
1	357	133.666440577019	14
1	359	135.510756608019	15
1	361	136.045681116338	16
1	366	137.089475364477	17
1	367	137.271022706946	17
1	369	137.426353801813	17
1	370	137.428359250575	17
1	372	137.635263163796	17
1	379	139.545756323158	17
1	386	141.068057556237	16
1	391	142.290193844691	16
1	392	143.019469409545	16
1	396	143.028508664532	16
1	405	145.579294681119	17
1	409	145.829947703288	18
1	412	147.316072690678	19
1	413	148.429593308105	19
1	418	150.211324906688	19
1	420	150.343132273506	20
1	427	152.501183917295	20
1	428	152.675274310747	19
1	430	152.858620241099	19
1	431	153.066467548247	19
1	433	153.103334302211	19
1	434	155.448055013989	19
1	441	157.240122496528	18
1	443	157.244967434442	18
1	444	157.827930097499	18
1	446	158.312714306168	18
1	447	158.594652717498	18
1	448	158.701183137815	17
1	449	158.929060263959	16
1	450	159.125566582473	15
1	452	159.496380618253	15
1	459	161.130254470395	15
1	460	161.743393854842	14
1	461	162.32446948076	13
1	463	162.533317676406	13
1	464	162.853030389196	13
1	466	162.9170774997	13
1	473	164.135874408239	14
1	475	165.35606150649	14
1	480	166.81630666931	14
1	485	167.669162332834	15
1	493	170.163668707471	16
1	494	170.185581937756	16
1	498	170.332171879335	15
1	500	171.890062786506	15
1	502	171.964119707089	16
1	503	171.985161046707	16
1	504	172.961615443553	15
1	511	174.330135783801	14
1	512	176.817719494579	13
1	514	177.271633342278	13
1	518	180.000165198503	13
1	520	180.172908776185	13
1	521	181.68429589515	13
1	523	183.4458062775	13
1	527	183.667430205315	14
1	532	185.214717978784	14
1	534	185.895499817465	14
1	535	188.430614526562	14
1	536	188.716745192632	13
1	537	189.213875967862	12
1	541	190.522031783838	12
1	543	190.832653025298	13
1	546	191.373925211934	14
1	547	191.887477209944	14
1	548	192.132551813295	13
1	550	192.829597424103	13
1	551	192.95640964115	13
1	553	194.735247471744	13
1	554	195.257208513156	13
1	555	195.725885457919	12
1	556	195.777832002017	11
1	558	196.667840373159	11
1	563	198.370469163274	12
1	568	199.72839342695	13
1	570	200.061775263343	14
1	574	203.005834188449	14
1	575	203.343966569133	13
1	577	204.254882225162	13
1	579	205.162648178523	14
1	581	205.444469468314	15
1	583	205.79167417583	16
1	587	207.053952663077	16
1	588	207.831152103636	15
1	589	208.436642580158	14
1	590	209.196034200147	13
1	592	209.270321850463	13
1	593	209.798816267901	13
1	595	212.476197509479	13
1	597	213.162845878236	14
1	599	213.737697794889	15
1	601	215.917205468246	16
1	602	216.026930222531	16
1	606	217.22529890979	15
1	613	221.043376998996	14
1	614	221.437344763128	13
1	615	221.449941262617	12
1	617	221.86433583234	12
1	619	221.924331047901	13
1	623	224.278836692245	13
1	625	224.538695800963	13
1	626	224.656352395239	13
1	627	228.037232021005	12
1	629	228.685056367806	12
1	631	228.80566878386	13
1	632	229.498293095207	13
1	636	230.087435845363	13
1	638	230.261268380576	13
1	640	230.529900391283	13
1	641	231.03114023308	13
1	643	231.147197849817	13
1	645	231.517782222903	14
1	655	235.201055421593	14
1	657	235.307145016316	14
1	659	235.824669570262	15
1	666	237.450714006662	16
1	668	239.132800494283	16
1	669	239.628139500237	15
1	670	240.908846925551	14
1	671	241.082019905495	13
1	675	241.770204344171	12
1	682	243.556511830646	12
1	684	244.340326689662	13
1	687	245.905459318693	14
1	688	246.558609330259	14
1	693	246.83513314652	14
1	694	247.318796664115	14
1	698	248.313094164828	14
1	700	249.048832093632	15
1	703	249.837597873282	16
1	704	253.407698127823	16
1	709	254.600201269691	16
1	717	256.281547136285	17
1	718	256.696795913962	17
1	719	257.825951528594	16
1	723	258.639918406659	15
1	725	260.11047257522	15
1	726	260.34611849544	15
1	727	260.790796829212	14
1	731	262.340449880449	13
1	732	263.177148167464	12
1	734	263.536453539264	12
1	735	263.889464458826	12
1	737	264.154806353003	12
1	738	264.39113136305	12
1	739	264.423554492539	11
1	740	265.078378034942	10
1	742	265.354935488629	10
1	746	265.817424569469	11
1	748	266.129482368712	11
1	758	269.353265009457	11
1	764	270.424381565368	12
1	765	271.445593645895	12
1	767	272.685141032448	12
1	768	272.883404000965	12
1	770	274.665303189665	12
1	774	276.187000786814	12
1	784	278.926052038436	11
1	785	279.575661934421	10
1	787	280.777622167593	10
1	788	281.546874678504	10
1	789	281.971883883456	9
1	790	283.02003293714	8
1	792	283.914804998572	8
1	793	284.291377000928	8
1	798	285.929759105022	8
1	799	286.995728644489	8
1	800	288.322826782249	7
1	801	289.596853286867	6
1	802	290.769944227036	5
1	807	293.388052427878	5
1	811	296.304686220803	5
1	815	297.131970456396	5
1	823	301.488635353025	5
1	824	301.582884289861	4
1	825	301.829459975712	3
1	827	301.874861172053	3
1	829	302.077579083374	4
1	831	302.53475091161	5
1	833	302.61744474475	6
1	834	303.143040905325	6
1	838	304.05426283425	6
1	840	304.27674779491	7
1	843	305.388715172972	8
1	844	306.361486993541	8
1	845	306.488757039855	7
1	846	307.546167448891	6
1	847	308.193405512418	5
1	848	308.237582147966	4
1	850	309.01161093484	4
1	851	310.154787768881	4
1	853	310.277299132044	4
1	855	310.313564934408	5
1	857	310.316682808806	6
1	859	310.768616315363	7
1	860	311.321146594684	7
1	862	311.603703501494	7
1	864	311.887292582425	8
1	866	312.019929585576	9
1	868	312.602023810331	10
1	873	313.657067584641	11
1	874	314.076837116451	11
1	878	315.211641751705	10
1	880	315.238494753443	10
1	881	316.843209425597	10
1	883	319.042266737578	10
1	884	321.229836034249	10
1	885	321.72553402299	9
1	886	322.269884352054	8
1	891	322.716586363501	8
1	892	322.904370310796	8
1	893	323.823065511202	7
1	894	326.532793154752	6
1	895	326.603432514138	5
1	896	327.036975381321	4
1	897	327.139243451569	3
1	899	327.174341239296	3
1	900	327.860781502965	3
1	905	330.033501730268	3
1	906	331.064194096792	3
1	907	331.243870617361	2
1	912	333.482466195881	2
1	913	335.306529295936	2
1	923	337.413064743394	2
1	929	338.766146907111	3
1	936	340.748766000507	3
1	942	342.245511568154	3
1	944	342.616146616631	4
1	948	344.216340472924	5
1	950	344.439088789062	6
1	952	344.444502547558	7
1	954	345.005331603447	8
1	955	345.799467089761	8
1	957	346.142020932641	8
1	958	346.911205335284	8
1	962	347.503083394231	7
1	966	348.178444714213	6
1	967	348.385886850466	5
1	971	349.223159472061	5
1	976	350.744652702344	6
1	978	353.695291849006	6
1	979	355.215063160348	5
1	981	355.62080731002	5
1	983	355.698153181987	6
1	985	355.819070494439	7
1	986	357.764996174666	7
1	987	357.873057278854	6
1	989	359.219252135442	6
1	993	362.111905108486	7
1	995	362.89840676498	7
1	999	363.823650537826	6
1	1001	363.832727827235	6
1	1002	363.982755902544	6
1	1003	364.127015489277	5
1	1005	364.779162928776	5
1	1006	365.203070565657	5
1	1007	365.331322333969	4
1	1008	366.068391434124	3
1	1010	367.222264516516	3
1	1011	367.462255871972	3
1	1012	368.334033846089	2
1	1013	368.522500496342	1
1	1014	368.578272108256	0
1	1019	370.28433852579	0
1	1021	372.035841834037	1
1	1023	372.64308878848	2
1	1031	375.472986057638	3
1	1032	376.720943629442	3
1	1034	376.958568692744	3
1	1039	380.424993022083	4
1	1043	381.100234432123	4
1	1045	381.349376498691	4
1	1046	381.416971880828	4
1	1048	381.552508117479	4
1	1050	382.472935566131	5
1	1052	382.718822942225	6
1	1056	384.234247467874	6
1	1057	384.623802709435	5
1	1066	387.275612379195	5
1	1068	387.945476291725	6
1	1072	389.808055346362	7
1	1073	391.852120059545	7
1	1077	392.246020762846	7
1	1080	394.046112377562	8
1	1087	398.267255836223	9
1	1089	398.373576566158	9
1	1090	399.144429970373	8
1	1094	400.273758830892	8
1	1096	400.401425446215	9
1	1098	400.636659387863	10
1	1101	402.098210898766	11
1	1103	402.311412213681	12
1	1104	402.397168335321	12
1	1105	402.714242931417	11
1	1109	402.765257731203	11
1	1114	405.422031856724	11
1	1122	409.255373938936	11
1	1126	409.95373379069	11
1	1127	409.973933508566	10
1	1131	411.682030703089	9
1	1132	413.039710416944	8
1	1133	414.1611564853	7
1	1141	415.405323928343	7
1	1151	417.102039171802	8
1	1154	418.359083715246	9
1	1155	418.510112912457	9
1	1156	420.703204967319	8
1	1160	422.564088739527	7
1	1161	425.253670781254	6
1	1163	425.610089105675	6
1	1164	426.749246292021	6
1	1168	427.520784195465	6
1	1171	429.593614107724	7
1	1172	431.578536243619	7
1	1176	434.548228909511	6
1	1178	434.776683305057	6
1	1180	435.833923073015	7
1	1182	436.721384922276	8
1	1186	438.357026981507	8
1	1187	438.765628796433	7
1	1188	439.222588949787	6
1	1189	440.029043465374	5
1	1196	443.881004590019	4
1	1203	445.744383523336	3
1	1205	446.316531010183	3
1	1209	449.189221598319	4
1	1217	453.110520034404	4
1	1219	453.529093767463	4
1	1221	455.275256648913	5
1	1222	455.450085580248	5
1	1224	458.486135565389	5
1	1225	459.093663762819	5
1	1227	459.586634989217	5
1	1229	460.809047569462	6
1	1231	461.625292709421	7
1	1233	461.805274539975	8
1	1235	461.89083401603	9
1	1236	463.194646188816	9
1	1243	464.331482928013	9
1	1254	466.14637716611	9
1	1256	466.793827612619	9
1	1263	468.884020670371	9
1	1264	470.204048311376	8
1	1266	471.6269637247	8
1	1267	472.835947630321	8
1	1268	473.008192847425	7
1	1276	475.919526866697	7
1	1280	476.391772371428	8
1	1282	476.728617076292	9
1	1285	476.97756825021	10
1	1287	477.343924477814	11
1	1288	478.579060015297	11
1	1289	480.00098480487	10
1	1296	481.18972727727	10
1	1305	483.877307060544	11
1	1306	484.284165891015	11
1	1311	485.250812324338	11
1	1312	485.798867327301	11
1	1316	486.912537773853	11
1	1318	487.649606354904	11
1	1320	489.556461056812	11
1	1324	491.35302258028	12
1	1329	492.785665373627	13
1	1334	494.26203066952	13
1	1335	494.380597417485	12
1	1337	494.453682627469	12
1	1338	494.788485479069	12
1	1339	495.038128724308	11
1	1344	497.296531666602	11
1	1351	499.373514665915	11
1	1352	499.517919025481	10
1	1353	500.236432894992	9
1	1355	501.252829109883	9
1	1356	502.404962596612	9
1	1357	502.792267285949	8
1	1358	502.909906654099	7
1	1360	503.024142207942	7
1	1368	508.149394865041	8
1	1370	510.548041405306	9
1	1372	511.631119738045	10
1	1376	514.308649936048	10
1	1380	516.480875164826	9
1	1385	518.51509055554	9
1	1392	520.748975617448	10
1	1395	521.292095763898	11
1	1397	522.094556901951	12
1	1399	522.787590071934	13
1	1401	522.862515581974	14
1	1403	524.673480344347	15
1	1404	527.078981928775	15
1	1406	527.438581570214	15
1	1407	529.413621798334	15
1	1408	531.825932702868	14
1	1410	533.07091332854	14
1	1411	533.81617927773	14
1	1412	535.428813681056	13
1	1413	535.554370843952	12
1	1414	536.200487321179	11
1	1416	536.22808510145	11
1	1421	537.432016821181	12
1	1423	537.721820656914	13
1	1427	538.165756736804	14
1	1429	538.57258316401	14
1	1431	538.881399345891	14
1	1435	541.207639061283	14
1	1436	541.437529163994	13
1	1437	542.290975847748	12
1	1438	542.503842120626	11
1	1439	544.398799691525	10
1	1453	548.295189934937	10
1	1457	554.470907537831	10
1	1459	554.506952756169	10
1	1460	554.606795879641	10
1	1461	555.665761179834	9
1	1465	557.884947762662	8
1	1467	557.901523669797	8
1	1468	558.116124041871	8
1	1470	558.214861923054	8
1	1471	559.290248144873	8
1	1473	559.570310603553	8
1	1477	562.821289111779	8
1	1484	566.720948561982	7
1	1486	567.333805994147	7
1	1487	568.31821166461	7
1	1488	568.644384256848	6
1	1489	569.089011271751	5
1	1493	569.890656698012	4
1	1497	571.801257415665	3
1	1499	572.772157593119	3
1	1503	572.99832673931	3
1	1504	573.990113815416	2
1	1505	575.409444453179	1
1	1507	575.899970418017	1
1	1508	576.41390601686	1
1	1509	576.519777131241	0
1	1511	578.212103847936	0
1	1513	578.432472451781	1
1	1515	578.456327786761	2
1	1519	580.489013151228	2
1	1521	580.668962688308	2
1	1522	580.83420354962	2
1	1524	581.076437920034	2
1	1531	583.943475770217	2
1	1532	586.345380963174	1
1	1533	586.396456083433	0
1	1544	588.95671942853	0
1	1546	589.141758988848	1
1	1550	592.188674827349	1
1	1554	592.865435378369	0
1	1556	593.360714056226	0
1	1560	594.411231773116	0
1	1565	596.100170510564	0
1	1566	596.808528702557	0
1	1568	596.980005352172	0
1	1569	597.057579489441	0
1	1574	598.342663548126	0
1	1575	598.763518757458	0
1	1577	598.948041237865	0
1	1581	601.916802462587	0
1	1583	602.143341469672	0
1	1590	604.973888908584	0
1	1592	607.397137138349	0
1	1593	607.60084316111	0
1	1606	611.054844024392	0
1	1615	616.522557935605	1
1	1616	616.590558291194	1
1	1618	617.204891661867	1
1	1620	618.119756075049	2
1	1625	621.458947967569	3
1	1627	622.135531426682	4
1	1628	623.105624450908	4
1	1630	624.249148655021	4
1	1631	624.624018425199	4
1	1633	626.314501530726	4
1	1637	628.603116134167	4
1	1638	629.392826137612	3
1	1639	630.447596083918	2
1	1641	631.348908245143	2
1	1642	631.454010733479	2
1	1643	631.524379275882	1
1	1644	632.400742824039	0
1	1646	634.064818896598	0
1	1648	634.220139068153	1
1	1653	635.023320115734	2
1	1654	635.872510806176	2
1	1655	637.116168930656	1
1	1656	637.530374921111	0
1	1661	638.557305821615	0
1	1663	638.625012449404	1
1	1665	640.006299244416	2
1	1666	640.10279511414	2
1	1671	642.439994130522	2
1	1672	642.987020547325	2
1	1679	653.363504197441	1
1	1681	655.195246156579	1
1	1683	656.080187512714	2
1	1684	657.740043719471	2
1	1688	658.612644013401	2
1	1691	661.23475024645	3
1	1692	662.057104730297	3
1	1693	662.620831265702	2
1	1695	663.627965348055	2
1	1696	663.664055825759	2
1	1700	664.513348691938	1
1	1704	665.434503447895	0
1	1712	668.716177944717	0
1	1713	670.367208234727	0
1	1715	671.175027683807	0
1	1719	672.593969635414	0
1	1721	673.518579083142	0
1	1723	675.006848409	1
1	1724	676.129877442148	1
1	1725	676.226837659675	0
1	1730	678.804951216927	0
1	1732	679.077555948683	1
1	1733	679.348886004598	1
1	1738	680.364850541573	1
1	1739	680.69672992201	1
1	1740	682.56377344618	0
1	1746	683.763830912162	0
1	1750	684.566407200242	1
1	1754	687.20459294054	1
1	1756	689.116104239169	1
1	1761	690.119431475667	2
1	1762	690.948979785529	2
1	1763	691.092360892251	1
1	1765	691.183019584745	1
1	1767	691.428033471539	2
1	1768	691.438316398264	2
1	1769	691.58298780685	1
1	1770	691.819788582437	0
1	1772	693.146054210339	0
1	1773	693.693789112876	0
1	1778	696.948304662476	0
1	1779	696.954330383189	0
1	1783	699.702249699357	0
1	1786	700.971696019155	1
1	1788	702.363719558782	2
1	1790	702.531885468368	3
1	1791	702.637519376139	3
1	1792	703.244871187446	2
1	1793	703.901222632669	1
1	1794	704.95411163053	0
1	1796	706.055403859731	0
1	1797	706.447923827912	0
1	1799	709.559642629345	0
1	1800	709.777049587114	0
1	1802	709.946255157682	0
1	1803	710.176009590458	0
1	1811	713.948790655104	0
1	1813	714.06306395198	1
1	1814	715.003243474366	1
1	1816	716.08924732445	1
1	1817	717.310704449568	1
1	1819	718.771826568582	1
1	1823	719.136989426204	2
1	1828	720.537067083163	3
1	1831	721.009124423725	4
1	1838	723.330578244136	5
1	1840	723.584627008587	5
1	1841	723.931598491641	4
1	1845	725.222685296187	3
1	1849	728.352845166803	2
1	1851	729.305856827972	2
1	1853	729.3270702872	3
1	1857	731.610711630532	3
1	1858	731.698830612433	2
1	1859	732.676323271634	1
1	1861	732.739623446085	1
1	1862	733.845246002578	1
1	1864	735.019676465156	1
1	1871	737.622290053543	1
1	1872	737.795727215163	0
1	1877	741.27982309363	0
1	1878	741.462699291409	0
1	1886	743.064168342234	0
1	1887	743.373308424719	0
1	1889	745.618255856567	0
1	1891	745.83433170651	1
1	1892	746.101032870789	1
1	1893	746.256589167296	0
1	1895	746.288624063355	0
1	1902	748.234146350511	1
1	1904	749.228144857183	1
1	1906	749.247109736246	1
1	1907	751.109318158987	1
1	1912	751.860083403736	1
1	1913	751.905904449203	1
1	1915	752.443837602981	1
1	1916	753.324107367158	1
1	1924	755.587912987095	1
1	1928	757.711786509302	1
1	1929	759.564748802404	0
1	1934	760.073402195398	0
1	1938	761.26762214266	1
1	1941	763.321324130705	2
1	1952	766.38000072467	3
1	1953	767.014623892577	3
1	1964	768.339158587936	3
1	1969	769.114433451779	4
1	1970	770.659054487329	4
1	1974	772.851468033166	3
1	1975	773.233783988572	2
1	1976	774.8619944967	1
1	1977	774.95094105252	0
1	1982	778.181030732533	0
1	1986	782.629958610898	1
1	1989	785.036088785915	2
1	1990	785.659813516567	2
1	1991	786.290595402024	1
1	1992	787.415876910561	0
1	1996	787.657700707211	0
1	1998	787.860581245336	1
1	2004	789.908770076218	2
1	2014	793.370956704828	2
1	2018	793.961508931186	2
1	2020	794.295031257383	3
1	2028	795.294001448105	3
1	2030	796.141709176524	3
1	2031	796.840264764256	3
1	2033	797.398088029897	3
1	2034	797.717213196946	3
1	2041	799.517930295114	2
1	2042	799.761854096789	1
1	2043	800.130288805018	0
1	2049	800.535572664999	0
1	2062	802.640281939938	1
1	2064	803.61647639537	2
1	2066	804.019374224072	3
1	2070	805.671620651921	3
1	2075	808.317734742604	3
1	2076	808.586541636746	3
1	2078	809.005767257141	3
1	2080	809.374537418303	4
1	2081	811.772080613346	4
1	2082	811.986087248339	3
1	2091	812.988896216177	3
1	2097	815.403540051935	4
1	2099	815.870006596589	4
1	2101	816.774773981482	4
1	2102	817.499320842367	4
1	2103	817.546141644073	3
1	2107	819.508245447695	3
1	2109	819.513704071037	4
1	2117	822.303378131531	4
1	2118	824.847088296744	3
1	2122	824.976524591363	2
1	2124	825.367386040471	2
1	2126	825.933579616319	3
1	2130	827.088873647987	4
1	2138	828.72766977276	4
1	2142	832.686156439562	3
1	2143	833.231460363734	2
1	2145	833.954282365994	2
1	2146	834.35597586269	2
1	2148	835.504930120396	2
1	2150	837.525410342688	3
1	2156	839.472990441519	4
1	2159	840.270482557622	4
1	2164	841.255419970788	4
1	2168	842.097411563358	5
1	2173	846.46859087497	5
1	2175	847.030798343871	5
1	2177	847.080774009669	6
1	2178	847.86051288871	6
1	2179	848.125248665179	5
1	2181	849.209718176746	5
1	2186	852.764086533315	6
1	2188	852.903441600003	7
1	2190	853.004199854847	8
1	2192	853.539790535556	9
1	2196	854.414702287559	10
1	2198	854.823283616124	10
1	2202	856.123179918488	10
1	2206	856.557200129895	11
1	2213	857.747565462946	12
1	2216	857.834804154747	13
1	2224	858.655399876624	14
1	2228	859.241703501436	15
1	2230	859.303690520576	16
1	2232	860.047667511704	17
1	2233	860.93060131724	17
1	2235	861.868636672125	17
1	2236	862.04558884611	17
1	2238	862.066737232364	17
1	2242	863.264473885897	17
1	2246	864.305677445276	16
1	2247	865.498188145461	15
1	2249	867.11902339332	15
1	2251	868.790265609749	16
1	2252	869.638044861641	16
1	2257	871.239092023623	16
1	2268	873.950529156103	17
1	2270	875.277382671769	18
1	2272	877.034911694425	19
1	2273	877.376412506438	19
1	2274	877.648032440674	18
1	2278	877.806972461083	18
1	2281	879.234907989454	19
1	2283	879.302646871823	20
1	2287	879.795017221245	20
1	2289	879.85916515567	20
1	2295	883.42381231282	21
1	2298	883.578495270125	22
1	2300	883.739940097257	23
1	2302	884.159634620225	23
1	2304	884.200154357976	23
1	2308	885.355748927058	23
1	2310	885.713034113394	23
1	2314	887.487663825246	24
1	2317	889.558715481745	25
1	2319	889.823009383882	26
1	2320	890.400079985594	26
1	2322	890.74348355719	26
1	2324	891.670007586715	27
1	2326	892.31543547923	28
1	2333	893.521593844232	28
1	2335	894.384251357493	28
1	2336	895.166823736054	28
1	2338	895.898262575642	28
1	2342	897.232977568578	29
1	2347	898.735246162488	30
1	2355	900.499516136796	31
1	2363	903.713710311316	31
1	2367	908.950940370723	30
1	2380	910.527818941791	29
1	2381	910.535311894233	28
1	2385	912.51279276117	27
1	2386	912.763244243315	26
1	2387	913.053029265596	25
1	2389	913.715820088268	25
1	2390	913.782604998696	25
1	2395	914.519379942142	25
1	2400	920.690059140863	26
1	2404	921.447904771067	26
1	2409	923.984286825741	26
1	2410	924.012064857204	26
1	2411	924.509122525375	25
1	2413	925.214742545416	25
1	2414	925.348686787375	25
1	2416	926.31893164756	25
1	2417	926.487821550092	25
1	2419	926.733204633734	25
1	2429	928.888294974115	26
1	2431	929.34045265367	27
1	2433	929.604834286519	28
1	2435	929.938408386039	28
1	2439	931.489409033087	27
1	2440	931.662615873552	26
1	2445	933.141869854671	26
1	2447	935.2091266259	27
1	2452	936.050008954039	28
1	2454	936.202881950052	29
1	2455	936.595147842471	29
1	2462	937.876771441083	28
1	2466	939.212564323475	27
1	2470	941.418099990446	26
1	2471	944.132287703896	25
1	2473	944.578922849898	25
1	2474	944.719717699804	25
1	2475	946.005785104788	24
1	2477	946.82426334201	24
1	2479	948.885819699385	25
1	2480	949.908969158428	25
1	2491	953.282770808984	25
1	2492	954.991769703774	25
1	2496	958.411973694841	24
1	2497	959.319975791159	23
1	2501	960.460710564247	22
1	2505	960.752881863892	21
1	2507	961.159608684677	21
1	2512	962.383102299377	22
1	2513	964.350721890252	22
1	2514	964.599982227913	21
1	2516	965.748587815785	21
1	2517	966.186863780155	21
1	2519	966.190360582643	21
1	2526	967.641861951424	22
1	2529	968.431181746389	23
1	2531	970.088956073246	24
1	2532	970.604391688464	24
1	2536	971.697081749505	24
1	2539	972.324092587574	25
1	2540	972.67413076912	25
1	2541	975.050533705867	24
1	2543	975.59817648277	24
1	2544	975.673466528981	24
1	2546	976.022812863762	24
1	2550	976.876534548895	25
1	2552	976.93750233759	26
1	2554	977.733629665696	26
1	2555	978.471236758674	25
1	2560	981.33026644	25
1	2562	981.912143028609	26
1	2563	982.945562061972	26
1	2565	983.012910280255	26
1	2566	983.166713819901	26
1	2573	985.748766984202	26
1	2575	986.706184786936	26
1	2579	989.102825768999	25
1	2580	989.691811996165	24
1	2582	989.92855513429	24
1	2586	991.295590763387	24
1	2588	992.565189040652	24
1	2590	992.800290952749	25
1	2594	993.580330376618	26
1	2596	993.774181872096	27
1	2598	994.213559967627	28
1	2603	995.561104360553	28
1	2605	996.397010475501	28
1	2606	997.524461961286	28
1	2608	999.54501738837	28
1	2609	1000.262307295588	28
1	2611	1000.545740681427	28
1	2624	1004.189519950169	28
1	2625	1004.511914803022	27
1	2626	1004.617897228324	26
1	2628	1006.212962271139	26
1	2632	1009.392495302078	26
1	2633	1009.818270638913	25
1	2634	1010.191323428886	24
1	2638	1011.462803919848	24
1	2641	1012.692674232839	25
1	2642	1014.342589503719	25
1	2644	1016.487919502537	25
1	2646	1016.898865536945	26
1	2648	1017.567730654061	27
1	2649	1018.12139819651	27
1	2650	1018.53358915419	26
1	2652	1018.645947766113	26
1	2654	1020.633054827474	27
1	2656	1022.491856748691	28
1	2660	1024.459558393032	28
1	2661	1025.731119575032	27
1	2668	1027.948442095445	27
1	2670	1028.364370537775	27
1	2675	1028.804932902999	27
1	2679	1030.638012954688	28
1	2681	1030.794913950792	28
1	2682	1031.169813005879	27
1	2684	1031.602718911442	27
1	2685	1034.398036299804	27
1	2686	1034.451130548852	26
1	2687	1036.998928871436	25
1	2691	1038.215754988629	25
1	2693	1038.631978922671	25
1	2700	1039.532335845606	25
1	2702	1039.549479252307	26
1	2705	1040.367651546571	27
1	2707	1040.751457988102	28
1	2708	1043.223854455437	28
1	2710	1043.425881542306	28
1	2712	1043.501450374703	29
1	2719	1045.802112213544	29
1	2721	1045.833195916948	29
1	2725	1046.237599654082	30
1	2727	1046.743082402696	30
1	2728	1047.16908481502	29
1	2730	1048.258755763744	29
1	2731	1048.265166640752	29
1	2732	1048.364639160963	28
1	2733	1048.961547396258	27
1	2734	1049.447859979761	26
1	2741	1051.088553704487	25
1	2745	1051.429949865929	25
1	2748	1051.573357132551	26
1	2750	1051.926349487098	27
1	2751	1052.535832853215	27
1	2755	1053.821239104952	26
1	2765	1057.794642908757	26
1	2768	1058.701470500938	27
1	2769	1060.672706248149	27
1	2771	1061.45193731901	27
1	2772	1061.549489780743	27
1	2774	1061.663003439456	27
1	2776	1062.227912862157	28
1	2778	1062.887580537124	29
1	2779	1063.036543079593	29
1	2784	1064.007142837268	29
1	2785	1064.135602288305	29
1	2787	1064.408884378885	29
1	2788	1065.235512592754	29
1	2793	1067.44969097045	29
1	2795	1067.475107852062	30
1	2797	1068.466610001235	31
1	2798	1068.671987271843	31
1	2800	1069.33928295128	31
1	2805	1072.341236355551	32
1	2810	1073.49208665482	33
1	2812	1073.589314982423	34
1	2817	1074.953691647271	35
1	2825	1080.650665983527	36
1	2830	1081.799549850363	37
1	2831	1082.869505614981	37
1	2836	1084.320325665435	37
1	2837	1084.664568516191	37
1	2842	1085.689990977321	37
1	2852	1089.340158536156	37
1	2854	1089.442664641506	37
1	2859	1092.392859464667	38
1	2860	1092.392901932877	38
1	2862	1093.731995167329	38
1	2867	1096.236766035066	39
1	2869	1097.388870132106	40
1	2874	1098.488244777858	41
1	2878	1099.512406439493	41
1	2879	1099.796496789823	40
1	2881	1100.015656286039	40
1	2882	1100.386308512638	40
1	2883	1100.786971100261	39
1	2885	1100.900212254743	39
1	2887	1100.998464212898	40
1	2888	1101.393713621813	40
1	2890	1101.609856564317	40
1	2894	1105.339997448036	40
1	2898	1105.946141075402	40
1	2900	1105.961755575537	40
1	2901	1106.257118738266	39
1	2903	1106.319861626792	39
1	2904	1106.778129433228	39
1	2905	1108.177538018083	38
1	2907	1109.517197879299	38
1	2909	1109.692627594975	39
1	2910	1110.153382881029	39
1	2912	1110.455633962801	39
1	2914	1112.006691676593	40
1	2915	1114.46943028044	40
1	2916	1114.976126833921	39
1	2918	1115.952838117607	39
1	2919	1117.334185447753	39
1	2924	1118.838995456283	39
1	2932	1123.879715481363	40
1	2933	1124.160404238477	40
1	2935	1125.059721692865	40
1	2940	1126.170270757887	41
1	2942	1126.351415687446	42
1	2944	1126.752097515216	43
1	2946	1127.770752109494	44
1	2947	1127.816934102747	44
1	2955	1129.562504801312	44
1	2956	1130.437682625818	44
1	2960	1130.60328307547	44
1	2962	1133.07585725499	44
1	2964	1134.095094107117	44
1	2965	1134.721453842488	44
1	2972	1135.425572029216	43
1	2974	1136.797371965499	43
1	2982	1140.238489858048	44
1	2984	1141.511338957761	45
1	2986	1142.110345352804	46
1	2994	1143.572310301156	47
1	2995	1143.636409353843	47
1	3000	1146.422134358805	47
1	3001	1148.322147680505	47
1	3002	1148.793890020502	46
1	3004	1148.876766727007	46
1	3006	1149.471552909169	47
1	3011	1151.094526457679	48
1	3013	1151.826992576209	49
1	3015	1152.181627379352	50
1	3017	1152.269878400135	51
1	3022	1154.489310678947	52
1	3031	1156.008776854597	53
1	3038	1157.784128577095	54
1	3040	1157.789711545547	55
1	3044	1158.263161378566	55
1	3046	1159.782371897518	55
1	3048	1160.517894324377	56
1	3058	1164.475617436536	56
1	3059	1165.270939940721	55
1	3066	1166.5004523298	55
1	3068	1166.854776891525	55
1	3073	1168.170210757602	55
1	3075	1168.401638792165	56
1	3076	1169.129807467262	56
1	3078	1170.386086257795	56
1	3079	1170.932399477746	56
1	3081	1171.365733608369	56
1	3082	1171.835643871741	56
1	3086	1173.36350349247	55
1	3087	1174.50249205713	54
1	3089	1174.63149131483	54
1	3091	1174.799851065566	55
1	3099	1177.6771434082	56
1	3100	1178.407182652796	56
1	3101	1179.451182587127	55
1	3102	1180.084237759466	54
1	3104	1180.401993235297	54
1	3105	1180.813692751271	54
1	3106	1181.906294864187	53
1	3108	1183.641216624281	53
1	3112	1185.027710838062	53
1	3113	1185.104912689284	52
1	3115	1185.424249991793	52
1	3117	1185.814152114003	53
1	3119	1186.725979212014	54
1	3121	1188.171193982764	55
1	3122	1192.119037592496	55
1	3123	1192.361867440845	54
1	3124	1194.262503685046	53
1	3129	1194.867142407677	53
1	3130	1195.074066009725	53
1	3132	1196.016559652084	53
1	3133	1196.149717921753	53
1	3137	1197.207235470176	53
1	3139	1198.206902630969	53
1	3141	1198.462007080571	53
1	3142	1199.115843036242	53
1	3144	1200.994787360122	53
1	3145	1201.625939008632	53
1	3146	1204.129325632853	52
1	3152	1205.875875701523	52
1	3155	1206.449428725249	53
1	3158	1207.253606928859	54
1	3162	1208.192039584487	54
1	3163	1209.155174839292	53
1	3165	1209.26101802797	53
1	3167	1209.888549864126	54
1	3168	1209.891756326663	54
1	3169	1211.434260943471	53
1	3171	1211.526141558805	53
1	3172	1212.45270147132	53
1	3173	1212.479095106757	52
1	3177	1213.552807626124	52
1	3179	1214.609393994845	52
1	3181	1215.39403842442	52
1	3183	1215.755337145896	53
1	3184	1215.964839945503	53
1	3189	1216.541824050026	53
1	3191	1217.628347074842	54
1	3192	1217.949539925442	54
1	3193	1219.185142333501	53
1	3195	1219.403782570576	53
1	3196	1220.082686141302	53
1	3201	1221.698265497506	53
1	3202	1221.838478724135	53
1	3203	1223.695246694358	52
1	3205	1224.041852530846	52
1	3212	1225.620099169516	53
1	3215	1226.793234290915	54
1	3220	1228.283734986706	55
1	3222	1228.835354066871	56
1	3223	1228.928967992425	56
1	3224	1228.952683976841	55
1	3228	1229.554789055326	54
1	3230	1229.572973298928	54
1	3234	1230.519847576849	54
1	3235	1230.645382191651	53
1	3245	1232.854239866527	52
1	3246	1235.756785371218	51
1	3248	1238.121332758251	51
1	3249	1239.828137303635	51
1	3253	1242.687823788915	50
1	3255	1243.485402523114	50
1	3256	1243.564265113469	50
1	3273	1249.842043664371	50
1	3275	1250.28686941666	51
1	3276	1250.6544018447	51
1	3278	1250.877929576529	51
1	3279	1250.898660089912	51
1	3280	1250.965575588652	50
1	3284	1251.328904949847	50
1	3286	1251.371217886018	51
1	3288	1252.784843528807	51
1	3295	1255.159521527025	50
1	3296	1255.801481819314	49
1	3300	1256.577355824448	49
1	3307	1258.132940716216	50
1	3311	1259.046056460985	51
1	3313	1259.797856316524	52
1	3314	1262.332426844068	52
1	3316	1265.739713104897	52
1	3318	1267.000648758136	53
1	3322	1268.919029691829	53
1	3324	1269.62168936612	53
1	3325	1273.293939908798	53
1	3332	1273.95505814264	53
1	3337	1276.044901653403	54
1	3339	1276.413999940665	55
1	3342	1276.53817357819	56
1	3343	1276.761651084842	56
1	3347	1278.403664142801	56
1	3349	1278.482713516297	57
1	3360	1281.432932979221	57
1	3362	1282.129241014604	57
1	3364	1282.14118274197	58
1	3365	1282.773376627916	58
1	3370	1285.956478635665	58
1	3371	1287.866312528515	58
1	3372	1288.041563235694	57
1	3386	1290.038878670903	57
1	3387	1290.362030242051	57
1	3388	1290.486639570738	56
1	3390	1290.901039643996	56
1	3391	1293.72321202555	56
1	3392	1294.665216785386	55
1	3393	1294.834831229102	54
1	3394	1295.209766930353	53
1	3396	1295.963216725476	53
1	3398	1296.197068812266	54
1	3409	1299.798741122475	55
1	3410	1300.08398188874	55
1	3411	1301.318364429741	54
1	3413	1302.309889552289	54
1	3414	1302.415830120332	54
1	3416	1303.127237927532	54
1	3417	1303.64915106236	54
1	3421	1303.694780629527	54
1	3424	1304.631400600844	55
1	3425	1305.554287470779	55
1	3429	1306.704596711108	55
1	3432	1308.009850267343	56
1	3433	1310.599757230465	56
1	3435	1311.11818915469	56
1	3436	1311.798215247563	56
1	3437	1312.641627952655	55
1	3439	1312.993998597268	55
1	3440	1313.22943776562	55
1	3444	1317.501171006646	54
1	3451	1320.02785277146	54
1	3453	1321.066823774636	54
1	3455	1322.144188468872	54
1	3457	1322.289578294901	55
1	3464	1325.15666689933	56
1	3475	1329.184812629301	56
1	3476	1330.431417085097	55
1	3481	1331.019789566279	55
1	3482	1331.439455821812	55
1	3483	1331.965651219829	54
1	3484	1333.139655956865	53
1	3486	1333.35433266915	53
1	3487	1333.941407541734	53
1	3488	1334.358918744249	52
1	3489	1334.452966006073	51
1	3493	1336.052015273709	51
1	3509	1338.490919395571	52
1	3515	1339.85688956295	52
1	3519	1342.770381313884	52
1	3521	1342.798365111047	53
1	3523	1342.879856484531	54
1	3526	1344.498594046137	55
1	3527	1344.646960130552	55
1	3531	1345.555265318932	54
1	3533	1346.85677001284	54
1	3535	1347.128805392769	55
1	3537	1347.865767927662	56
1	3539	1347.997146409508	57
1	3546	1351.273041071128	57
1	3547	1353.821445953497	56
1	3548	1354.71721458575	55
1	3550	1354.830430329574	55
1	3556	1355.433748902918	56
1	3559	1356.553404527675	56
1	3561	1356.844421983629	56
1	3567	1358.935949643761	57
1	3569	1359.148387229201	58
1	3572	1363.680960770264	58
1	3577	1364.490502441351	58
1	3578	1364.772381639956	58
1	3579	1364.814001581342	57
1	3581	1365.936357913071	57
1	3583	1366.520352167948	58
1	3584	1368.295233321523	58
1	3585	1368.539459001432	57
1	3586	1369.206512200966	56
1	3587	1371.232759084674	55
1	3588	1371.513924445711	54
1	3590	1371.774267420354	54
1	3594	1373.049406093197	54
1	3596	1373.596713238932	54
1	3598	1373.762206160407	55
1	3606	1375.628368187952	56
1	3607	1377.213927411432	56
1	3609	1378.876390091411	56
1	3610	1379.578859087669	56
1	3612	1380.412328105137	56
1	3614	1382.536984413436	57
1	3621	1383.611737568549	58
1	3623	1384.329939711452	58
1	3631	1387.35196107029	58
1	3632	1388.332061947477	58
1	3633	1389.569108090501	57
1	3635	1390.129080018344	57
1	3637	1390.698331582086	58
1	3638	1390.932446897828	58
1	3642	1391.207483058473	58
1	3644	1391.246551144853	59
1	3649	1391.987482874467	59
1	3656	1394.675973134264	58
1	3660	1395.49460625271	58
1	3662	1395.520804447174	59
1	3665	1398.655767657642	60
1	3673	1402.476821791954	61
1	3677	1403.210335991633	61
1	3685	1404.544025066659	61
1	3689	1407.228842995062	61
1	3693	1408.596967025421	60
1	3694	1410.084451979354	59
1	3701	1414.307816941437	59
1	3703	1414.453824118503	59
1	3709	1415.302600018713	59
1	3715	1417.168030748767	59
1	3719	1417.864894583678	59
1	3727	1422.277563383718	59
1	3728	1423.628841042788	58
1	3730	1423.884951835939	58
1	3734	1425.012039983107	59
1	3736	1425.369320534117	59
1	3737	1426.274311443211	58
1	3739	1426.409812500352	58
1	3740	1426.483295418802	58
1	3744	1427.528579633253	58
1	3747	1427.918575256614	59
1	3751	1428.97324142951	60
1	3753	1429.203159130172	61
1	3767	1434.648886218725	61
1	3769	1435.523314966227	61
1	3771	1435.596452545249	62
1	3772	1436.798358173399	62
1	3774	1437.451476724046	62
1	3775	1437.996139438766	62
1	3776	1438.036969631367	61
1	3778	1438.158259966993	61
1	3779	1438.217870007185	61
1	3781	1438.53859450181	61
1	3782	1438.732581301007	61
1	3786	1440.155242902526	60
1	3791	1440.874529863386	60
1	3793	1441.366807155548	61
1	3795	1444.749010532011	62
1	3796	1446.046512791415	62
1	3801	1447.716940905297	62
1	3802	1448.040105150957	62
1	3803	1448.581981283419	61
1	3810	1453.006268386212	60
1	3812	1453.04565980692	60
1	3814	1453.07373590117	61
1	3818	1455.319119521583	61
1	3820	1455.376758293878	61
1	3828	1459.289912313607	62
1	3830	1459.306075296837	63
1	3832	1460.383388223563	64
1	3839	1461.632693453982	64
1	3840	1462.296705222234	63
1	3841	1462.676037433567	62
1	3842	1463.384459980974	61
1	3848	1463.78101320505	61
1	3855	1464.699312439234	62
1	3857	1465.058401230704	63
1	3862	1467.068176435692	64
1	3863	1467.106760350345	64
1	3865	1468.598593178298	64
1	3870	1470.385688796455	65
1	3871	1471.557417012718	65
1	3872	1472.482656893303	64
1	3874	1473.250237440789	64
1	3879	1474.160962628058	65
1	3881	1474.198176410398	66
1	3885	1474.459922092898	67
1	3888	1476.05185919433	68
1	3889	1476.522983925584	68
1	3890	1476.798894145733	67
1	3895	1481.270949645226	67
1	3897	1481.893387682449	68
1	3898	1482.758985055837	68
1	3899	1482.952220958061	67
1	3903	1484.829490346352	67
1	3905	1485.020426967179	68
1	3911	1487.496169535417	69
1	3916	1489.844262244087	70
1	3920	1490.153091802612	71
1	3923	1492.139583628438	72
1	3925	1492.308008249002	73
1	3927	1492.953309589323	74
1	3928	1493.547916368842	74
1	3930	1494.177606539687	74
1	3931	1494.426509946464	74
1	3932	1495.132330389374	73
1	3936	1497.124579180443	72
1	3937	1497.189972009546	71
1	3938	1497.679703260131	70
1	3940	1499.295008142566	70
1	3941	1501.578993020711	70
1	3943	1501.993049974739	70
1	3947	1503.582249469525	70
1	3948	1504.745662892215	69
1	3949	1505.70450119062	68
1	3950	1506.086591252088	67
1	3955	1508.245499344497	67
1	3959	1510.282672183251	68
1	3964	1511.439698902646	68
1	3965	1511.504803940855	67
1	3967	1511.680399787993	67
1	3968	1512.29346326735	67
1	3975	1514.243729291651	66
1	3976	1514.349592602242	65
1	3981	1515.806471634206	65
1	3983	1516.050153647108	66
1	3988	1517.006833274627	67
1	3989	1518.110169265384	67
1	3996	1519.647584372699	67
1	3998	1519.809045011653	67
1	4002	1520.261163765066	67
1	4004	1520.542750471811	67
1	4012	1524.240244170335	67
1	4014	1524.729880992695	68
1	4018	1525.747468907415	68
1	4023	1527.668690883565	68
1	4025	1528.183391512036	69
1	4027	1528.301039101841	70
1	4028	1529.394422543867	70
1	4029	1530.000978270671	69
1	4033	1532.374780606419	68
1	4034	1533.456291173292	67
1	4036	1533.986255223951	67
1	4040	1534.273710967769	68
1	4042	1535.052015275658	69
1	4047	1536.454691788558	69
1	4048	1537.139346538073	68
1	4050	1537.992647159377	68
1	4052	1538.873136616773	69
1	4054	1539.670287696071	70
1	4055	1540.748052410907	70
1	4057	1541.32755574501	70
1	4059	1542.165620757063	71
1	4060	1542.343833538537	71
1	4061	1543.950300195224	70
1	4062	1544.243373680202	69
1	4064	1544.298058778316	69
1	4066	1544.674350142072	70
1	4068	1545.070148145168	71
1	4069	1545.760005819982	71
1	4073	1548.607698399966	70
1	4074	1551.44837606873	69
1	4078	1553.112177540418	68
1	4079	1553.816103498696	67
1	4080	1554.78543196166	66
1	4090	1557.107520867383	65
1	4092	1557.261829061913	65
1	4093	1558.531307689388	65
1	4095	1559.157729043292	65
1	4100	1560.115312028254	66
1	4101	1560.957916234121	66
1	4103	1561.04085342497	66
1	4104	1561.839897019543	66
1	4106	1561.957137844222	66
1	4108	1562.621670317134	67
1	4110	1562.666415629151	68
1	4111	1564.389646215902	68
1	4116	1564.787453952905	68
1	4121	1565.099245122739	69
1	4122	1565.526373673434	69
1	4124	1566.719396122839	69
1	4125	1567.175637380867	69
1	4126	1568.391078134287	68
1	4133	1572.421364011788	68
1	4135	1573.053498856605	68
1	4137	1573.200489103453	68
1	4139	1574.104606044747	69
1	4141	1574.231025049473	70
1	4143	1575.056086791249	71
1	4145	1575.235069281216	72
1	4146	1575.445088209871	72
1	4147	1575.90430077502	71
1	4151	1577.781798299948	70
1	4155	1579.901487716194	70
1	4158	1580.103434303053	71
1	4166	1583.507621290404	72
1	4167	1583.514199262285	72
1	4168	1584.122374882125	71
1	4169	1585.839168377012	70
1	4173	1586.409514306372	69
1	4177	1589.637139616221	69
1	4184	1589.9873655074	70
1	4190	1591.135978283786	70
1	4191	1591.513784918778	69
1	4193	1591.614144580727	69
1	4195	1592.421445699952	70
1	4196	1592.701760895096	70
1	4205	1593.509998835368	70
1	4207	1593.794758707616	71
1	4210	1594.080310675104	71
1	4215	1596.282843909346	71
1	4216	1596.547259414575	71
1	4218	1597.829538462456	71
1	4220	1598.118386420658	72
1	4227	1599.485828833696	72
1	4228	1600.762593371369	71
1	4235	1601.909062417843	70
1	4237	1602.548904675296	70
1	4238	1603.791984709494	70
1	4243	1604.050540107821	70
1	4245	1604.84176077192	71
1	4247	1606.131250894558	72
1	4248	1606.169580290018	72
1	4250	1606.245855612902	72
1	4252	1606.568667694318	73
1	4258	1607.0545026011	74
1	4262	1609.443660837017	75
1	4263	1610.476212657272	75
1	4264	1610.697183226418	74
1	4265	1611.534299874255	73
1	4266	1612.506736091848	72
1	4268	1612.904201513196	72
1	4270	1614.201872206244	73
1	4271	1614.338226810327	73
1	4278	1616.786648416007	72
1	4279	1618.283679998907	71
1	4287	1619.847418562659	71
1	4288	1619.905684954951	71
1	4290	1620.970263634213	71
1	4292	1621.173611193523	72
1	4296	1622.091890793723	72
1	4297	1622.603431498087	71
1	4298	1622.784422050569	70
1	4299	1623.339154065095	69
1	4304	1626.168013793251	69
1	4306	1626.22774312992	70
1	4308	1627.268252284208	71
1	4309	1627.277358855395	71
1	4311	1627.390392466215	71
1	4316	1628.989976536926	72
1	4318	1629.535859716486	73
1	4319	1630.132242593563	73
1	4320	1630.288795777885	72
1	4331	1633.418095513336	72
1	4335	1633.686692576713	73
1	4338	1633.826647922819	74
1	4343	1636.423209648418	75
1	4344	1637.507726142982	75
1	4346	1638.501046019713	75
1	4347	1638.928780432121	75
1	4348	1640.962022561064	74
1	4349	1641.680606824076	73
1	4350	1642.62583687146	72
1	4351	1642.758783328517	71
1	4352	1643.232695272396	70
1	4356	1644.337329853138	70
1	4358	1644.601867025538	71
1	4363	1645.013512809403	72
1	4366	1647.70569248321	73
1	4370	1648.715114897268	73
1	4371	1650.207003137772	72
1	4379	1653.351967160507	72
1	4380	1653.845110089182	72
1	4384	1655.04046638737	71
1	4385	1655.218670110775	70
1	4386	1655.286470991032	69
1	4388	1655.807594505253	69
1	4389	1656.16364807785	69
1	4391	1658.068313324982	69
1	4393	1658.236443670376	70
1	4394	1658.480457421512	70
1	4396	1660.546437540089	70
1	4397	1660.76016708503	70
1	4398	1661.042693481016	69
1	4402	1661.68276517268	68
1	4404	1662.613088115553	68
1	4406	1663.470139867772	69
1	4407	1663.690860652347	69
1	4409	1663.743747908164	69
1	4415	1665.362999155665	70
1	4417	1665.544040613521	71
1	4419	1665.595966769492	72
1	4432	1673.304594262975	73
1	4439	1675.342974609509	74
1	4442	1676.328806242961	75
1	4447	1678.094439041674	76
1	4451	1678.785155056375	76
1	4452	1678.846818116045	75
1	4456	1679.616847614119	74
1	4466	1682.425653453265	73
1	4467	1683.032391131157	72
1	4468	1684.253634155135	71
1	4469	1685.400282479449	70
1	4470	1685.572188357988	69
1	4474	1686.683735425902	69
1	4481	1688.398136550736	70
1	4490	1690.991444723257	70
1	4497	1693.248531350751	70
1	4499	1693.397493238126	71
1	4501	1693.823138505028	71
1	4503	1695.404586887902	71
1	4507	1696.818953199894	71
1	4508	1696.914710398263	70
1	4510	1697.07784363758	70
1	4512	1697.127756748721	71
1	4514	1698.695407513163	72
1	4516	1698.774028705061	73
1	4517	1699.126558100323	73
1	4521	1699.679889610021	72
1	4523	1700.216113828939	72
1	4525	1701.865798476459	73
1	4527	1702.122568858331	74
1	4528	1703.234458318834	74
1	4529	1703.637991646494	73
1	4531	1703.847581337683	73
1	4532	1704.997962159262	73
1	4533	1705.023340599515	72
1	4538	1706.767982718315	72
1	4540	1706.85277037505	73
1	4542	1707.342166387536	74
1	4547	1710.214124242692	75
1	4549	1711.714321326392	76
1	4551	1711.81641355976	77
1	4553	1712.040293766266	78
1	4554	1712.111532778302	78
1	4555	1713.361428020145	77
1	4557	1714.556393833871	77
1	4558	1715.142452003244	77
1	4559	1716.718726276418	76
1	4561	1716.988192402725	76
1	4565	1718.176624082924	76
1	4570	1719.435437257435	76
1	4574	1721.221877084922	76
1	4576	1721.979325208783	76
1	4583	1724.306395208269	76
1	4587	1731.838733850876	75
1	4589	1732.205491730313	75
1	4593	1733.394787542794	75
1	4594	1734.94333470036	74
1	4595	1735.402966946491	73
1	4597	1735.767537907564	73
1	4601	1736.867755319808	74
1	4607	1740.113880496726	75
1	4608	1740.998802861918	75
1	4615	1742.867730859522	75
1	4618	1744.323762073127	76
1	4619	1744.858182677409	76
1	4621	1747.144317565438	76
1	4625	1747.848669081426	77
1	4627	1748.122028926523	78
1	4635	1750.109263029012	78
1	4642	1755.219014536419	77
1	4646	1756.183526493482	77
1	4649	1756.491215094075	78
1	4651	1758.247107909798	79
1	4652	1758.359706187216	79
1	4653	1758.578012300267	78
1	4655	1759.822634017326	78
1	4657	1760.014547556851	79
1	4659	1760.07466099497	80
1	4660	1761.01795936901	80
1	4662	1761.504604160412	80
1	4664	1763.705695389582	81
1	4666	1763.755904720452	82
1	4667	1763.822038907681	82
1	4681	1766.493405548299	82
1	4694	1770.564192482183	82
1	4695	1771.88960002853	81
1	4696	1773.02183141722	80
1	4698	1773.247938623593	80
1	4700	1773.9467357036	81
1	4705	1774.515587043148	82
1	4707	1774.769538081809	83
1	4708	1775.408537051311	83
1	4709	1777.494977657659	82
1	4713	1778.874278560802	81
1	4715	1781.786964330959	81
1	4717	1782.563292406651	82
1	4719	1783.122485271465	83
1	4721	1784.257958262697	84
1	4723	1784.355314995011	85
1	4724	1784.562245635658	85
1	4729	1784.96445624643	85
1	4734	1787.366401417704	86
1	4735	1789.676341529735	86
1	4737	1789.784524620055	86
1	4739	1790.684762290766	87
1	4740	1790.757496950534	87
1	4742	1790.910102081216	87
1	4744	1792.443791931672	88
1	4749	1793.540050550071	89
1	4751	1794.406717796457	90
1	4753	1795.282629095144	91
1	4755	1795.473476112162	92
1	4757	1795.518737522356	93
1	4759	1796.173583915711	94
1	4760	1797.983213305256	94
1	4762	1798.270747671153	94
1	4764	1799.183940828623	95
1	4771	1800.806043691403	95
1	4772	1800.88541967396	94
1	4774	1802.147227594155	94
1	4775	1803.282566500559	94
1	4777	1803.826666104191	94
1	4778	1804.163351330269	94
1	4780	1806.003686404949	94
1	4782	1806.355678937257	95
1	4783	1806.814128990327	95
1	4791	1810.107921880233	95
1	4798	1811.735842942412	96
1	4803	1813.54842056828	96
1	4804	1814.363293431748	95
1	4805	1814.560870909386	94
1	4807	1814.602872523364	94
1	4808	1815.066518381194	94
1	4813	1817.963884894547	94
1	4814	1818.11590755223	94
1	4816	1818.707120652843	94
1	4826	1820.649115875384	95
1	4828	1820.919726991721	96
1	4831	1822.861689104702	97
1	4836	1823.333130609282	98
1	4840	1823.940715261275	99
1	4844	1824.383474187639	100
1	4850	1827.103965147699	100
1	4864	1832.780792800297	100
1	4869	1833.986309827399	101
1	4870	1834.039928252472	101
1	4871	1834.363108187634	100
1	4872	1834.558359037435	99
1	4873	1834.860340877463	98
1	4874	1834.868287537686	97
1	4878	1835.913420191735	96
1	4880	1836.062983962679	96
1	4881	1837.361781638917	96
1	4885	1838.817253663934	96
1	4888	1839.117567263423	97
1	4895	1840.723480784211	98
1	4903	1843.322736527724	99
1	4905	1845.177618553159	99
1	4910	1846.941893680324	99
1	4911	1847.87829152837	99
1	4912	1849.081858307618	98
1	4913	1849.289263731547	97
1	4917	1850.832129451513	96
1	4918	1850.933192510101	95
1	4919	1851.255814662362	94
1	4920	1852.362649596956	93
1	4921	1853.406865371946	92
1	4922	1854.860764067561	91
1	4923	1854.995034382784	90
1	4924	1855.890152466529	89
1	4925	1856.302755615681	88
1	4927	1856.883182919237	88
1	4934	1859.146876728718	88
1	4935	1859.182351497398	87
1	4936	1860.233390061971	86
1	4937	1860.919770381234	85
1	4938	1861.043697491625	84
1	4948	1865.418146209258	83
1	4952	1869.604968813532	83
1	4955	1871.872240823255	84
1	4956	1871.95030240823	84
1	4957	1872.095995370932	83
1	4961	1873.330308765341	82
1	4962	1873.804603495679	81
1	4964	1875.539168897841	81
1	4965	1876.209579740529	81
1	4966	1876.784715923751	80
1	4968	1877.291661648788	80
1	4972	1878.252634292535	80
1	4979	1881.322674944987	79
1	4980	1881.695706060335	78
1	4981	1882.555728367953	77
1	4992	1884.242080954002	77
1	4994	1885.735857662662	78
1	4995	1887.416272826836	78
1	4996	1887.936605806363	77
1	4997	1888.090648144962	76
1	4998	1888.333437165201	75
1	4999	1888.424876074097	74
1	5001	1889.123659913547	74
1	5003	1889.965403100889	75
1	5005	1891.625169869323	76
1	5007	1891.925457050024	77
1	5009	1892.863555993043	78
1	5016	1896.750406194417	78
1	5017	1897.193824932064	77
1	5018	1897.741817149398	76
1	5020	1898.42401121102	76
1	5021	1899.66032356663	76
1	5026	1901.205345289152	76
1	5028	1904.083795521649	77
1	5030	1904.942393014352	78
1	5032	1908.140023852161	79
1	5034	1908.292366973993	80
1	5035	1908.905762298231	80
1	5037	1911.891338632688	80
1	5039	1913.111583146139	81
1	5040	1914.352992283821	81
1	5041	1914.742226298888	80
1	5043	1915.084444978813	80
1	5045	1915.734013491541	81
1	5050	1919.23656540947	82
1	5052	1920.662512807705	83
1	5053	1921.759166674491	83
1	5054	1921.914257417695	82
1	5061	1922.859322246388	82
1	5063	1923.249542386005	82
1	5065	1923.66402751385	82
1	5067	1925.206356467414	83
1	5069	1925.334083195731	84
1	5070	1926.464838544698	84
1	5077	1929.893330956133	84
1	5079	1930.167656600646	85
1	5081	1930.587007441743	85
1	5083	1930.755466332498	85
1	5093	1934.348553383559	85
1	5095	1935.117368571508	85
1	5097	1935.766807665478	86
1	5099	1938.234348020368	87
1	5101	1939.007844857544	88
1	5105	1940.342925285811	88
1	5109	1941.30174490358	87
1	5110	1941.645995783966	86
1	5114	1942.067343062337	86
1	5118	1942.73325821037	87
1	5122	1944.02846852712	88
1	5137	1948.828975782239	89
1	5140	1950.505771411339	89
1	5142	1950.879375900159	89
1	5146	1951.452115893273	89
1	5150	1952.298475611341	88
1	5151	1953.151471746428	87
1	5152	1954.334697811565	86
1	5154	1957.127283979733	86
1	5155	1957.809825656872	86
1	5166	1961.445871991753	86
1	5168	1961.733805673186	87
1	5172	1962.880314809707	87
1	5173	1963.493900218161	86
1	5175	1963.685910489666	86
1	5183	1967.096178205995	87
1	5193	1970.632161602701	87
1	5194	1971.353619112351	86
1	5196	1972.164653436443	86
1	5198	1972.257503206142	87
1	5199	1973.139684984278	87
1	5206	1975.194750588425	87
1	5208	1975.236317572725	88
1	5211	1975.690277243229	89
1	5213	1976.812417952715	90
1	5215	1976.904707226262	91
1	5217	1976.927740789251	92
1	5219	1977.041365025216	93
1	5221	1977.434939648894	94
1	5223	1978.806328902474	95
1	5224	1979.274447583644	95
1	5226	1981.317738217962	95
1	5227	1981.562190655904	95
1	5229	1981.626455555744	95
1	5231	1981.709982501466	96
1	5232	1982.951399402307	96
1	5236	1983.134967675906	96
1	5238	1984.26053560597	96
1	5242	1986.236292170504	95
1	5250	1988.266953698576	95
1	5252	1988.793163388087	96
1	5254	1990.114719823076	97
1	5256	1990.352161458254	98
1	5258	1991.449056876234	99
1	5259	1993.055637732759	99
1	5260	1994.585513160309	98
1	5265	1995.098805485784	98
1	5266	1995.695563247212	98
1	5270	1996.513972682092	98
1	5273	1997.193729030735	99
1	5274	1997.67401167273	99
1	5278	1998.546142172252	99
1	5281	1998.677670807634	100
1	5283	1999.439164861834	101
1	5285	1999.53817341987	102
1	5287	1999.863375706023	103
2	0	0	0
2	4	0.883625480093	1
2	19	5.744694441368	2
2	22	6.731980323068	3
2	28	10.356517079971	4
2	31	10.921807603243	5
2	37	11.434157232421	6
2	46	15.280061950475	7
[...]
10	2390	913.782604998696	29.58245064072
10	2404	921.447904771067	33.960240945821
10	2410	924.012064857204	34.189055473322
10	2411	924.509122525375	33.765638968185
10	2414	925.348686787375	33.67867920066
10	2417	926.487821550092	34.172386070862
10	2435	929.938408386039	34.040145810397
10	2439	931.489409033087	34.256431464509
10	2440	931.662615873552	34.097698777253
10	2455	936.595147842471	36.177024965678
10	2462	937.876771441083	30.99147594864
10	2466	939.212564323475	29.643200901395
10	2470	941.418099990446	27.702279902178
10	2471	944.132287703896	30.3125934164
10	2474	944.719717699804	30.200337757662
10	2475	946.005785104788	28.665692824236
10	2480	949.908969158428	29.218910017565
10	2492	954.991769703774	29.777027158358
10	2496	958.411973694841	31.678769061107
10	2497	959.319975791159	32.119549706128
10	2501	960.460710564247	31.572415590132
10	2505	960.752881863892	31.148047577373
10	2513	964.350721890252	31.762694291139
10	2514	964.599982227913	31.458112373242
10	2517	966.186863780155	30.977737154255
10	2532	970.604391688464	34.401509738412
10	2540	972.67413076912	35.658891471756
10	2541	975.050533705867	36.759150167845
10	2544	975.673466528981	36.31492841371
10	2554	977.733629665696	30.909366323686
10	2555	978.471236758674	29.585417059289
10	2563	982.945562061972	31.884087155089
10	2566	983.166713819901	30.13326418783
10	2575	986.706184786936	30.718361210873
10	2579	989.102825768999	28.545305511807
10	2580	989.691811996165	28.532203311488
10	2586	991.295590763387	28.91248846401
10	2603	995.561104360553	29.37074377791
10	2606	997.524461961286	30.673700601419
10	2609	1000.262307295588	32.675793108507
10	2624	1004.189519950169	34.100563876923
10	2625	1004.511914803022	33.254404730774
10	2626	1004.617897228324	32.920815478819
10	2632	1009.392495302078	33.794318819308
10	2633	1009.818270638913	33.795457775151
10	2634	1010.191323428886	33.437358427044
10	2642	1014.342589503719	37.405087166129
10	2649	1018.12139819651	37.312051522964
10	2650	1018.53358915419	37.20332271419
10	2660	1024.459558393032	41.446648112777
10	2661	1025.731119575032	41.949779315853
10	2670	1028.364370537775	41.515764121572
10	2681	1030.794913950792	38.22972491014
10	2682	1031.169813005879	38.36952205313
10	2685	1034.398036299804	41.398788975652
10	2686	1034.451130548852	40.870800172234
10	2687	1036.998928871436	43.22474699934
10	2693	1038.631978922671	42.23496844717
10	2708	1043.223854455437	41.39170940573
10	2719	1045.802112213544	37.69358154493
10	2727	1046.743082402696	35.280278482848
10	2728	1047.16908481502	34.476410582181
10	2731	1048.265166640752	31.777247138215
10	2732	1048.364639160963	31.465773624018
10	2733	1048.961547396258	31.393816742197
10	2734	1049.447859979761	30.801912213648
10	2741	1051.088553704487	28.596696955796
10	2751	1052.535832853215	26.190882798321
10	2755	1053.821239104952	25.254818973492
10	2769	1060.672706248149	29.069987336707
10	2772	1061.549489780743	23.382683112669
10	2779	1063.036543079593	24.820788090964
10	2785	1064.135602288305	24.858531748575
10	2788	1065.235512592754	25.703176747148
10	2798	1068.671987271843	28.304335725272
10	2831	1082.869505614981	36.839855469728
10	2837	1084.664568516191	36.405812752447
10	2852	1089.340158536156	37.766801403605
10	2860	1092.392901932877	39.48121144892
10	2878	1099.512406439493	41.717763530736
10	2879	1099.796496789823	41.095026288885
10	2882	1100.386308512638	38.934371193628
10	2883	1100.786971100261	39.123967660805
10	2888	1101.393713621813	39.165800759656
10	2894	1105.339997448036	42.032197402016
10	2900	1105.961755575537	41.552871196652
10	2901	1106.257118738266	38.875947735236
10	2904	1106.778129433228	39.328438462778
10	2905	1108.177538018083	40.702430166021
10	2910	1110.153382881029	41.686772879794
10	2915	1114.46943028044	45.13014732916
10	2916	1114.976126833921	44.088486632149
10	2919	1117.334185447753	44.992949092202
10	2933	1124.160404238477	49.903258716111
10	2947	1127.816934102747	51.472555056867
10	2956	1130.437682625818	49.308523921474
10	2962	1133.07585725499	49.435450656931
10	2965	1134.721453842488	50.401128177053
10	2972	1135.425572029216	49.735581051895
10	2995	1143.636409353843	51.243549889176
10	3001	1148.322147680505	53.297512189045
10	3002	1148.793890020502	52.557123985436
10	3044	1158.263161378566	57.362949123823
10	3058	1164.475617436536	58.893610252184
10	3059	1165.270939940721	59.324798865319
10	3068	1166.854776891525	57.337579012226
10	3076	1169.129807467262	58.674173504461
10	3079	1170.932399477746	58.925707801153
10	3082	1171.835643871741	55.882805754134
10	3086	1173.36350349247	54.524508036187
10	3087	1174.50249205713	54.216688966085
10	3100	1178.407182652796	53.347460959931
10	3101	1179.451182587127	54.056632499731
10	3102	1180.084237759466	53.913967001579
10	3105	1180.813692751271	54.462277063825
10	3106	1181.906294864187	55.154197348971
10	3112	1185.027710838062	56.484545192923
10	3113	1185.104912689284	55.91974804229
10	3122	1192.119037592496	62.556532791184
10	3123	1192.361867440845	61.818182974184
10	3124	1194.262503685046	63.659220609576
10	3130	1195.074066009725	60.270401396544
10	3133	1196.149717921753	59.352345956254
10	3139	1198.206902630969	60.474023521326
10	3142	1199.115843036242	58.877353178194
10	3145	1201.625939008632	60.114600050871
10	3146	1204.129325632853	62.018980280049
10	3162	1208.192039584487	64.619729283331
10	3163	1209.155174839292	65.26567694119
10	3168	1209.891756326663	63.469621967858
10	3169	1211.434260943471	62.557494216464
10	3172	1212.45270147132	62.981148562151
10	3173	1212.479095106757	62.683065342653
10	3179	1214.609393994845	62.782401418636
10	3184	1215.964839945503	63.783212566151
10	3192	1217.949539925442	65.063439557502
10	3193	1219.185142333501	64.695831654554
10	3196	1220.082686141302	64.623815852349
10	3202	1221.838478724135	65.829701869538
10	3203	1223.695246694358	65.911118117263
10	3223	1228.928967992425	68.411073668048
10	3224	1228.952683976841	68.196391446315
10	3228	1229.554789055326	65.988913555582
10	3234	1230.519847576849	64.019395247049
10	3235	1230.645382191651	63.646894346941
10	3245	1232.854239866527	62.468153608732
10	3246	1235.756785371218	64.391051762849
10	3249	1239.828137303635	66.964157915802
10	3253	1242.687823788915	67.887972723349
10	3256	1243.564265113469	67.994069652766
10	3276	1250.6544018447	70.252408609403
10	3279	1250.898660089912	67.257443465631
10	3280	1250.965575588652	67.196148612732
10	3288	1252.784843528807	66.970691414804
10	3295	1255.159521527025	66.988327544261
10	3296	1255.801481819314	61.435039932604
10	3314	1262.332426844068	65.739315883007
10	3322	1268.919029691829	70.457022611258
10	3325	1273.293939908798	72.299152548676
10	3343	1276.761651084842	69.508044155983
10	3360	1281.432932979221	71.544383115095
10	3365	1282.773376627916	71.247235069111
10	3371	1287.866312528515	74.313504902391
10	3372	1288.041563235694	72.647524811274
10	3387	1290.362030242051	72.733683167209
10	3388	1290.486639570738	71.082857000162
10	3391	1293.72321202555	73.500901971706
10	3392	1294.665216785386	72.96695128788
10	3393	1294.834831229102	70.792978698256
10	3394	1295.209766930353	71.094469853875
10	3410	1300.08398188874	73.290747597825
10	3411	1301.318364429741	73.968489582396
10	3414	1302.415830120332	74.132095133626
10	3417	1303.64915106236	74.813796995489
10	3425	1305.554287470779	75.981314171851
10	3433	1310.599757230465	79.831615732579
10	3436	1311.798215247563	79.061116789899
10	3437	1312.641627952655	74.520295194404
10	3440	1313.22943776562	73.354833529149
10	3444	1317.501171006646	71.537105317298
10	3453	1321.066823774636	71.224780110265
10	3475	1329.184812629301	77.967405909455
10	3476	1330.431417085097	79.10251213525
10	3482	1331.439455821812	77.898308997499
10	3483	1331.965651219829	75.873622536175
10	3484	1333.139655956865	76.562300132417
10	3487	1333.941407541734	76.518282948293
10	3488	1334.358918744249	76.225978028033
10	3489	1334.452966006073	75.406909545088
10	3515	1339.85688956295	70.23520019683
10	3527	1344.646960130552	71.030636605073
10	3531	1345.555265318932	69.658254874639
10	3546	1351.273041071128	74.859041130463
10	3547	1353.821445953497	77.283272375307
10	3548	1354.71721458575	77.221003553436
10	3559	1356.553404527675	78.070691011378
10	3572	1363.680960770264	81.55171975566
10	3578	1364.772381639956	80.919895558905
10	3579	1364.814001581342	78.857522945677
10	3584	1368.295233321523	80.211079464251
10	3585	1368.539459001432	79.71373430194
10	3586	1369.206512200966	79.904539961275
10	3587	1371.232759084674	81.193880413771
10	3588	1371.513924445711	80.612884801715
10	3594	1373.049406093197	76.852337280931
10	3607	1377.213927411432	77.415186288957
10	3610	1379.578859087669	77.26896953538
10	3623	1384.329939711452	80.635159081925
10	3632	1388.332061947477	82.017878020795
10	3633	1389.569108090501	82.864511379393
10	3638	1390.932446897828	82.922596630485
10	3649	1391.987482874467	78.189044068344
10	3656	1394.675973134264	72.531784665392
10	3677	1403.210335991633	72.705457336232
10	3689	1407.228842995062	71.176827721353
10	3693	1408.596967025421	71.302811820549
10	3694	1410.084451979354	72.256791684024
10	3703	1414.453824118503	71.683442804619
10	3715	1417.168030748767	72.66943670263
10	3727	1422.277563383718	75.148757990949
10	3728	1423.628841042788	75.763073115126
10	3736	1425.369320534117	76.877546168951
10	3737	1426.274311443211	71.443881113637
10	3740	1426.483295418802	71.328786619999
10	3767	1434.648886218725	70.773137786242
10	3772	1436.798358173399	72.307855732048
10	3775	1437.996139438766	72.059781525695
10	3776	1438.036969631367	71.516617463419
10	3779	1438.217870007185	66.443602586831
10	3782	1438.732581301007	66.144189993967
10	3786	1440.155242902526	66.393036742119
10	3796	1446.046512791415	72.024321024302
10	3802	1448.040105150957	69.163715059546
10	3803	1448.581981283419	68.169653178282
10	3810	1453.006268386212	69.503501355784
10	3818	1455.319119521583	69.734692451972
10	3839	1461.632693453982	70.425210395509
10	3840	1462.296705222234	71.050154077381
10	3841	1462.676037433567	70.986460618443
10	3842	1463.384459980974	70.75024839248
10	3863	1467.106760350345	71.585955903171
10	3871	1471.557417012718	71.461596421497
10	3872	1472.482656893303	70.949127408767
10	3889	1476.522983925584	72.548978565861
10	3890	1476.798894145733	72.744800909831
10	3898	1482.758985055837	76.820169865385
10	3899	1482.952220958061	75.554580538033
10	3928	1493.547916368842	78.785738542049
10	3931	1494.426509946464	79.123909927751
10	3932	1495.132330389374	79.297067158866
10	3936	1497.124579180443	79.259684596765
10	3937	1497.189972009546	78.686921668821
10	3938	1497.679703260131	73.794751424192
10	3941	1501.578993020711	77.516302344462
10	3947	1503.582249469525	77.172436969173
10	3948	1504.745662892215	77.733363124252
10	3949	1505.70450119062	78.175921557367
10	3950	1506.086591252088	78.168015995474
10	3964	1511.439698902646	82.236539772474
10	3965	1511.504803940855	80.083932843347
10	3968	1512.29346326735	80.270589245013
10	3975	1514.243729291651	78.647276746402
10	3976	1514.349592602242	76.898115878196
10	3989	1518.110169265384	78.643084140419
10	3998	1519.809045011653	78.442237856105
10	4004	1520.542750471811	74.286599418216
10	4018	1525.747468907415	72.701809100495
10	4028	1529.394422543867	74.689666821553
10	4029	1530.000978270671	74.624219976793
10	4033	1532.374780606419	74.261442239212
10	4034	1533.456291173292	74.166378859685
10	4047	1536.454691788558	76.071303564995
10	4048	1537.139346538073	76.496714570238
10	4055	1540.748052410907	79.618804183064
10	4060	1542.343833538537	78.772652202294
10	4061	1543.950300195224	80.169286990174
10	4062	1544.243373680202	79.900156662995
10	4069	1545.760005819982	81.060693380748
10	4073	1548.607698399966	82.769821114804
10	4074	1551.44837606873	84.380199633038
10	4078	1553.112177540418	83.71556910065
10	4079	1553.816103498696	83.430414702241
10	4080	1554.78543196166	81.535194520871
10	4090	1557.107520867383	82.946558239325
10	4093	1558.531307689388	84.33313127899
10	4101	1560.957916234121	86.497994141223
10	4104	1561.839897019543	85.788037825213
10	4111	1564.389646215902	86.343625468034
10	4122	1565.526373673434	81.137519989696
10	4125	1567.175637380867	82.346147034515
10	4126	1568.391078134287	83.370651167108
10	4135	1573.053498856605	83.209236612518
10	4146	1575.445088209871	85.502949600963
10	4147	1575.90430077502	85.751208972408
10	4151	1577.781798299948	85.473790050946
10	4167	1583.514199262285	84.219191119719
10	4168	1584.122374882125	82.129324907386
10	4169	1585.839168377012	83.010131303777
10	4173	1586.409514306372	78.164014961875
10	4190	1591.135978283786	79.455578495793
10	4191	1591.513784918778	78.058463906138
10	4196	1592.701760895096	78.943574923147
10	4210	1594.080310675104	78.030157027996
10	4216	1596.547259414575	79.540426139948
10	4227	1599.485828833696	80.152971016926
10	4228	1600.762593371369	81.11500899867
10	4235	1601.909062417843	80.086213056048
10	4238	1603.791984709494	80.524341216556
10	4248	1606.169580290018	81.439699297323
10	4263	1610.476212657272	83.297370669467
10	4264	1610.697183226418	83.028492342853
10	4265	1611.534299874255	83.350908362219
10	4266	1612.506736091848	84.205696990007
10	4271	1614.338226810327	84.077378528451
10	4278	1616.786648416007	82.512937448238
10	4279	1618.283679998907	83.231664723249
10	4288	1619.905684954951	81.032548338178
10	4296	1622.091890793723	80.764335048713
10	4297	1622.603431498087	80.437810741024
10	4298	1622.784422050569	78.486363272253
10	4299	1623.339154065095	78.664803923023
10	4309	1627.277358855395	81.260973929058
10	4319	1630.132242593563	74.771608168154
10	4320	1630.288795777885	73.026966715972
10	4344	1637.507726142982	74.886055825848
10	4347	1638.928780432121	76.26236480297
10	4348	1640.962022561064	76.277032913737
10	4349	1641.680606824076	76.893152871171
10	4350	1642.62583687146	77.615065254038
10	4351	1642.758783328517	77.659538205778
10	4352	1643.232695272396	76.513299149557
10	4370	1648.715114897268	76.29375088548
10	4371	1650.207003137772	77.006514034319
10	4380	1653.845110089182	78.789023297933
10	4384	1655.04046638737	78.155643482839
10	4385	1655.218670110775	75.427302162007
10	4386	1655.286470991032	75.384983274838
10	4389	1656.16364807785	76.060213774797
10	4394	1658.480457421512	78.088046504494
10	4397	1660.76016708503	78.499502913305
10	4398	1661.042693481016	77.535072190612
10	4402	1661.68276517268	72.472612609403
10	4407	1663.690860652347	74.053721036126
10	4451	1678.785155056375	85.275156221007
10	4452	1678.846818116045	85.052059408429
10	4456	1679.616847614119	83.334003704773
10	4466	1682.425653453265	81.632483808623
10	4467	1683.032391131157	82.143767419801
10	4468	1684.253634155135	81.704729479839
10	4469	1685.400282479449	81.451797518427
10	4470	1685.572188357988	81.521648250167
10	4490	1690.991444723257	84.860193828699
10	4501	1693.823138505028	87.25447081071
10	4507	1696.818953199894	89.764450598794
10	4508	1696.914710398263	87.471049561246
10	4517	1699.126558100323	86.222356587127
10	4521	1699.679889610021	84.498644544092
10	4528	1703.234458318834	87.506489505331
10	4529	1703.637991646494	85.019175192021
10	4532	1704.997962159262	85.150543596603
10	4533	1705.023340599515	84.053076965302
10	4554	1712.111532778302	87.107702487819
10	4555	1713.361428020145	87.193414226894
10	4558	1715.142452003244	88.914708873324
10	4559	1716.718726276418	89.45047399221
10	4565	1718.176624082924	90.749971551881
10	4574	1721.221877084922	90.715627930309
10	4583	1724.306395208269	90.888299694933
10	4587	1731.838733850876	98.152041274163
10	4593	1733.394787542794	98.135223472484
10	4594	1734.94333470036	98.520125051942
10	4595	1735.402966946491	96.901920926778
10	4608	1740.998802861918	96.39693583638
10	4619	1744.858182677409	97.152490194199
10	4635	1750.109263029012	97.452916199404
10	4642	1755.219014536419	101.28775647098
10	4652	1758.359706187216	100.29139286223
10	4653	1758.578012300267	100.34156862989
10	4660	1761.01795936901	100.47152182892
10	4667	1763.822038907681	102.65085596128
10	4694	1770.564192482183	105.02015186866
10	4695	1771.88960002853	106.29363325904
10	4696	1773.02183141722	104.1889458772
10	4708	1775.408537051311	102.0965496494
10	4709	1777.494977657659	102.44818690387
10	4713	1778.874278560802	102.54547231784
10	4724	1784.562245635658	106.97222595358
10	4735	1789.676341529735	110.58204510357
10	4740	1790.757496950534	110.81999048746
10	4760	1797.983213305256	116.15658739777
10	4771	1800.806043691403	114.1223082655
10	4772	1800.88541967396	112.48728312322
10	4775	1803.282566500559	111.90071008766
10	4778	1804.163351330269	110.91481997952
10	4783	1806.814128990327	113.4166357522
10	4803	1813.54842056828	114.85301305512
10	4804	1814.363293431748	115.58926472669
10	4805	1814.560870909386	115.18325189437
10	4808	1815.066518381194	114.85040455226
10	4814	1818.11590755223	115.9933386939
10	4850	1827.103965147699	119.76179876016
10	4870	1834.039928252472	119.4835344186
10	4871	1834.363108187634	117.37491578491
10	4872	1834.558359037435	117.13250816053
10	4873	1834.860340877463	116.52959011052
10	4874	1834.868287537686	115.43285028025
10	4878	1835.913420191735	113.93409498295
10	4881	1837.361781638917	115.00128897049
10	4905	1845.177618553159	109.4100806456
10	4911	1847.87829152837	111.01053620856
10	4912	1849.081858307618	111.44532944742
10	4913	1849.289263731547	109.17538323482
10	4917	1850.832129451513	107.96439859199
10	4918	1850.933192510101	106.60943043697
10	4919	1851.255814662362	104.11149709692
10	4920	1852.362649596956	104.66638607146
10	4921	1853.406865371946	105.55819629052
10	4922	1854.860764067561	106.73873514104
10	4923	1854.995034382784	106.16205666373
10	4924	1855.890152466529	104.75080789856
10	4925	1856.302755615681	100.85366873038
10	4934	1859.146876728718	102.65566163464
10	4935	1859.182351497398	100.9352435876
10	4936	1860.233390061971	100.41075604464
10	4937	1860.919770381234	100.90522282438
10	4938	1861.043697491625	100.96903649665
10	4948	1865.418146209258	101.51530822869
10	4956	1871.95030240823	106.0671813466
10	4957	1872.095995370932	105.60258982263
10	4961	1873.330308765341	104.7954775632
10	4962	1873.804603495679	100.55666487209
10	4965	1876.209579740529	102.26284403693
10	4966	1876.784715923751	102.74912600552
10	4972	1878.252634292535	103.48309621073
10	4979	1881.322674944987	98.759382538336
10	4980	1881.695706060335	98.57322078887
10	4981	1882.555728367953	98.297770105256
10	4995	1887.416272826836	101.20926879149
10	4996	1887.936605806363	100.57020438866
10	4997	1888.090648144962	98.306123524907
10	4998	1888.333437165201	97.648674874435
10	4999	1888.424876074097	97.514773992881
10	5016	1896.750406194417	103.21035564435
10	5017	1897.193824932064	102.78710713561
10	5018	1897.741817149398	102.45918805425
10	5021	1899.66032356663	104.18684745447
10	5035	1908.905762298231	112.73217838252
10	5040	1914.352992283821	116.08224461267
10	5041	1914.742226298888	115.55828547026
10	5053	1921.759166674491	119.61193908034
10	5054	1921.914257417695	118.0875913135
10	5063	1923.249542386005	116.89386344875
10	5070	1926.464838544698	118.69987612719
10	5081	1930.587007441743	120.47908556151
10	5093	1934.348553383559	122.61271044115
10	5105	1940.342925285811	125.74005276245
10	5109	1941.30174490358	123.33786000903
10	5110	1941.645995783966	122.93887513112
10	5140	1950.505771411339	127.64408230664
10	5146	1951.452115893273	128.11898528399
10	5150	1952.298475611341	128.35776035007
10	5151	1953.151471746428	128.76799755879
10	5152	1954.334697811565	127.84639658763
10	5155	1957.809825656872	128.62399422971
10	5172	1962.880314809707	129.65669641554
10	5173	1963.493900218161	129.50759039076
10	5193	1970.632161602701	130.66578365952
10	5194	1971.353619112351	130.63013832814
10	5199	1973.139684984278	130.69374155272
10	5224	1979.274447583644	133.37153495472
10	5227	1981.562190655904	134.62029697558
10	5232	1982.951399402307	133.31577548439
10	5238	1984.26053560597	127.26527574774
10	5242	1986.236292170504	123.88270434912
10	5259	1993.055637732759	124.25854611776
10	5260	1994.585513160309	124.98054434678
10	5266	1995.695563247212	123.124570892
10	5274	1997.67401167273	120.38235002394
11	5288	2000	0.4475
12	5288	2000	0.399

