version 2
run Monotonicity_test_recover_rate-349-20221219-18:28:24-16228
attr configname Monotonicity_test_recover_rate
attr datetime 20221219-18:28:24
attr experiment Monotonicity_test_recover_rate
attr inifile omnetpp.ini
attr iterationvars $0=75
attr iterationvarsf 75-
attr measurement $0=75
attr network Network
attr processid 16228
attr repetition 49
attr replication #49
attr resultdir results
attr runnumber 349
attr seedset 49
param *.minion.arrival_mean 2
param *.minion.service_mean 1.5
param *.boss.arrival_mean 2.5
param *.boss.service_mean 0.5
param *.player.recover_rate_x 75
param **.minion.arrival_distribution 0
param **.minion.service_distribution 0
param **.boss.arrival_distribution 0
param **.boss.service_distribution 0

vector 0 Network.player minion_jobs_number_stat:vector ETV
attr source signal_minion_jobs_number
vector 1 Network.player minion_jobs_queue_number_stat:vector ETV
attr source signal_minion_jobs_queue_number
vector 2 Network.player minion_recovered_stat:vector ETV
attr source signal_minion_recovered
vector 3 Network.player minion_defeated_stat:vector ETV
attr source signal_minion_defeated
vector 4 Network.player boss_jobs_number_stat:vector ETV
attr source signal_boss_jobs_number
vector 5 Network.player boss_jobs_queue_number_stat:vector ETV
attr source signal_boss_jobs_queue_number
vector 6 Network.player boss_defeated_stat:vector ETV
attr source signal_boss_defeated
vector 7 Network.player minion_waiting_time_stat:vector ETV
attr source signal_minion_waiting_time
vector 8 Network.player boss_waiting_time_stat:vector ETV
attr source signal_boss_waiting_time
vector 9 Network.player boss_response_time_stat:vector ETV
attr source signal_boss_response_time
vector 10 Network.player minion_response_time_stat:vector ETV
attr source signal_minion_response_time
vector 11 Network.player minion_throughput:vector ETV
attr source signal_minion_throughput
vector 12 Network.player boss_throughput:vector ETV
attr source signal_boss_throughput
0	0	0	0
0	2	2.339202524836	1
0	7	3.334100724562	2
0	11	5.059484011813	3
0	15	8.216438146475	3
0	17	8.318364970767	4
0	26	13.821444079044	2
0	28	14.216142551678	3
0	30	14.242560615207	4
0	40	15.657801133442	5
0	43	16.265679944784	6
0	45	17.318442263696	7
0	47	18.428005110063	8
0	57	21.208804393902	9
0	59	21.896559575999	10
0	64	23.361668968269	11
0	66	23.590876242861	12
0	78	31.781373441875	9
0	80	31.983425859105	10
0	94	39.087207421411	10
0	99	40.745309273676	11
0	101	41.607097593575	12
0	106	42.248123632816	13
0	109	42.454264110847	14
0	115	45.22919657524	14
0	123	49.377052595155	12
0	137	52.247748779511	13
0	143	54.07272363889	13
0	148	57.156010213746	11
0	152	59.148691251401	10
0	155	59.731916334469	10
0	157	60.261021328781	11
0	164	62.95279598743	12
0	170	64.103736686356	12
0	172	64.787234804069	13
0	181	66.569359142953	14
0	190	69.406118401896	11
0	193	70.585192845212	11
0	209	77.423712032341	10
0	217	79.423475115078	10
0	225	80.638098012127	11
0	249	85.920795423155	9
0	251	86.220343267709	10
0	253	86.513788197335	11
0	264	87.599484543611	12
0	266	88.101030437283	13
0	269	90.186678333937	13
0	275	91.65004027682	13
0	284	95.047151927278	10
0	286	95.423094392223	11
0	290	96.667418777754	10
0	292	96.806339252444	11
0	294	97.451852403226	12
0	304	100.730498926359	11
0	308	102.128829014358	10
0	310	102.517209419152	11
0	316	104.477609190626	12
0	321	105.291798761483	12
0	332	109.414348986978	7
0	339	111.486187576988	6
0	341	112.504645770776	7
0	344	113.531633554131	7
0	351	114.943616180797	7
0	357	117.748783188716	6
0	362	119.158190934723	7
0	364	119.28719405569	8
0	371	121.591854406497	7
0	382	125.632751354444	7
0	389	126.291905554894	8
0	393	127.122584495489	9
0	410	132.823573910049	7
0	422	138.13349488708	4
0	432	143.016908389548	4
0	445	147.557149490539	5
0	450	149.116820063426	6
0	452	150.009844211716	7
0	454	150.020988162494	8
0	463	153.578044127145	8
0	473	156.610313989065	4
0	475	156.692308446171	5
0	478	157.773638263642	5
0	480	157.961205503245	6
0	482	158.338309126917	7
0	484	159.032947197966	8
0	492	161.249457272249	8
0	495	161.878728187459	9
0	506	164.640747262577	7
0	514	165.090793357039	8
0	516	165.613288615111	9
0	518	165.750892783865	10
0	526	168.400432798085	8
0	531	171.427216536634	9
0	536	171.738457267482	9
0	551	175.075787017474	10
0	553	177.02673595513	11
0	577	188.931974189489	6
0	583	189.689436619685	7
0	585	189.741809333579	8
0	588	192.207480777593	9
0	590	192.416811827119	10
0	592	193.263830216439	11
0	598	196.720883193168	11
0	600	196.826148460842	12
0	607	200.172983583905	8
0	613	203.067693940138	8
0	619	205.545372790359	8
0	629	207.367389645061	9
0	644	214.311622811168	4
0	650	215.585949928295	4
0	652	216.014257440202	5
0	663	221.354091481182	5
0	669	222.851989525778	6
0	678	230.267756232703	5
0	680	230.431585674939	6
0	682	230.704033497293	7
0	700	236.777174661119	8
0	702	238.193806216118	9
0	718	244.386878892868	7
0	722	246.724459433717	7
0	726	248.105079473858	6
0	728	248.851087215423	7
0	736	254.129142623858	5
0	738	255.050466376678	6
0	740	255.208126252052	7
0	742	255.571155621143	8
0	748	257.44351733059	7
0	754	258.899901059888	8
0	758	259.339613993062	9
0	771	261.599024702553	6
0	782	263.584652194403	6
0	784	263.965042485168	7
0	791	267.888475381936	7
0	799	271.949371634147	8
0	803	272.484903643676	9
0	805	272.576749210432	10
0	812	276.94181707877	7
0	815	277.259545707413	7
0	817	278.827594998976	8
0	819	279.404241548396	9
0	828	285.8706503162	6
0	841	290.341250468644	5
0	843	290.702111547813	6
0	851	292.909065969284	7
0	858	293.908961794658	8
0	865	295.96070840808	8
0	890	304.382249587743	4
0	905	311.600481005184	1
0	908	312.034517113155	1
0	910	312.55855133391	2
0	916	313.207411325824	2
0	923	314.937664850108	3
0	927	315.630212214877	3
0	933	320.983678369044	3
0	937	322.393721169924	4
0	949	326.058058433181	3
0	965	330.650114419383	4
0	968	333.529620084463	4
0	978	339.159438365924	3
0	986	340.992389510888	4
0	991	341.255037373249	4
0	1003	345.578154777585	2
0	1012	347.00254519509	2
0	1014	347.713851372344	3
0	1023	350.330019954846	3
0	1025	350.627410499633	4
0	1028	351.394292014895	4
0	1033	352.472500634747	5
0	1037	353.809487467395	4
0	1043	355.438012707226	4
0	1045	357.622189854142	5
0	1050	359.224314149634	3
0	1055	363.954531229911	1
0	1067	372.134661889424	1
0	1070	373.668361433573	1
0	1072	374.171872480677	2
0	1074	374.572314479167	3
0	1077	375.953950722446	3
0	1080	378.236633111498	3
0	1082	379.177799719755	4
0	1084	379.25534948983	5
0	1086	381.021115310787	6
0	1088	381.92047759	7
0	1090	382.361784969119	8
0	1092	382.695007414721	9
0	1095	383.802736256588	9
0	1100	384.857227242378	7
0	1104	386.325984819776	6
0	1114	390.038829987287	5
0	1129	393.476588937573	2
0	1131	393.709244602442	3
0	1139	397.528315163725	1
0	1153	402.683520685551	1
0	1159	404.051045796637	2
0	1161	404.131003696873	3
0	1164	405.141783032422	3
0	1171	406.332623093973	2
0	1173	406.410616533182	3
0	1176	406.806551402756	3
0	1180	408.637945840058	4
0	1183	409.52710709225	5
0	1186	411.247704625496	5
0	1189	413.773502696402	5
0	1194	417.675691763621	5
0	1200	418.295034546085	6
0	1205	420.646621621623	7
0	1211	424.775521757951	4
0	1223	427.297008427925	4
0	1226	428.462505566434	4
0	1228	428.536966661892	5
0	1244	437.518074332328	4
0	1249	439.11005576839	5
0	1251	439.488938342797	6
0	1253	439.553566709259	7
0	1255	439.645746759908	8
0	1257	441.263023813837	9
0	1262	441.584697079654	10
0	1269	444.599832365169	9
0	1276	445.930332418353	10
0	1282	448.072101652201	11
0	1285	449.034740092075	11
0	1289	449.557107609876	10
0	1294	453.384407854447	8
0	1296	455.439119112169	9
0	1298	456.301966666705	10
0	1310	462.11779345646	10
0	1316	464.122838317186	10
0	1326	466.024694433611	10
0	1328	466.559525203928	11
0	1336	470.211699844577	11
0	1339	472.350848338353	11
0	1342	473.403116249712	11
0	1344	474.809689966657	12
0	1347	475.624398989462	12
0	1353	476.264803813688	13
0	1357	476.81016175335	14
0	1361	480.502263369591	13
0	1363	482.381982641262	14
0	1374	485.975912546839	15
0	1383	487.292283438287	16
0	1389	488.254101630277	17
0	1397	490.59293442818	16
0	1414	500.012096611119	11
0	1416	502.080563162002	12
0	1435	507.630552611221	11
0	1438	507.91804452876	12
0	1446	512.727248605476	12
0	1450	515.552352464473	11
0	1452	517.30410076394	12
0	1454	517.769608229123	13
0	1458	518.710677849237	12
0	1460	518.810133299231	13
0	1467	519.968248244573	14
0	1476	522.977219778025	15
0	1487	529.36511002561	16
0	1503	536.019484162952	15
0	1505	536.520326611473	16
0	1508	537.431543543787	16
0	1511	538.082169791954	16
0	1513	538.456660101534	17
0	1516	539.499301975035	17
0	1518	539.671335068165	18
0	1522	543.693853120786	17
0	1524	543.796808564076	18
0	1526	545.495650090212	19
0	1530	546.654155623342	20
0	1533	548.843300498193	21
0	1536	549.615213698626	21
0	1538	550.111302435277	22
0	1540	550.226304921435	23
0	1543	551.302953430965	23
0	1547	552.461515728488	24
0	1552	556.509781129995	25
0	1563	558.83901961702	26
0	1566	559.585031225674	27
0	1568	560.102620430432	28
0	1570	560.501337840806	29
0	1579	563.079697577623	29
0	1593	567.760881000778	24
0	1596	567.894371540936	24
0	1601	576.617260035089	22
0	1603	577.128519883192	23
0	1623	586.790760646852	21
0	1626	587.872581823917	21
0	1632	589.196695830736	20
0	1646	592.349532107045	20
0	1648	592.445345965869	21
0	1664	598.812725863561	19
0	1667	601.403464415851	19
0	1673	603.717915090338	19
0	1689	610.623123880028	16
0	1697	614.010640450307	13
0	1700	615.054871511849	13
0	1707	617.311901150626	14
0	1709	617.361467385387	15
0	1719	620.892936499033	15
0	1723	622.346805031891	14
0	1728	624.827736429044	15
0	1730	624.871994579184	16
0	1732	626.148482669203	17
0	1734	629.079760636793	18
0	1736	629.509165048239	19
0	1739	630.074329818434	19
0	1746	633.772772735453	18
0	1751	637.192742960814	18
0	1760	642.420359207452	17
0	1770	644.565271052889	18
0	1778	646.090196237942	18
0	1790	651.045120688526	19
0	1792	651.248941505196	20
0	1798	655.803156258655	20
0	1803	657.455497848619	18
0	1822	662.042405875589	16
0	1831	666.073499362184	17
0	1833	666.242079340402	18
0	1837	669.180313105276	17
0	1839	670.821649205742	18
0	1842	671.56614763753	18
0	1848	672.560713351339	17
0	1852	673.135131269136	17
0	1858	676.568553339788	16
0	1864	679.377956869529	16
0	1873	681.031080613471	16
0	1879	686.747897088145	17
0	1901	692.076670537459	10
0	1903	692.813152740758	11
0	1920	695.506786295525	7
0	1924	698.781511756175	8
0	1926	699.670598969447	9
0	1928	699.953855527644	10
0	1930	700.180011974046	11
0	1938	704.602550212091	11
0	1942	708.785472663438	11
0	1945	709.498389244018	11
0	1948	711.105276843216	11
0	1951	711.662449050547	11
0	1953	712.722633223925	12
0	1956	714.191909416258	12
0	1959	714.877359345377	12
0	1978	719.632418408824	12
0	1986	722.542186964237	12
0	2007	734.533775446966	9
0	2019	738.199856448246	9
0	2021	738.433167238979	10
0	2030	742.659507885795	10
0	2034	743.124694499205	11
0	2046	745.832707210124	12
0	2053	747.718000269338	11
0	2056	747.863599362936	11
0	2064	752.539528198339	9
0	2066	752.842337247473	10
0	2072	755.527468022849	10
0	2074	755.653654102056	11
0	2079	757.050499130561	12
0	2081	757.608299969478	13
0	2085	759.919327629216	12
0	2087	760.31947813713	13
0	2094	763.101270980576	12
0	2099	764.185941100593	13
0	2103	765.778708907804	14
0	2109	774.030551879908	12
0	2111	774.683848220638	13
0	2122	780.060523348464	11
0	2141	787.098017851383	6
0	2154	791.731090427382	3
0	2159	795.488871594798	1
0	2167	798.591136761156	2
0	2174	801.486569543892	1
0	2176	801.668469278154	2
0	2180	802.564984501167	3
0	2186	804.494491152215	4
0	2189	805.028343948494	4
0	2194	806.118154806651	5
0	2196	807.632240722582	6
0	2198	808.767473124512	7
0	2200	808.950184887639	8
0	2203	809.361619994149	8
0	2214	813.548885862732	6
0	2216	814.438235231607	7
0	2218	815.603946087577	8
0	2230	821.151374598075	8
0	2244	828.831402543025	5
0	2246	829.058965436265	6
0	2258	832.932769193222	3
0	2263	835.318325590175	2
0	2274	838.315990753019	3
0	2280	840.941441813083	3
0	2282	841.396269827557	4
0	2284	842.242557012627	5
0	2286	842.473065468111	6
0	2298	846.317030128682	6
0	2301	848.263368701586	6
0	2303	848.327397590384	7
0	2306	848.621851202119	7
0	2320	852.5244139252	8
0	2322	853.481004838021	9
0	2325	853.881851529257	9
0	2330	855.745112252984	10
0	2332	855.914911757835	11
0	2335	856.400697135123	11
0	2350	860.902876194618	8
0	2357	862.481758094889	7
0	2365	864.951567580173	8
0	2372	868.118740297891	7
0	2374	868.267866550648	8
0	2380	869.662337766969	9
0	2392	873.810959672724	8
0	2401	879.599293239063	5
0	2406	882.902235067112	3
0	2418	886.356773741284	4
0	2424	889.065745160263	3
0	2428	889.405288631711	2
0	2437	894.377676543297	1
0	2442	895.520394566455	2
0	2449	897.729723643077	2
0	2454	898.718946341352	2
0	2457	900.301611684744	3
0	2460	900.724378616344	3
0	2462	901.399002811312	4
0	2464	906.902700540397	5
0	2470	907.479577543905	5
0	2475	908.321761321047	6
0	2488	913.245623185929	5
0	2491	915.339558739005	5
0	2498	917.334964540071	6
0	2501	920.134516625398	7
0	2503	920.318133608338	8
0	2505	920.322068343054	9
0	2511	922.47007949953	9
0	2513	922.997887726076	10
0	2515	923.498520979373	11
0	2517	923.658242835281	12
0	2523	925.376823606631	12
0	2536	928.314520668205	10
0	2542	931.854624379892	11
0	2545	933.323923119615	11
0	2550	933.624823860993	12
0	2552	933.941157093799	13
0	2555	935.859763854401	13
0	2557	935.875599910818	14
0	2560	940.878524374363	14
0	2562	942.437561802843	15
0	2564	942.616318726753	16
0	2567	943.587388061658	16
0	2574	945.844333102191	15
0	2583	950.244839989232	12
0	2597	955.972845146535	9
0	2606	959.659900255666	7
0	2609	959.989600052972	7
0	2619	964.908331106637	3
0	2622	966.279353462277	3
0	2629	969.102308469434	2
0	2631	969.187355014805	3
0	2633	969.352240247963	4
0	2642	972.617818010859	4
0	2647	975.946671524894	2
0	2651	977.180606680977	3
0	2658	979.408685506159	3
0	2668	983.418821515955	1
0	2672	985.768190724105	1
0	2677	986.255979587943	2
0	2683	987.632690580901	3
0	2693	990.804403595812	3
0	2695	991.010788467827	4
0	2703	991.972734751048	5
0	2706	992.077335533543	6
0	2720	997.434668670289	1
0	2724	999.971137791537	2
0	2727	1000.736682107382	3
0	2729	1007.601245721232	4
0	2737	1009.312198481805	5
0	2758	1018.850474458107	4
0	2787	1030.294324474472	2
0	2792	1030.919212321309	3
0	2797	1032.258212613501	4
0	2799	1032.297048995585	5
0	2802	1033.335088327561	6
0	2806	1037.542547429846	5
0	2810	1039.033873140869	4
0	2817	1039.926060888555	3
0	2822	1040.919810619403	3
0	2825	1041.526346699668	4
0	2828	1042.59197379754	4
0	2837	1046.293325484133	5
0	2844	1047.423035104957	6
0	2852	1051.935783291113	7
0	2858	1052.489461364679	7
0	2863	1053.742063077809	8
0	2872	1058.581361191634	5
0	2877	1059.951718036538	6
0	2881	1060.691529186151	5
0	2894	1064.737893052981	5
0	2921	1070.697299177176	1
0	2925	1071.284073170211	2
0	2930	1072.134473164106	3
0	2932	1072.992995739275	4
0	2941	1075.807815747159	5
0	2951	1080.566739677194	4
0	2954	1081.31765712204	4
0	2957	1083.330687701511	4
0	2959	1083.570517984809	5
0	2966	1086.142307255673	4
0	2978	1090.636505537392	4
0	2980	1090.907823301825	5
0	2982	1093.133623893791	6
0	2984	1093.366057388032	7
0	2992	1095.970514406135	5
0	3006	1101.752764383728	3
0	3008	1102.841433535494	4
0	3013	1106.182647252842	4
0	3015	1106.441863253747	5
0	3020	1108.002348036628	4
0	3022	1108.310007034954	5
0	3026	1109.333439969195	4
0	3030	1110.607602401111	3
0	3036	1113.186218135928	3
0	3040	1113.384496613264	4
0	3043	1114.323748152405	5
0	3047	1115.843842195122	6
0	3050	1116.680525268256	7
0	3062	1122.619638850666	7
0	3075	1127.230130943604	8
0	3078	1127.280254988668	9
0	3083	1129.87771538933	10
0	3090	1132.545444342669	11
0	3094	1133.924967345143	11
0	3100	1134.937895927828	10
0	3106	1136.281531270195	11
0	3112	1139.508902640297	11
0	3121	1143.281223556604	11
0	3124	1143.94023834086	11
0	3127	1144.76004275614	11
0	3132	1145.223437098862	12
0	3134	1145.484618778316	13
0	3136	1146.862023330717	14
0	3138	1148.250603733277	15
0	3140	1148.499357721217	16
0	3146	1151.684066476727	16
0	3152	1152.462737074567	16
0	3154	1154.007493724491	17
0	3156	1154.700729267196	18
0	3158	1155.406029960524	19
0	3163	1159.798887972266	20
0	3165	1161.507193701693	21
0	3186	1167.884974340207	18
0	3188	1168.458691889417	19
0	3190	1169.364843993257	20
0	3205	1171.555223859642	21
0	3207	1172.658532357496	22
0	3211	1173.374833487422	23
0	3218	1174.437198467297	24
0	3220	1174.779344870664	25
0	3222	1175.345277404133	26
0	3227	1176.596803608271	27
0	3236	1179.946465678318	25
0	3239	1182.132032109785	25
0	3242	1183.329529123441	25
0	3247	1184.763930764702	26
0	3251	1186.264711197095	25
0	3253	1189.266160936567	26
0	3256	1190.756532677267	26
0	3264	1194.725879724579	26
0	3267	1194.791880657334	27
0	3275	1196.77322101034	28
0	3278	1199.307871528837	28
0	3282	1199.811515897068	29
0	3284	1200.092921566753	30
0	3291	1204.832035355609	30
0	3309	1208.075787325988	30
0	3311	1208.499858628735	31
0	3314	1212.458142748776	31
0	3318	1213.531292978738	32
0	3322	1214.149582995748	33
0	3324	1214.255675365046	34
0	3331	1217.1447076574	35
0	3333	1219.333877258114	36
0	3336	1219.765043280485	36
0	3339	1221.366616715277	36
0	3341	1223.003106189139	37
0	3346	1226.562896797608	38
0	3348	1227.471311958147	39
0	3350	1227.796282098866	40
0	3352	1228.411209494739	41
0	3362	1232.107374411167	40
0	3373	1237.943048498205	38
0	3378	1242.50002475652	36
0	3380	1243.846814004608	37
0	3382	1243.949074617443	38
0	3390	1246.949333899252	39
0	3392	1247.097195343041	40
0	3395	1248.85649394627	40
0	3400	1252.469175174757	40
0	3409	1257.360487634039	40
0	3412	1258.860298039952	41
0	3417	1260.980696401686	42
0	3420	1262.630020271461	42
0	3432	1269.762377123775	39
0	3434	1270.167860968218	40
0	3437	1273.546801488243	40
0	3439	1273.883690471261	41
0	3442	1275.994237996302	41
0	3447	1279.108291696898	42
0	3451	1281.966587336984	41
0	3454	1283.931945494546	41
0	3456	1284.72670467179	42
0	3469	1288.412134453968	41
0	3483	1292.057199019526	41
0	3487	1292.552725331341	41
0	3490	1292.944133301423	41
0	3498	1295.455533879908	42
0	3507	1299.944587666443	42
0	3520	1303.08571264924	41
0	3529	1306.753795451569	41
0	3532	1308.009675706275	41
0	3541	1311.11042287508	41
0	3544	1313.278915146728	41
0	3548	1313.997717072055	42
0	3556	1316.36766803075	43
0	3564	1320.090434642986	39
0	3570	1322.804475834399	39
0	3575	1324.238567887896	40
0	3578	1324.597970822388	40
0	3584	1325.401429950265	40
0	3594	1327.513897022178	39
0	3598	1329.565483356132	38
0	3600	1329.638661911799	39
0	3603	1330.159079253883	39
0	3605	1330.402953497664	40
0	3619	1337.362369769868	38
0	3623	1337.879102665777	39
0	3626	1338.221161052598	40
0	3643	1343.974048470087	38
0	3646	1344.921253949205	38
0	3653	1347.356369855031	37
0	3655	1347.609518191832	38
0	3661	1350.152550816254	38
0	3663	1351.158917455127	39
0	3665	1351.873732066129	40
0	3667	1352.18829377135	41
0	3669	1352.604200420922	42
0	3674	1355.04119579353	43
0	3676	1355.634585772044	44
0	3679	1356.964887417853	44
0	3684	1360.960251419236	45
0	3688	1361.301323555987	46
0	3698	1364.721232025731	43
0	3701	1365.024196309456	43
0	3704	1365.16805874696	43
0	3723	1375.084135126121	39
0	3725	1375.100434654325	40
0	3734	1380.2800671232	39
0	3736	1381.008810767351	40
0	3742	1383.484234095037	41
0	3746	1385.691081801331	40
0	3760	1391.021708013857	38
0	3762	1392.920112357627	39
0	3768	1398.552864551651	39
0	3771	1398.811481677487	39
0	3777	1401.151498162722	39
0	3779	1401.47106938903	40
0	3786	1404.171042453094	39
0	3789	1405.550931638247	39
0	3792	1406.25015730986	39
0	3800	1408.771108547181	40
0	3806	1411.287842438186	40
0	3811	1413.348702478039	41
0	3814	1414.794501722436	41
0	3816	1415.713294080389	42
0	3821	1416.303031914187	43
0	3826	1418.068835661575	44
0	3834	1421.252336767292	42
0	3839	1425.567485833065	43
0	3842	1426.661641968383	43
0	3844	1426.70610932413	44
0	3847	1428.54225075838	44
0	3851	1429.571139580498	45
0	3857	1431.404542552607	46
0	3878	1442.636023313488	43
0	3881	1444.618244807568	43
0	3888	1446.126141047139	44
0	3896	1449.936887867732	43
0	3902	1452.231889587011	42
0	3915	1457.534746978379	39
0	3917	1457.793316263236	40
0	3935	1461.814078596208	37
0	3937	1461.937575094562	38
0	3941	1462.306755806804	39
0	3947	1464.260027257174	40
0	3949	1464.88866704992	41
0	3955	1467.717138948177	41
0	3964	1472.132890649934	38
0	3974	1476.991265223538	34
0	3976	1477.224844331831	35
0	3979	1477.548847523338	35
0	3987	1480.225014213308	33
0	3991	1480.803824987155	32
0	3995	1482.485988858542	33
0	4000	1484.988417366562	32
0	4011	1488.297888677591	29
0	4016	1489.845639606735	30
0	4025	1494.175387570116	31
0	4031	1496.700712007711	28
0	4037	1501.797683619207	28
0	4039	1502.584964336743	29
0	4047	1504.568789366012	27
0	4053	1506.235704241896	27
0	4055	1506.944173259322	28
0	4070	1518.274071984491	25
0	4072	1518.962114151647	26
0	4076	1519.271134342717	27
0	4079	1519.452814134748	28
0	4082	1519.830209972164	28
0	4085	1523.566201815777	28
0	4090	1524.772613579214	28
0	4095	1527.062208113838	27
0	4098	1527.745747950536	27
0	4102	1529.239298170571	26
0	4106	1530.705713738278	25
0	4113	1533.386290657317	24
0	4125	1538.261554624523	23
0	4127	1538.369879274504	24
0	4145	1546.241496316186	24
0	4154	1550.559288509317	22
0	4159	1552.331672538388	22
0	4165	1553.504245912828	23
0	4168	1555.176320685942	23
0	4170	1555.317706659655	24
0	4175	1556.714750075032	24
0	4177	1556.884873251295	25
0	4182	1559.464296472188	24
0	4184	1559.719547297771	25
0	4186	1560.196926453102	26
0	4194	1561.849935416253	27
0	4196	1562.016445151438	28
0	4206	1567.17527340276	26
0	4218	1574.707777737873	26
0	4220	1575.423402110145	27
0	4222	1575.929914320479	28
0	4228	1579.004141897145	29
0	4232	1579.501569217953	30
0	4234	1579.534231315093	31
0	4245	1585.899717881902	32
0	4251	1587.071028573486	32
0	4266	1593.184628309193	27
0	4273	1595.82582506426	26
0	4285	1601.135890159708	25
0	4291	1602.222062135131	26
0	4294	1603.191043604628	26
0	4296	1603.596882076834	27
0	4311	1607.215113548525	27
0	4314	1610.411713895954	27
0	4317	1612.895991869041	27
0	4325	1615.52254605101	28
0	4327	1615.737949570588	29
0	4330	1616.622351422936	29
0	4349	1621.261745353801	28
0	4352	1623.741078361662	28
0	4359	1627.687705071574	27
0	4361	1627.778915620464	28
0	4364	1629.600737006307	28
0	4369	1631.073856343145	28
0	4371	1631.418579248671	29
0	4375	1632.516631561421	29
0	4385	1637.618999870414	30
0	4390	1639.239404535554	29
0	4401	1642.060538213299	30
0	4406	1644.044299568198	28
0	4412	1646.380155030356	28
0	4421	1652.798296694661	25
0	4423	1654.207835119925	26
0	4425	1654.606591179852	27
0	4433	1656.963279748988	26
0	4441	1660.091707414322	25
0	4452	1664.720900496704	24
0	4454	1666.09096049735	25
0	4465	1669.233086444121	25
0	4476	1672.775815287002	24
0	4478	1673.102424563932	25
0	4480	1673.586434185613	26
0	4487	1676.109383179073	25
0	4497	1679.933668930329	24
0	4503	1682.013299956078	24
0	4505	1683.501100547571	25
0	4508	1684.943145713154	25
0	4510	1685.235074113091	26
0	4515	1686.957557699111	26
0	4525	1691.363634097443	26
0	4531	1693.261323223549	26
0	4535	1694.496863542717	25
0	4541	1701.576678543419	25
0	4549	1702.610385835877	26
0	4564	1707.053510488852	23
0	4567	1708.072601565431	23
0	4571	1709.988083571376	22
0	4573	1709.997598644286	23
0	4586	1715.581803065218	21
0	4589	1721.740355610942	22
0	4593	1722.578789724329	23
0	4616	1731.345544020532	24
0	4619	1732.330047399741	25
0	4634	1740.23162811496	22
0	4643	1745.19491670105	19
0	4645	1745.207298908459	20
0	4655	1747.879957996503	20
0	4659	1750.129158269099	21
0	4662	1750.996734256207	21
0	4667	1752.921734292659	19
0	4670	1755.63691218168	19
0	4678	1756.188115057328	20
0	4681	1758.00410766919	20
0	4687	1759.422137910357	19
0	4692	1759.814514748521	20
0	4698	1761.720188251428	21
0	4702	1762.900938022018	22
0	4712	1765.264985914417	22
0	4714	1766.392991124809	23
0	4723	1768.973877011937	24
0	4729	1772.145944688633	25
0	4739	1776.59923058505	25
0	4742	1777.994975007937	25
0	4746	1778.461470750068	26
0	4757	1782.960773940679	26
0	4770	1788.222967564835	27
0	4772	1788.356021894719	28
0	4778	1794.499353601735	28
0	4787	1801.576665411584	28
0	4789	1801.797855728115	29
0	4798	1807.261925208423	29
0	4800	1807.505330027957	30
0	4803	1808.195698998537	30
0	4814	1812.258699896059	31
0	4818	1813.288625568797	30
0	4831	1820.349833593714	29
0	4833	1820.509981182639	30
0	4842	1821.926364571713	31
0	4846	1822.150227062188	32
0	4854	1824.445484398077	33
0	4856	1825.394504970861	34
0	4874	1834.551314252749	31
0	4881	1835.162887959175	32
0	4886	1835.878844247133	33
0	4888	1836.53501759819	34
0	4891	1837.700432779185	35
0	4894	1838.870588625006	35
0	4897	1840.332101364	35
0	4903	1842.319077613622	35
0	4919	1848.892853277728	31
0	4921	1850.182088239032	32
0	4927	1851.858088187861	32
0	4932	1852.454352846416	32
0	4934	1852.593318846152	33
0	4948	1856.800074018663	32
0	4950	1857.184410179194	33
0	4954	1860.4268361081	32
0	4959	1861.66944146304	33
0	4961	1861.803041718435	34
0	4964	1863.965900587207	34
0	4969	1864.5939420314	34
0	4972	1865.113303697932	35
0	4979	1871.275759919134	34
0	4985	1871.785848260164	35
0	4987	1872.212825866593	36
0	4994	1874.094284523371	37
0	5006	1879.030956521264	34
0	5009	1879.777285870063	34
0	5015	1880.946543491037	34
0	5017	1880.989335610279	35
0	5032	1885.72753690338	35
0	5034	1886.591604868525	36
0	5040	1889.400680999709	33
0	5043	1891.227542669983	33
0	5046	1892.893660856576	33
0	5053	1895.372478469836	32
0	5055	1895.827436978098	33
0	5071	1900.334663453742	32
0	5078	1903.895311024782	31
0	5087	1907.000916810313	31
0	5090	1908.856336644831	31
0	5098	1913.757676678256	29
0	5105	1917.701506306109	28
0	5119	1919.908397125373	29
0	5136	1925.43819572438	27
0	5138	1926.034137903145	28
0	5159	1936.455522479034	21
0	5163	1937.067019142739	21
0	5165	1938.169866454824	22
0	5167	1938.185983571028	23
0	5176	1940.531266066441	23
0	5186	1947.353022460966	22
0	5188	1949.062880107145	23
0	5190	1949.730811598718	24
0	5192	1950.005309867722	25
0	5209	1954.619222522949	23
0	5219	1959.44010755715	24
0	5225	1962.026866777494	25
0	5232	1963.651629616611	24
0	5238	1965.459758464468	24
0	5240	1966.112523763446	25
0	5246	1967.769219268268	25
0	5248	1968.628742074931	26
0	5250	1968.896291873985	27
0	5273	1973.645823602667	26
0	5285	1977.019193473099	25
0	5287	1978.162272995254	26
0	5295	1982.378954078306	24
0	5298	1983.479149931253	24
0	5309	1984.174559930048	25
0	5315	1988.489207431855	25
0	5324	1992.405622918656	22
0	5326	1993.412738813514	23
0	5328	1994.407149752355	24
0	5332	1994.772561525935	25
0	5339	1998.596451677227	25
1	0	0	0
1	2	2.339202524836	0
1	7	3.334100724562	1
1	11	5.059484011813	2
1	13	7.046016195942	2
1	15	8.216438146475	2
1	17	8.318364970767	3
1	18	8.437311378954	3
1	19	10.740915801976	2
1	20	12.623308929428	1
1	26	13.821444079044	1
1	28	14.216142551678	2
1	30	14.242560615207	3
1	40	15.657801133442	4
1	43	16.265679944784	5
1	45	17.318442263696	6
1	47	18.428005110063	7
1	57	21.208804393902	8
1	59	21.896559575999	9
1	64	23.361668968269	10
1	66	23.590876242861	11
1	73	27.631073879415	11
1	74	29.247814898039	10
1	75	29.734339743191	9
1	76	29.845624475752	8
1	78	31.781373441875	8
1	80	31.983425859105	9
1	87	37.356631545669	9
1	94	39.087207421411	9
1	99	40.745309273676	10
1	101	41.607097593575	11
1	106	42.248123632816	12
1	109	42.454264110847	13
1	110	43.348109414748	13
1	115	45.22919657524	13
1	119	46.508042905652	13
1	120	47.135332815964	12
1	121	47.93272863048	11
1	123	49.377052595155	11
1	137	52.247748779511	12
1	138	52.506675179119	12
1	143	54.07272363889	12
1	144	54.284516986673	12
1	145	55.972930423049	11
1	146	55.99255261347	10
1	148	57.156010213746	10
1	149	58.179233233226	10
1	150	58.473756929656	9
1	152	59.148691251401	9
1	153	59.225200577646	9
1	155	59.731916334469	9
1	157	60.261021328781	10
1	164	62.95279598743	11
1	166	63.293349444163	11
1	170	64.103736686356	11
1	172	64.787234804069	12
1	181	66.569359142953	13
1	185	67.570410797151	13
1	186	68.722410657054	12
1	187	68.894265908822	11
1	188	69.272071227136	10
1	190	69.406118401896	10
1	191	70.575308091427	10
1	193	70.585192845212	10
1	206	75.428159606661	10
1	207	77.043388762342	9
1	209	77.423712032341	9
1	210	78.158610092098	9
1	217	79.423475115078	9
1	225	80.638098012127	10
1	227	81.03686635768	10
1	228	81.477842655678	9
1	241	83.685345692324	8
1	249	85.920795423155	8
1	251	86.220343267709	9
1	253	86.513788197335	10
1	264	87.599484543611	11
1	266	88.101030437283	12
1	267	89.468527017763	12
1	269	90.186678333937	12
1	270	90.640139430019	12
1	275	91.65004027682	12
1	276	91.92734440481	12
1	277	93.030814067889	11
1	281	94.031563988065	10
1	282	94.957853086993	9
1	284	95.047151927278	9
1	286	95.423094392223	10
1	287	95.943079743699	10
1	288	96.564697209927	9
1	290	96.667418777754	9
1	292	96.806339252444	10
1	294	97.451852403226	11
1	295	97.677387627279	11
1	302	100.622584170871	10
1	304	100.730498926359	10
1	305	101.021284312922	10
1	306	101.519711227417	9
1	308	102.128829014358	9
1	310	102.517209419152	10
1	316	104.477609190626	11
1	319	105.069137713461	11
1	321	105.291798761483	11
1	322	105.381097849151	11
1	323	105.38354182659	10
1	324	105.466026043242	9
1	325	105.558452735731	8
1	326	106.304751035813	7
1	330	108.662113887464	6
1	332	109.414348986978	6
1	333	109.480278647037	6
1	334	111.168642105641	5
1	339	111.486187576988	5
1	341	112.504645770776	6
1	342	113.032712351849	6
1	344	113.531633554131	6
1	345	114.434065083488	6
1	351	114.943616180797	6
1	354	115.927991961467	6
1	355	117.653344212777	5
1	357	117.748783188716	5
1	362	119.158190934723	6
1	364	119.28719405569	7
1	365	119.62316725496	7
1	366	119.667058328479	6
1	371	121.591854406497	6
1	372	122.465187762259	6
1	382	125.632751354444	6
1	389	126.291905554894	7
1	393	127.122584495489	8
1	394	127.131700799693	8
1	395	127.271515801482	7
1	408	132.764135114104	6
1	410	132.823573910049	6
1	411	133.051565928558	6
1	412	133.489569949498	5
1	413	133.749434598518	4
1	420	138.005908354305	3
1	422	138.13349488708	3
1	423	140.548081184035	3
1	432	143.016908389548	3
1	445	147.557149490539	4
1	450	149.116820063426	5
1	452	150.009844211716	6
1	454	150.020988162494	7
1	461	152.945437639263	7
1	463	153.578044127145	7
1	464	153.624571047856	7
1	465	154.311303244233	6
1	466	155.164739711811	5
1	467	155.196330911399	4
1	471	156.310062368159	3
1	473	156.610313989065	3
1	475	156.692308446171	4
1	476	156.795129964313	4
1	478	157.773638263642	4
1	480	157.961205503245	5
1	482	158.338309126917	6
1	484	159.032947197966	7
1	485	159.529442121964	7
1	492	161.249457272249	7
1	495	161.878728187459	8
1	499	162.89763765422	8
1	500	163.664969615787	7
1	501	164.248882240708	6
1	506	164.640747262577	6
1	514	165.090793357039	7
1	516	165.613288615111	8
1	518	165.750892783865	9
1	522	166.64288878512	9
1	523	166.924987859591	8
1	524	167.821793390487	7
1	526	168.400432798085	7
1	531	171.427216536634	8
1	532	171.552307713769	8
1	536	171.738457267482	8
1	551	175.075787017474	9
1	553	177.02673595513	10
1	554	180.553603179031	10
1	555	181.274903059508	9
1	559	182.820778840207	8
1	566	185.830086577376	7
1	567	186.777979027744	6
1	571	187.723375171785	5
1	577	188.931974189489	5
1	583	189.689436619685	6
1	585	189.741809333579	7
1	588	192.207480777593	8
1	590	192.416811827119	9
1	592	193.263830216439	10
1	596	194.830900034965	10
1	598	196.720883193168	10
1	600	196.826148460842	11
1	601	197.097634042162	11
1	602	198.354073907855	10
1	603	198.517836829662	9
1	604	198.546651767099	8
1	605	198.907142042874	7
1	607	200.172983583905	7
1	608	201.859749896285	7
1	613	203.067693940138	7
1	614	204.4480536561	7
1	619	205.545372790359	7
1	629	207.367389645061	8
1	631	208.262578516615	8
1	632	209.053031096944	7
1	633	209.195906031523	6
1	637	210.647140577769	5
1	641	212.790211747635	4
1	642	212.822322921739	3
1	644	214.311622811168	3
1	645	214.818331216682	3
1	650	215.585949928295	3
1	652	216.014257440202	4
1	659	221.06457476177	4
1	663	221.354091481182	4
1	669	222.851989525778	5
1	670	224.479351958377	5
1	674	227.901951205186	4
1	678	230.267756232703	4
1	680	230.431585674939	5
1	682	230.704033497293	6
1	700	236.777174661119	7
1	702	238.193806216118	8
1	703	238.2085113868	8
1	710	240.404576632159	7
1	711	242.16812385968	6
1	718	244.386878892868	6
1	720	246.369130850557	6
1	722	246.724459433717	6
1	723	247.559665851569	6
1	724	247.96710337509	5
1	726	248.105079473858	5
1	728	248.851087215423	6
1	729	248.861952742018	6
1	733	251.946977410168	5
1	734	252.390122213023	4
1	736	254.129142623858	4
1	738	255.050466376678	5
1	740	255.208126252052	6
1	742	255.571155621143	7
1	743	255.923587837837	7
1	744	256.657406083096	6
1	748	257.44351733059	6
1	754	258.899901059888	7
1	758	259.339613993062	8
1	760	259.831472980091	8
1	761	259.889616698709	7
1	762	260.150126352832	6
1	769	261.144986071545	5
1	771	261.599024702553	5
1	775	262.335704984835	5
1	782	263.584652194403	5
1	784	263.965042485168	6
1	789	267.415900748017	6
1	791	267.888475381936	6
1	799	271.949371634147	7
1	803	272.484903643676	8
1	805	272.576749210432	9
1	807	273.327854965441	9
1	808	273.802940702433	8
1	809	275.318984153822	7
1	810	275.348572121154	6
1	812	276.94181707877	6
1	813	277.087291530991	6
1	815	277.259545707413	6
1	817	278.827594998976	7
1	819	279.404241548396	8
1	820	279.825918303483	8
1	824	283.746475549434	7
1	825	284.315625743006	6
1	826	284.385818956293	5
1	828	285.8706503162	5
1	829	286.7073300537	5
1	833	288.13265916919	4
1	841	290.341250468644	4
1	843	290.702111547813	5
1	851	292.909065969284	6
1	858	293.908961794658	7
1	863	295.825829425059	7
1	865	295.96070840808	7
1	866	299.901208808367	7
1	867	301.113824479883	6
1	877	301.666465044949	5
1	878	301.770552052223	4
1	879	302.014921389901	3
1	890	304.382249587743	3
1	891	304.467035041425	3
1	895	305.491034696029	2
1	896	306.585789381055	1
1	903	311.142179475024	0
1	905	311.600481005184	0
1	906	311.76389845683	0
1	908	312.034517113155	0
1	910	312.55855133391	1
1	911	312.855767533765	1
1	916	313.207411325824	1
1	923	314.937664850108	2
1	925	315.414725285243	2
1	927	315.630212214877	2
1	928	317.333504621955	2
1	933	320.983678369044	2
1	937	322.393721169924	3
1	942	325.109327177373	3
1	943	325.634186722561	2
1	949	326.058058433181	2
1	965	330.650114419383	3
1	966	332.884601817114	3
1	968	333.529620084463	3
1	969	333.53644377002	3
1	970	334.938506352637	2
1	978	339.159438365924	2
1	986	340.992389510888	3
1	987	341.04530319436	3
1	991	341.255037373249	3
1	993	342.514843835585	3
1	994	342.85835559003	2
1	998	344.222706821077	1
1	1003	345.578154777585	1
1	1007	346.067136315745	1
1	1012	347.00254519509	1
1	1014	347.713851372344	2
1	1015	347.823756241044	2
1	1023	350.330019954846	2
1	1025	350.627410499633	3
1	1026	351.255552090954	3
1	1028	351.394292014895	3
1	1033	352.472500634747	4
1	1034	353.536241114631	4
1	1035	353.627504846471	3
1	1037	353.809487467395	3
1	1038	354.127410276157	3
1	1043	355.438012707226	3
1	1045	357.622189854142	4
1	1046	357.775408638454	4
1	1047	358.327398893222	3
1	1048	358.945319500432	2
1	1050	359.224314149634	2
1	1051	361.374372998349	2
1	1052	361.965768438689	1
1	1053	363.663532932905	0
1	1055	363.954531229911	0
1	1059	367.290472536766	0
1	1067	372.134661889424	0
1	1068	373.470216192708	0
1	1070	373.668361433573	0
1	1072	374.171872480677	1
1	1074	374.572314479167	2
1	1075	375.692727740384	2
1	1077	375.953950722446	2
1	1078	377.887631989838	2
1	1080	378.236633111498	2
1	1082	379.177799719755	3
1	1084	379.25534948983	4
1	1086	381.021115310787	5
1	1088	381.92047759	6
1	1090	382.361784969119	7
1	1092	382.695007414721	8
1	1093	382.708150233262	8
1	1095	383.802736256588	8
1	1096	384.042896339937	8
1	1097	384.26734607587	7
1	1098	384.358867999194	6
1	1100	384.857227242378	6
1	1101	385.248256135892	6
1	1102	386.017403740993	5
1	1104	386.325984819776	5
1	1105	386.561249458224	5
1	1109	389.374487493371	4
1	1114	390.038829987287	4
1	1115	390.228722644209	4
1	1122	391.31932024392	3
1	1123	392.022244883673	2
1	1124	392.618729726307	1
1	1129	393.476588937573	1
1	1131	393.709244602442	2
1	1135	394.246810653707	2
1	1136	396.112023272361	1
1	1137	396.535986673627	0
1	1139	397.528315163725	0
1	1146	399.573515019566	0
1	1153	402.683520685551	0
1	1159	404.051045796637	1
1	1161	404.131003696873	2
1	1162	405.130022868974	2
1	1164	405.141783032422	2
1	1165	405.603906025215	2
1	1166	405.771969519434	1
1	1171	406.332623093973	1
1	1173	406.410616533182	2
1	1174	406.496957133878	2
1	1176	406.806551402756	2
1	1180	408.637945840058	3
1	1183	409.52710709225	4
1	1184	409.745406368899	4
1	1186	411.247704625496	4
1	1187	411.889163707426	4
1	1189	413.773502696402	4
1	1190	414.307525359427	4
1	1194	417.675691763621	4
1	1200	418.295034546085	5
1	1205	420.646621621623	6
1	1206	421.962173950298	6
1	1207	422.833551011091	5
1	1208	423.51788470597	4
1	1209	424.153334420659	3
1	1211	424.775521757951	3
1	1212	425.174365223862	3
1	1223	427.297008427925	3
1	1224	427.429051388897	3
1	1226	428.462505566434	3
1	1228	428.536966661892	4
1	1229	428.729934437302	4
1	1239	434.866547639854	3
1	1244	437.518074332328	3
1	1249	439.11005576839	4
1	1251	439.488938342797	5
1	1253	439.553566709259	6
1	1255	439.645746759908	7
1	1257	441.263023813837	8
1	1262	441.584697079654	9
1	1266	442.771053751256	9
1	1267	443.448020110837	8
1	1269	444.599832365169	8
1	1276	445.930332418353	9
1	1282	448.072101652201	10
1	1283	448.828753948487	10
1	1285	449.034740092075	10
1	1286	449.091364340977	10
1	1287	449.49163853078	9
1	1289	449.557107609876	9
1	1290	450.32539213081	9
1	1291	450.525934468459	8
1	1292	453.145104139129	7
1	1294	453.384407854447	7
1	1296	455.439119112169	8
1	1298	456.301966666705	9
1	1299	457.210723475882	9
1	1310	462.11779345646	9
1	1311	463.308334296327	9
1	1316	464.122838317186	9
1	1317	464.336307756684	9
1	1326	466.024694433611	9
1	1328	466.559525203928	10
1	1331	468.352989413212	10
1	1336	470.211699844577	10
1	1337	470.488314278039	10
1	1339	472.350848338353	10
1	1340	473.206768849525	10
1	1342	473.403116249712	10
1	1344	474.809689966657	11
1	1345	474.835524813933	11
1	1347	475.624398989462	11
1	1353	476.264803813688	12
1	1357	476.81016175335	13
1	1358	478.245861988572	13
1	1359	480.468921448588	12
1	1361	480.502263369591	12
1	1363	482.381982641262	13
1	1374	485.975912546839	14
1	1383	487.292283438287	15
1	1389	488.254101630277	16
1	1391	489.605707426091	16
1	1395	490.242125325155	15
1	1397	490.59293442818	15
1	1398	490.699794187019	15
1	1399	490.835102689405	14
1	1403	492.949541237359	13
1	1404	493.826016589113	12
1	1405	495.297864345175	11
1	1406	495.491746199682	10
1	1414	500.012096611119	10
1	1416	502.080563162002	11
1	1417	502.257077410437	11
1	1418	502.756577603703	10
1	1435	507.630552611221	10
1	1438	507.91804452876	11
1	1444	510.419420533332	11
1	1446	512.727248605476	11
1	1447	514.23723849834	11
1	1448	515.478579368548	10
1	1450	515.552352464473	10
1	1452	517.30410076394	11
1	1454	517.769608229123	12
1	1455	518.224969574842	12
1	1456	518.577977936857	11
1	1458	518.710677849237	11
1	1460	518.810133299231	12
1	1467	519.968248244573	13
1	1476	522.977219778025	14
1	1487	529.36511002561	15
1	1488	529.659203305892	15
1	1501	534.065132690811	14
1	1503	536.019484162952	14
1	1505	536.520326611473	15
1	1506	537.137924021268	15
1	1508	537.431543543787	15
1	1509	537.579844217313	15
1	1511	538.082169791954	15
1	1513	538.456660101534	16
1	1514	539.045425702659	16
1	1516	539.499301975035	16
1	1518	539.671335068165	17
1	1519	540.482887428702	17
1	1520	542.906313509128	16
1	1522	543.693853120786	16
1	1524	543.796808564076	17
1	1526	545.495650090212	18
1	1530	546.654155623342	19
1	1533	548.843300498193	20
1	1534	548.962396793015	20
1	1536	549.615213698626	20
1	1538	550.111302435277	21
1	1540	550.226304921435	22
1	1541	550.327544385958	22
1	1543	551.302953430965	22
1	1547	552.461515728488	23
1	1552	556.509781129995	24
1	1563	558.83901961702	25
1	1566	559.585031225674	26
1	1568	560.102620430432	27
1	1570	560.501337840806	28
1	1577	562.044856243754	28
1	1579	563.079697577623	28
1	1580	563.426242389237	28
1	1581	563.625968187451	27
1	1588	565.861390631656	26
1	1589	565.918854810751	25
1	1590	566.575722140188	24
1	1591	567.593186214296	23
1	1593	567.760881000778	23
1	1594	567.771871786891	23
1	1596	567.894371540936	23
1	1597	568.206668266005	23
1	1598	568.982315953071	22
1	1599	571.890156070156	21
1	1601	576.617260035089	21
1	1603	577.128519883192	22
1	1607	577.858657607049	22
1	1608	578.690171801862	21
1	1621	586.249923970189	20
1	1623	586.790760646852	20
1	1624	586.840149326099	20
1	1626	587.872581823917	20
1	1627	588.815909918392	20
1	1628	589.093061365944	19
1	1632	589.196695830736	19
1	1640	591.825613457704	19
1	1646	592.349532107045	19
1	1648	592.445345965869	20
1	1654	594.983237789326	20
1	1658	595.74415832822	19
1	1659	596.66564819735	18
1	1664	598.812725863561	18
1	1665	598.917770511146	18
1	1667	601.403464415851	18
1	1668	601.775375845215	18
1	1673	603.717915090338	18
1	1674	604.646998438531	18
1	1678	607.184154586223	17
1	1682	607.768281234765	16
1	1683	609.636155437746	15
1	1689	610.623123880028	15
1	1692	612.032090423887	15
1	1693	612.186042268263	14
1	1694	612.291004712141	13
1	1695	612.938816811163	12
1	1697	614.010640450307	12
1	1698	614.488765077143	12
1	1700	615.054871511849	12
1	1707	617.311901150626	13
1	1709	617.361467385387	14
1	1714	619.691286447164	14
1	1719	620.892936499033	14
1	1720	622.126160159357	14
1	1721	622.177035912474	13
1	1723	622.346805031891	13
1	1728	624.827736429044	14
1	1730	624.871994579184	15
1	1732	626.148482669203	16
1	1734	629.079760636793	17
1	1736	629.509165048239	18
1	1737	629.679243860333	18
1	1739	630.074329818434	18
1	1743	631.621551057937	18
1	1744	631.978813040034	17
1	1746	633.772772735453	17
1	1747	634.699676861088	17
1	1751	637.192742960814	17
1	1753	639.210564254212	17
1	1754	640.636089509384	16
1	1760	642.420359207452	16
1	1770	644.565271052889	17
1	1774	645.129789264344	17
1	1778	646.090196237942	17
1	1790	651.045120688526	18
1	1792	651.248941505196	19
1	1796	655.606126483446	19
1	1798	655.803156258655	19
1	1799	656.089725745766	19
1	1800	656.50809045582	18
1	1801	656.766195453506	17
1	1803	657.455497848619	17
1	1804	658.309284782656	17
1	1805	658.945330887337	16
1	1809	659.999798119115	15
1	1822	662.042405875589	15
1	1831	666.073499362184	16
1	1833	666.242079340402	17
1	1834	666.856070522516	17
1	1835	668.252724892878	16
1	1837	669.180313105276	16
1	1839	670.821649205742	17
1	1840	670.989495873455	17
1	1842	671.56614763753	17
1	1843	672.17563168538	17
1	1844	672.29294529192	16
1	1848	672.560713351339	16
1	1850	672.795628576371	16
1	1852	673.135131269136	16
1	1853	674.105984316294	16
1	1854	674.7960387757	15
1	1858	676.568553339788	15
1	1860	677.060908024386	15
1	1864	679.377956869529	15
1	1866	679.726557893417	15
1	1873	681.031080613471	15
1	1879	686.747897088145	16
1	1880	686.835660723428	16
1	1884	687.375373563539	15
1	1885	687.870928476447	14
1	1889	688.63815542154	13
1	1893	689.155037037198	12
1	1894	689.476440039465	11
1	1895	690.860491155495	10
1	1896	691.015278465886	9
1	1901	692.076670537459	9
1	1903	692.813152740758	10
1	1904	692.929728592029	10
1	1905	693.603215434423	9
1	1909	694.295012211027	8
1	1910	694.461817091608	7
1	1914	695.099090390146	6
1	1920	695.506786295525	6
1	1924	698.781511756175	7
1	1926	699.670598969447	8
1	1928	699.953855527644	9
1	1930	700.180011974046	10
1	1934	703.581819196795	10
1	1938	704.602550212091	10
1	1940	706.647903848132	10
1	1942	708.785472663438	10
1	1943	709.429379201639	10
1	1945	709.498389244018	10
1	1946	709.875417508271	10
1	1948	711.105276843216	10
1	1949	711.320740924927	10
1	1951	711.662449050547	10
1	1953	712.722633223925	11
1	1954	713.391072914889	11
1	1956	714.191909416258	11
1	1957	714.515026570024	11
1	1959	714.877359345377	11
1	1960	716.383616549037	11
1	1978	719.632418408824	11
1	1984	721.579771062529	11
1	1986	722.542186964237	11
1	1993	725.441986079481	11
1	1994	725.817946912766	10
1	2001	728.721501038943	9
1	2002	729.673479782402	8
1	2007	734.533775446966	8
1	2017	737.294580509631	8
1	2019	738.199856448246	8
1	2021	738.433167238979	9
1	2022	739.146867209272	9
1	2030	742.659507885795	9
1	2034	743.124694499205	10
1	2046	745.832707210124	11
1	2047	746.062394532886	11
1	2048	746.138696086836	10
1	2053	747.718000269338	10
1	2054	747.718175482109	10
1	2056	747.863599362936	10
1	2057	747.909644687966	10
1	2061	751.069165035964	9
1	2062	751.538760503248	8
1	2064	752.539528198339	8
1	2066	752.842337247473	9
1	2070	755.23397026498	9
1	2072	755.527468022849	9
1	2074	755.653654102056	10
1	2079	757.050499130561	11
1	2081	757.608299969478	12
1	2082	758.753463315505	12
1	2083	759.150142344429	11
1	2085	759.919327629216	11
1	2087	760.31947813713	12
1	2088	760.8182757103	12
1	2089	761.333132570598	11
1	2094	763.101270980576	11
1	2099	764.185941100593	12
1	2103	765.778708907804	13
1	2105	766.763352448026	13
1	2106	768.167792729865	12
1	2107	772.901141961476	11
1	2109	774.030551879908	11
1	2111	774.683848220638	12
1	2112	775.288225142948	12
1	2113	775.917428986723	11
1	2120	778.168958118787	10
1	2122	780.060523348464	10
1	2126	783.835946329332	10
1	2127	784.038617291387	9
1	2128	784.443180342815	8
1	2132	784.79503043205	7
1	2133	785.390552823802	6
1	2134	785.54905057623	5
1	2141	787.098017851383	5
1	2143	787.886848230632	5
1	2144	789.130319427128	4
1	2148	789.735138233586	3
1	2149	789.864133460912	2
1	2154	791.731090427382	2
1	2155	792.262445744352	2
1	2156	794.765197524459	1
1	2157	795.291954873688	0
1	2159	795.488871594798	0
1	2167	798.591136761156	1
1	2168	798.676916073884	1
1	2169	799.949742719909	0
1	2174	801.486569543892	0
1	2176	801.668469278154	1
1	2180	802.564984501167	2
1	2186	804.494491152215	3
1	2187	804.600363795503	3
1	2189	805.028343948494	3
1	2194	806.118154806651	4
1	2196	807.632240722582	5
1	2198	808.767473124512	6
1	2200	808.950184887639	7
1	2201	809.250814059836	7
1	2203	809.361619994149	7
1	2207	810.023742307075	7
1	2208	811.081781085783	6
1	2212	813.285117722566	5
1	2214	813.548885862732	5
1	2216	814.438235231607	6
1	2218	815.603946087577	7
1	2225	818.497141992001	7
1	2230	821.151374598075	7
1	2231	822.113167762203	7
1	2232	822.280991281295	6
1	2239	824.265243646536	5
1	2240	828.04896037253	4
1	2244	828.831402543025	4
1	2246	829.058965436265	5
1	2248	829.219952652249	5
1	2249	829.740325278912	4
1	2250	829.991199781934	3
1	2254	831.486224176036	2
1	2258	832.932769193222	2
1	2260	834.144199554668	2
1	2261	835.038372526306	1
1	2263	835.318325590175	1
1	2274	838.315990753019	2
1	2278	840.308137491923	2
1	2280	840.941441813083	2
1	2282	841.396269827557	3
1	2284	842.242557012627	4
1	2286	842.473065468111	5
1	2287	842.678195791256	5
1	2298	846.317030128682	5
1	2299	847.606715535293	5
1	2301	848.263368701586	5
1	2303	848.327397590384	6
1	2304	848.502373569848	6
1	2306	848.621851202119	6
1	2320	852.5244139252	7
1	2322	853.481004838021	8
1	2323	853.73424878793	8
1	2325	853.881851529257	8
1	2330	855.745112252984	9
1	2332	855.914911757835	10
1	2333	856.226704373643	10
1	2335	856.400697135123	10
1	2336	856.668173548494	10
1	2340	858.376970441998	9
1	2341	858.737255619415	8
1	2342	859.02336147057	7
1	2350	860.902876194618	7
1	2354	861.811623162735	7
1	2355	862.038129798901	6
1	2357	862.481758094889	6
1	2365	864.951567580173	7
1	2366	865.540486570304	7
1	2370	868.071573434145	6
1	2372	868.118740297891	6
1	2374	868.267866550648	7
1	2380	869.662337766969	8
1	2389	872.642331748267	8
1	2390	872.841405767255	7
1	2392	873.810959672724	7
1	2393	875.459726664461	7
1	2394	876.358298318867	6
1	2395	878.1848042081	5
1	2399	878.880532258256	4
1	2401	879.599293239063	4
1	2402	880.19148639246	4
1	2403	880.892259961924	3
1	2404	881.621815854144	2
1	2406	882.902235067112	2
1	2418	886.356773741284	3
1	2421	888.275346829251	3
1	2422	888.784722292871	2
1	2424	889.065745160263	2
1	2425	889.325315518432	2
1	2426	889.344703039763	1
1	2428	889.405288631711	1
1	2429	889.752365747304	1
1	2430	890.142457564656	0
1	2437	894.377676543297	0
1	2442	895.520394566455	1
1	2447	897.558599166777	1
1	2449	897.729723643077	1
1	2450	897.818011416609	1
1	2454	898.718946341352	1
1	2457	900.301611684744	2
1	2458	900.651412703108	2
1	2460	900.724378616344	2
1	2462	901.399002811312	3
1	2464	906.902700540397	4
1	2468	907.09075008877	4
1	2470	907.479577543905	4
1	2475	908.321761321047	5
1	2476	908.76505273999	5
1	2477	908.968762116743	4
1	2488	913.245623185929	4
1	2489	915.234551890698	4
1	2491	915.339558739005	4
1	2498	917.334964540071	5
1	2501	920.134516625398	6
1	2503	920.318133608338	7
1	2505	920.322068343054	8
1	2509	922.036043566927	8
1	2511	922.47007949953	8
1	2513	922.997887726076	9
1	2515	923.498520979373	10
1	2517	923.658242835281	11
1	2521	925.198249857438	11
1	2523	925.376823606631	11
1	2527	926.397727081121	11
1	2528	927.188666285706	10
1	2529	927.290452707188	9
1	2536	928.314520668205	9
1	2542	931.854624379892	10
1	2543	932.917543797203	10
1	2545	933.323923119615	10
1	2550	933.624823860993	11
1	2552	933.941157093799	12
1	2553	935.156043692972	12
1	2555	935.859763854401	12
1	2557	935.875599910818	13
1	2558	938.184217701455	13
1	2560	940.878524374363	13
1	2562	942.437561802843	14
1	2564	942.616318726753	15
1	2565	943.003385808495	15
1	2567	943.587388061658	15
1	2571	944.862655226985	15
1	2572	945.46912635151	14
1	2574	945.844333102191	14
1	2575	946.009364900335	14
1	2576	947.174829284493	13
1	2577	947.850127165782	12
1	2581	949.99799077634	11
1	2583	950.244839989232	11
1	2584	950.291679039486	11
1	2588	953.122799507102	10
1	2589	953.346942048747	9
1	2590	953.766733046516	8
1	2597	955.972845146535	8
1	2602	956.852118313083	8
1	2603	957.490400196323	7
1	2604	957.632830053315	6
1	2606	959.659900255666	6
1	2607	959.908600390312	6
1	2609	959.989600052972	6
1	2613	961.742026376012	6
1	2614	961.869379785595	5
1	2615	962.139201224511	4
1	2616	962.742627458007	3
1	2617	963.931344437184	2
1	2619	964.908331106637	2
1	2620	966.276949258521	2
1	2622	966.279353462277	2
1	2623	966.449071803	2
1	2627	968.691494783687	1
1	2629	969.102308469434	1
1	2631	969.187355014805	2
1	2633	969.352240247963	3
1	2637	971.783555147374	3
1	2642	972.617818010859	3
1	2643	972.863460219781	3
1	2644	973.487372264129	2
1	2645	974.297822224434	1
1	2647	975.946671524894	1
1	2651	977.180606680977	2
1	2656	978.413024899259	2
1	2658	979.408685506159	2
1	2659	980.499859197506	2
1	2660	980.683259894049	1
1	2661	981.732581636011	0
1	2668	983.418821515955	0
1	2670	985.155668903676	0
1	2672	985.768190724105	0
1	2677	986.255979587943	1
1	2683	987.632690580901	2
1	2686	988.219573473035	2
1	2693	990.804403595812	2
1	2695	991.010788467827	3
1	2703	991.972734751048	4
1	2706	992.077335533543	5
1	2707	993.036427623453	5
1	2708	994.11384766763	4
1	2709	994.223755240865	3
1	2710	995.021453455024	2
1	2717	996.697395321045	1
1	2718	996.959397245894	0
1	2720	997.434668670289	0
1	2724	999.971137791537	1
1	2727	1000.736682107382	2
1	2729	1007.601245721232	3
1	2737	1009.312198481805	4
1	2741	1009.813074066504	4
1	2742	1010.161289451039	3
1	2758	1018.850474458107	3
1	2760	1020.433339542241	3
1	2767	1023.022376242067	2
1	2783	1029.524979166761	1
1	2787	1030.294324474472	1
1	2792	1030.919212321309	2
1	2797	1032.258212613501	3
1	2799	1032.297048995585	4
1	2802	1033.335088327561	5
1	2803	1033.565217998725	5
1	2804	1034.54314920221	4
1	2806	1037.542547429846	4
1	2807	1038.110837264515	4
1	2808	1038.714559536103	3
1	2810	1039.033873140869	3
1	2814	1039.636489874191	3
1	2815	1039.691139434532	2
1	2817	1039.926060888555	2
1	2818	1040.46790748995	2
1	2822	1040.919810619403	2
1	2825	1041.526346699668	3
1	2826	1042.074968372268	3
1	2828	1042.59197379754	3
1	2837	1046.293325484133	4
1	2844	1047.423035104957	5
1	2852	1051.935783291113	6
1	2856	1052.39511409341	6
1	2858	1052.489461364679	6
1	2863	1053.742063077809	7
1	2864	1054.168983354383	7
1	2865	1054.880692187363	6
1	2866	1055.261776688451	5
1	2870	1058.11268768358	4
1	2872	1058.581361191634	4
1	2877	1059.951718036538	5
1	2878	1060.154075556848	5
1	2879	1060.471814685154	4
1	2881	1060.691529186151	4
1	2882	1060.87203147496	4
1	2894	1064.737893052981	4
1	2897	1065.261171358801	4
1	2898	1065.73965720659	3
1	2899	1065.925551566307	2
1	2906	1066.854641146591	1
1	2907	1067.001391404894	0
1	2921	1070.697299177176	0
1	2925	1071.284073170211	1
1	2930	1072.134473164106	2
1	2932	1072.992995739275	3
1	2941	1075.807815747159	4
1	2945	1078.377064372059	4
1	2946	1079.316532551377	3
1	2951	1080.566739677194	3
1	2952	1080.725701861191	3
1	2954	1081.31765712204	3
1	2955	1082.464663624697	3
1	2957	1083.330687701511	3
1	2959	1083.570517984809	4
1	2963	1085.53893317808	4
1	2964	1085.659607959673	3
1	2966	1086.142307255673	3
1	2973	1089.982405160593	3
1	2978	1090.636505537392	3
1	2980	1090.907823301825	4
1	2982	1093.133623893791	5
1	2984	1093.366057388032	6
1	2985	1093.426555896617	6
1	2989	1094.252491471038	5
1	2990	1095.236616115272	4
1	2992	1095.970514406135	4
1	2993	1096.18762265185	4
1	3003	1101.458084752877	3
1	3004	1101.64992926529	2
1	3006	1101.752764383728	2
1	3008	1102.841433535494	3
1	3009	1103.596456631174	3
1	3013	1106.182647252842	3
1	3015	1106.441863253747	4
1	3017	1106.701068470918	4
1	3018	1107.592653224296	3
1	3020	1108.002348036628	3
1	3022	1108.310007034954	4
1	3023	1109.004410351359	4
1	3024	1109.076637515202	3
1	3026	1109.333439969195	3
1	3027	1109.475851268163	3
1	3028	1109.490059815531	2
1	3030	1110.607602401111	2
1	3034	1112.604146201365	2
1	3036	1113.186218135928	2
1	3040	1113.384496613264	3
1	3043	1114.323748152405	4
1	3047	1115.843842195122	5
1	3050	1116.680525268256	6
1	3060	1122.305695315009	6
1	3062	1122.619638850666	6
1	3075	1127.230130943604	7
1	3078	1127.280254988668	8
1	3083	1129.87771538933	9
1	3090	1132.545444342669	10
1	3092	1132.934494721331	10
1	3094	1133.924967345143	10
1	3095	1134.302797467669	10
1	3096	1134.732966568474	9
1	3100	1134.937895927828	9
1	3106	1136.281531270195	10
1	3110	1138.461263758303	10
1	3112	1139.508902640297	10
1	3113	1139.550619510624	10
1	3121	1143.281223556604	10
1	3122	1143.476128780007	10
1	3124	1143.94023834086	10
1	3125	1144.559534693896	10
1	3127	1144.76004275614	10
1	3132	1145.223437098862	11
1	3134	1145.484618778316	12
1	3136	1146.862023330717	13
1	3138	1148.250603733277	14
1	3140	1148.499357721217	15
1	3141	1148.5115960169	15
1	3146	1151.684066476727	15
1	3150	1152.046247250059	15
1	3152	1152.462737074567	15
1	3154	1154.007493724491	16
1	3156	1154.700729267196	17
1	3158	1155.406029960524	18
1	3163	1159.798887972266	19
1	3165	1161.507193701693	20
1	3166	1162.356467131799	20
1	3179	1166.08526655242	19
1	3180	1167.061407229107	18
1	3181	1167.644193409819	17
1	3186	1167.884974340207	17
1	3188	1168.458691889417	18
1	3190	1169.364843993257	19
1	3205	1171.555223859642	20
1	3207	1172.658532357496	21
1	3211	1173.374833487422	22
1	3218	1174.437198467297	23
1	3220	1174.779344870664	24
1	3222	1175.345277404133	25
1	3227	1176.596803608271	26
1	3229	1177.704137628019	26
1	3233	1179.50070540228	25
1	3234	1179.912499959789	24
1	3236	1179.946465678318	24
1	3237	1181.246801596003	24
1	3239	1182.132032109785	24
1	3240	1182.7877065071	24
1	3242	1183.329529123441	24
1	3247	1184.763930764702	25
1	3248	1185.757885308953	25
1	3249	1185.957072671315	24
1	3251	1186.264711197095	24
1	3253	1189.266160936567	25
1	3254	1189.277218642577	25
1	3256	1190.756532677267	25
1	3257	1191.128432702583	25
1	3264	1194.725879724579	25
1	3267	1194.791880657334	26
1	3275	1196.77322101034	27
1	3276	1197.606431193864	27
1	3278	1199.307871528837	27
1	3282	1199.811515897068	28
1	3284	1200.092921566753	29
1	3289	1203.769548504899	29
1	3291	1204.832035355609	29
1	3301	1206.710700436206	29
1	3309	1208.075787325988	29
1	3311	1208.499858628735	30
1	3312	1208.570546730251	30
1	3314	1212.458142748776	30
1	3318	1213.531292978738	31
1	3322	1214.149582995748	32
1	3324	1214.255675365046	33
1	3331	1217.1447076574	34
1	3333	1219.333877258114	35
1	3334	1219.442083958065	35
1	3336	1219.765043280485	35
1	3337	1220.178690020312	35
1	3339	1221.366616715277	35
1	3341	1223.003106189139	36
1	3346	1226.562896797608	37
1	3348	1227.471311958147	38
1	3350	1227.796282098866	39
1	3352	1228.411209494739	40
1	3359	1231.348638896374	40
1	3360	1231.946435945973	39
1	3362	1232.107374411167	39
1	3363	1233.874285867155	39
1	3364	1233.963339390023	38
1	3368	1236.054157027093	37
1	3373	1237.943048498205	37
1	3374	1240.907000631577	37
1	3375	1240.933457317038	36
1	3376	1241.430797133373	35
1	3378	1242.50002475652	35
1	3380	1243.846814004608	36
1	3382	1243.949074617443	37
1	3390	1246.949333899252	38
1	3392	1247.097195343041	39
1	3393	1248.024361323391	39
1	3395	1248.85649394627	39
1	3396	1251.658914874117	39
1	3400	1252.469175174757	39
1	3405	1253.995057210319	39
1	3409	1257.360487634039	39
1	3412	1258.860298039952	40
1	3417	1260.980696401686	41
1	3418	1261.03034695876	41
1	3420	1262.630020271461	41
1	3421	1262.82459320451	41
1	3425	1265.304468108317	40
1	3426	1265.406364197579	39
1	3430	1268.025110717004	38
1	3432	1269.762377123775	38
1	3434	1270.167860968218	39
1	3435	1271.351146412542	39
1	3437	1273.546801488243	39
1	3439	1273.883690471261	40
1	3440	1274.195583066723	40
1	3442	1275.994237996302	40
1	3447	1279.108291696898	41
1	3448	1280.082866992569	41
1	3449	1281.950752073753	40
1	3451	1281.966587336984	40
1	3452	1282.640037122784	40
1	3454	1283.931945494546	40
1	3456	1284.72670467179	41
1	3457	1284.747400240079	41
1	3467	1288.043348185863	40
1	3469	1288.412134453968	40
1	3470	1289.105098289672	40
1	3483	1292.057199019526	40
1	3485	1292.359127145583	40
1	3487	1292.552725331341	40
1	3488	1292.674314281545	40
1	3490	1292.944133301423	40
1	3498	1295.455533879908	41
1	3505	1298.450161803606	41
1	3507	1299.944587666443	41
1	3517	1301.638957876348	41
1	3518	1302.210430121217	40
1	3520	1303.08571264924	40
1	3524	1303.990795380355	40
1	3529	1306.753795451569	40
1	3530	1307.528975509935	40
1	3532	1308.009675706275	40
1	3533	1308.885014493656	40
1	3541	1311.11042287508	40
1	3542	1312.579151506913	40
1	3544	1313.278915146728	40
1	3548	1313.997717072055	41
1	3556	1316.36766803075	42
1	3558	1317.1305853684	42
1	3559	1317.280602766646	41
1	3560	1317.905488075227	40
1	3561	1318.567489497617	39
1	3562	1318.794584246399	38
1	3564	1320.090434642986	38
1	3565	1320.554044709771	38
1	3570	1322.804475834399	38
1	3575	1324.238567887896	39
1	3576	1324.493975253187	39
1	3578	1324.597970822388	39
1	3579	1324.808442470709	39
1	3584	1325.401429950265	39
1	3585	1325.767721905747	39
1	3589	1326.474398176616	38
1	3594	1327.513897022178	38
1	3595	1327.540681668728	38
1	3596	1328.870802015073	37
1	3598	1329.565483356132	37
1	3600	1329.638661911799	38
1	3601	1329.946317060966	38
1	3603	1330.159079253883	38
1	3605	1330.402953497664	39
1	3612	1332.938209655993	39
1	3616	1334.656020680805	38
1	3617	1336.647430536899	37
1	3619	1337.362369769868	37
1	3623	1337.879102665777	38
1	3626	1338.221161052598	39
1	3630	1340.07385083371	39
1	3637	1341.937287092817	38
1	3641	1343.97263252079	37
1	3643	1343.974048470087	37
1	3644	1344.667020159573	37
1	3646	1344.921253949205	37
1	3647	1345.015593239023	37
1	3651	1347.105160043051	36
1	3653	1347.356369855031	36
1	3655	1347.609518191832	37
1	3656	1347.764099696424	37
1	3661	1350.152550816254	37
1	3663	1351.158917455127	38
1	3665	1351.873732066129	39
1	3667	1352.18829377135	40
1	3669	1352.604200420922	41
1	3674	1355.04119579353	42
1	3676	1355.634585772044	43
1	3677	1356.764127053486	43
1	3679	1356.964887417853	43
1	3684	1360.960251419236	44
1	3688	1361.301323555987	45
1	3690	1361.651012117869	45
1	3691	1363.104909711508	44
1	3695	1364.321632875393	43
1	3696	1364.607652421607	42
1	3698	1364.721232025731	42
1	3699	1364.929811523917	42
1	3701	1365.024196309456	42
1	3702	1365.107885255373	42
1	3704	1365.16805874696	42
1	3711	1368.260884219099	42
1	3715	1371.343832468411	41
1	3716	1373.406399893837	40
1	3717	1374.116878447281	39
1	3718	1374.2785735319	38
1	3723	1375.084135126121	38
1	3725	1375.100434654325	39
1	3726	1375.845946224268	39
1	3730	1379.630094247339	38
1	3734	1380.2800671232	38
1	3736	1381.008810767351	39
1	3742	1383.484234095037	40
1	3743	1384.332375147029	40
1	3744	1384.474221115041	39
1	3746	1385.691081801331	39
1	3753	1388.435065905422	39
1	3754	1389.55426092653	38
1	3758	1390.520682878441	37
1	3760	1391.021708013857	37
1	3762	1392.920112357627	38
1	3763	1395.089950649779	38
1	3768	1398.552864551651	38
1	3769	1398.622139516381	38
1	3771	1398.811481677487	38
1	3775	1400.6057303617	38
1	3777	1401.151498162722	38
1	3779	1401.47106938903	39
1	3780	1403.49998893502	39
1	3784	1404.051943290658	38
1	3786	1404.171042453094	38
1	3787	1405.030055194046	38
1	3789	1405.550931638247	38
1	3790	1405.611767148715	38
1	3792	1406.25015730986	38
1	3800	1408.771108547181	39
1	3804	1410.208966636548	39
1	3806	1411.287842438186	39
1	3811	1413.348702478039	40
1	3812	1414.512895281475	40
1	3814	1414.794501722436	40
1	3816	1415.713294080389	41
1	3821	1416.303031914187	42
1	3826	1418.068835661575	43
1	3830	1419.480383421388	43
1	3831	1419.876417626787	42
1	3832	1420.989948439441	41
1	3834	1421.252336767292	41
1	3839	1425.567485833065	42
1	3840	1426.129996704407	42
1	3842	1426.661641968383	42
1	3844	1426.70610932413	43
1	3845	1427.951629274911	43
1	3847	1428.54225075838	43
1	3851	1429.571139580498	44
1	3857	1431.404542552607	45
1	3858	1434.314660590045	45
1	3865	1436.689692343277	44
1	3869	1438.470020566507	43
1	3876	1442.521709155174	42
1	3878	1442.636023313488	42
1	3879	1443.626929443573	42
1	3881	1444.618244807568	42
1	3888	1446.126141047139	43
1	3890	1446.94942744301	43
1	3891	1448.071703037362	42
1	3896	1449.936887867732	42
1	3897	1450.678341727451	42
1	3898	1451.234946255272	41
1	3902	1452.231889587011	41
1	3904	1454.346805022926	41
1	3905	1454.351596469308	40
1	3906	1454.693290976121	39
1	3913	1457.470250346571	38
1	3915	1457.534746978379	38
1	3917	1457.793316263236	39
1	3930	1460.955918358949	39
1	3931	1460.969603373614	38
1	3932	1461.357463179498	37
1	3933	1461.509101117701	36
1	3935	1461.814078596208	36
1	3937	1461.937575094562	37
1	3941	1462.306755806804	38
1	3947	1464.260027257174	39
1	3949	1464.88866704992	40
1	3953	1465.534459818094	40
1	3955	1467.717138948177	40
1	3956	1468.248295194935	40
1	3957	1468.473710931793	39
1	3961	1470.834536281525	38
1	3962	1471.343191208513	37
1	3964	1472.132890649934	37
1	3965	1472.209727996309	37
1	3966	1472.831364356285	36
1	3967	1473.803470255035	35
1	3971	1475.589647278449	34
1	3972	1476.973460697315	33
1	3974	1476.991265223538	33
1	3976	1477.224844331831	34
1	3977	1477.433971696673	34
1	3979	1477.548847523338	34
1	3980	1477.833029960209	34
1	3981	1478.477369856428	33
1	3985	1480.07675893871	32
1	3987	1480.225014213308	32
1	3988	1480.342890755377	32
1	3989	1480.422416799278	31
1	3991	1480.803824987155	31
1	3995	1482.485988858542	32
1	3997	1483.751128828685	32
1	3998	1484.089221911405	31
1	4000	1484.988417366562	31
1	4001	1485.138211313489	31
1	4002	1486.560096461743	30
1	4003	1487.014403505718	29
1	4007	1487.806452583028	28
1	4011	1488.297888677591	28
1	4016	1489.845639606735	29
1	4025	1494.175387570116	30
1	4026	1494.386941507057	30
1	4027	1495.556514929764	29
1	4028	1495.931957517404	28
1	4029	1495.949481966983	27
1	4031	1496.700712007711	27
1	4032	1499.65126551553	27
1	4037	1501.797683619207	27
1	4039	1502.584964336743	28
1	4040	1502.885329811574	28
1	4041	1503.060103912444	27
1	4042	1503.871378242253	26
1	4047	1504.568789366012	26
1	4051	1505.835401878175	26
1	4053	1506.235704241896	26
1	4055	1506.944173259322	27
1	4056	1509.868767137567	27
1	4057	1509.891317261975	26
1	4061	1511.773020546866	25
1	4065	1517.042410943456	24
1	4070	1518.274071984491	24
1	4072	1518.962114151647	25
1	4076	1519.271134342717	26
1	4079	1519.452814134748	27
1	4080	1519.816042358649	27
1	4082	1519.830209972164	27
1	4083	1522.15576561565	27
1	4085	1523.566201815777	27
1	4086	1523.862303974886	27
1	4090	1524.772613579214	27
1	4092	1525.543908999396	27
1	4093	1526.762703287844	26
1	4095	1527.062208113838	26
1	4096	1527.634246821585	26
1	4098	1527.745747950536	26
1	4099	1528.105999522896	26
1	4100	1528.193287948258	25
1	4102	1529.239298170571	25
1	4103	1529.80317537202	25
1	4104	1530.441476496195	24
1	4106	1530.705713738278	24
1	4107	1530.737287965691	24
1	4111	1532.96820914549	23
1	4113	1533.386290657317	23
1	4117	1536.430433600909	23
1	4121	1537.381887536571	22
1	4125	1538.261554624523	22
1	4127	1538.369879274504	23
1	4138	1543.795189055783	23
1	4145	1546.241496316186	23
1	4147	1547.014232302366	23
1	4148	1547.347739248348	22
1	4152	1550.457428326559	21
1	4154	1550.559288509317	21
1	4155	1551.541998753085	21
1	4159	1552.331672538388	21
1	4165	1553.504245912828	22
1	4166	1554.597057331399	22
1	4168	1555.176320685942	22
1	4170	1555.317706659655	23
1	4171	1555.604498866848	23
1	4175	1556.714750075032	23
1	4177	1556.884873251295	24
1	4179	1557.718406479933	24
1	4180	1558.134605520656	23
1	4182	1559.464296472188	23
1	4184	1559.719547297771	24
1	4186	1560.196926453102	25
1	4194	1561.849935416253	26
1	4196	1562.016445151438	27
1	4200	1563.457148056897	27
1	4201	1564.264334117522	26
1	4202	1565.442764963192	25
1	4206	1567.17527340276	25
1	4208	1569.753140736854	25
1	4218	1574.707777737873	25
1	4220	1575.423402110145	26
1	4222	1575.929914320479	27
1	4228	1579.004141897145	28
1	4232	1579.501569217953	29
1	4234	1579.534231315093	30
1	4245	1585.899717881902	31
1	4247	1586.868326506833	31
1	4251	1587.071028573486	31
1	4253	1587.36233545903	31
1	4260	1589.382842702472	30
1	4261	1590.186917473018	29
1	4262	1590.476134258631	28
1	4263	1591.407119601385	27
1	4264	1592.278843936347	26
1	4266	1593.184628309193	26
1	4267	1593.358702693733	26
1	4268	1593.390420642192	25
1	4273	1595.82582506426	25
1	4277	1597.140678727574	25
1	4278	1597.477377878354	24
1	4285	1601.135890159708	24
1	4291	1602.222062135131	25
1	4292	1602.840993335006	25
1	4294	1603.191043604628	25
1	4296	1603.596882076834	26
1	4297	1604.361781476523	26
1	4311	1607.215113548525	26
1	4312	1609.98228429663	26
1	4314	1610.411713895954	26
1	4315	1612.310054306177	26
1	4317	1612.895991869041	26
1	4325	1615.52254605101	27
1	4327	1615.737949570588	28
1	4328	1616.243392004078	28
1	4330	1616.622351422936	28
1	4331	1616.739281843909	28
1	4347	1620.555660214531	27
1	4349	1621.261745353801	27
1	4350	1623.270795276946	27
1	4352	1623.741078361662	27
1	4356	1626.658003092878	27
1	4357	1627.258280376717	26
1	4359	1627.687705071574	26
1	4361	1627.778915620464	27
1	4362	1629.346827166257	27
1	4364	1629.600737006307	27
1	4365	1630.441963913675	27
1	4369	1631.073856343145	27
1	4371	1631.418579248671	28
1	4373	1631.760669823231	28
1	4375	1632.516631561421	28
1	4385	1637.618999870414	29
1	4387	1638.227396066159	29
1	4388	1638.981496344637	28
1	4390	1639.239404535554	28
1	4401	1642.060538213299	29
1	4402	1642.564607280827	29
1	4403	1642.720984909441	28
1	4404	1643.447777418825	27
1	4406	1644.044299568198	27
1	4407	1644.979967892662	27
1	4412	1646.380155030356	27
1	4416	1648.740711767913	27
1	4417	1650.686714208317	26
1	4418	1651.413035083212	25
1	4419	1652.358921720175	24
1	4421	1652.798296694661	24
1	4423	1654.207835119925	25
1	4425	1654.606591179852	26
1	4426	1655.290293010431	26
1	4427	1656.276812096595	25
1	4433	1656.963279748988	25
1	4436	1658.337017046336	25
1	4437	1659.21394412188	24
1	4441	1660.091707414322	24
1	4443	1662.146406347474	24
1	4447	1664.063493565172	23
1	4452	1664.720900496704	23
1	4454	1666.09096049735	24
1	4455	1666.36826465128	24
1	4465	1669.233086444121	24
1	4473	1670.186555174659	24
1	4474	1671.149941943714	23
1	4476	1672.775815287002	23
1	4478	1673.102424563932	24
1	4480	1673.586434185613	25
1	4484	1674.627940333887	25
1	4485	1674.918371951836	24
1	4487	1676.109383179073	24
1	4488	1676.540436016735	24
1	4489	1676.70679247079	23
1	4497	1679.933668930329	23
1	4498	1680.387469671107	23
1	4503	1682.013299956078	23
1	4505	1683.501100547571	24
1	4506	1684.569604234882	24
1	4508	1684.943145713154	24
1	4510	1685.235074113091	25
1	4511	1685.673077077696	25
1	4515	1686.957557699111	25
1	4517	1688.615805947599	25
1	4525	1691.363634097443	25
1	4529	1692.566858776015	25
1	4531	1693.261323223549	25
1	4532	1693.51975848849	25
1	4533	1693.732328755746	24
1	4535	1694.496863542717	24
1	4539	1698.487349880262	24
1	4541	1701.576678543419	24
1	4549	1702.610385835877	25
1	4553	1705.30498218288	25
1	4554	1705.56115233663	24
1	4561	1706.687823213092	23
1	4562	1707.044457126717	22
1	4564	1707.053510488852	22
1	4565	1707.210956343328	22
1	4567	1708.072601565431	22
1	4568	1709.593165490456	22
1	4569	1709.669052880411	21
1	4571	1709.988083571376	21
1	4573	1709.997598644286	22
1	4580	1713.132234621001	22
1	4581	1714.632503670405	21
1	4582	1715.157248203155	20
1	4586	1715.581803065218	20
1	4589	1721.740355610942	21
1	4593	1722.578789724329	22
1	4616	1731.345544020532	23
1	4619	1732.330047399741	24
1	4620	1732.409154414961	24
1	4624	1737.847786542881	23
1	4625	1738.578864193527	22
1	4626	1739.096981518611	21
1	4634	1740.23162811496	21
1	4638	1742.472710263009	21
1	4639	1743.478422066625	20
1	4640	1744.829048371838	19
1	4641	1744.997661109361	18
1	4643	1745.19491670105	18
1	4645	1745.207298908459	19
1	4649	1746.623007871961	19
1	4655	1747.879957996503	19
1	4659	1750.129158269099	20
1	4660	1750.715096282819	20
1	4662	1750.996734256207	20
1	4663	1751.245737355603	20
1	4664	1751.875124969413	19
1	4665	1752.855646104771	18
1	4667	1752.921734292659	18
1	4668	1753.578454804159	18
1	4670	1755.63691218168	18
1	4678	1756.188115057328	19
1	4679	1756.88980171431	19
1	4681	1758.00410766919	19
1	4682	1758.005405098575	19
1	4683	1758.030774654819	18
1	4687	1759.422137910357	18
1	4692	1759.814514748521	19
1	4698	1761.720188251428	20
1	4702	1762.900938022018	21
1	4704	1763.665456708029	21
1	4712	1765.264985914417	21
1	4714	1766.392991124809	22
1	4723	1768.973877011937	23
1	4729	1772.145944688633	24
1	4734	1772.567069972256	24
1	4739	1776.59923058505	24
1	4740	1777.984867654591	24
1	4742	1777.994975007937	24
1	4746	1778.461470750068	25
1	4751	1781.781610657561	25
1	4757	1782.960773940679	25
1	4770	1788.222967564835	26
1	4772	1788.356021894719	27
1	4776	1792.945601772704	27
1	4778	1794.499353601735	27
1	4785	1800.619625560544	27
1	4787	1801.576665411584	27
1	4789	1801.797855728115	28
1	4796	1807.125054573554	28
1	4798	1807.261925208423	28
1	4800	1807.505330027957	29
1	4801	1807.795064291625	29
1	4803	1808.195698998537	29
1	4814	1812.258699896059	30
1	4815	1812.312493824889	30
1	4816	1812.786803450029	29
1	4818	1813.288625568797	29
1	4825	1820.050846398059	29
1	4826	1820.117047220121	28
1	4831	1820.349833593714	28
1	4833	1820.509981182639	29
1	4842	1821.926364571713	30
1	4846	1822.150227062188	31
1	4854	1824.445484398077	32
1	4856	1825.394504970861	33
1	4866	1830.210212512129	33
1	4867	1830.399061968764	32
1	4871	1832.147512880054	31
1	4872	1832.448886911258	30
1	4874	1834.551314252749	30
1	4881	1835.162887959175	31
1	4886	1835.878844247133	32
1	4888	1836.53501759819	33
1	4891	1837.700432779185	34
1	4892	1838.851834409986	34
1	4894	1838.870588625006	34
1	4895	1840.18795039847	34
1	4897	1840.332101364	34
1	4901	1842.178934330054	34
1	4903	1842.319077613622	34
1	4907	1843.172590745563	34
1	4908	1843.481536294767	33
1	4912	1845.134381005498	32
1	4913	1846.854008729332	31
1	4914	1847.030664797123	30
1	4919	1848.892853277728	30
1	4921	1850.182088239032	31
1	4922	1850.713646168612	31
1	4927	1851.858088187861	31
1	4928	1852.117923735884	31
1	4932	1852.454352846416	31
1	4934	1852.593318846152	32
1	4939	1853.96484398018	32
1	4946	1855.797603990787	31
1	4948	1856.800074018663	31
1	4950	1857.184410179194	32
1	4951	1857.449677758236	32
1	4952	1858.434937141098	31
1	4954	1860.4268361081	31
1	4959	1861.66944146304	32
1	4961	1861.803041718435	33
1	4962	1861.962849950322	33
1	4964	1863.965900587207	33
1	4965	1864.017038555918	33
1	4969	1864.5939420314	33
1	4972	1865.113303697932	34
1	4973	1865.238677287527	34
1	4977	1870.333852357998	33
1	4979	1871.275759919134	33
1	4985	1871.785848260164	34
1	4987	1872.212825866593	35
1	4994	1874.094284523371	36
1	4995	1874.383926756179	36
1	4996	1875.623108314185	35
1	5000	1876.976461558383	34
1	5001	1877.722534365676	33
1	5006	1879.030956521264	33
1	5007	1879.168763343379	33
1	5009	1879.777285870063	33
1	5013	1880.835698437538	33
1	5015	1880.946543491037	33
1	5017	1880.989335610279	34
1	5018	1881.326378703243	34
1	5032	1885.72753690338	34
1	5034	1886.591604868525	35
1	5035	1887.279787870079	35
1	5036	1887.648863302346	34
1	5037	1888.875800344703	33
1	5038	1888.978853846904	32
1	5040	1889.400680999709	32
1	5041	1890.492382872402	32
1	5043	1891.227542669983	32
1	5044	1892.749541611478	32
1	5046	1892.893660856576	32
1	5047	1894.147955219805	32
1	5048	1894.185696281043	31
1	5053	1895.372478469836	31
1	5055	1895.827436978098	32
1	5056	1895.872174923737	32
1	5063	1898.678851644742	31
1	5071	1900.334663453742	31
1	5072	1901.497601233739	31
1	5076	1903.697444179296	30
1	5078	1903.895311024782	30
1	5079	1905.216121862901	30
1	5087	1907.000916810313	30
1	5088	1907.968204644804	30
1	5090	1908.856336644831	30
1	5094	1911.250338903394	30
1	5095	1913.259176601145	29
1	5096	1913.297369882244	28
1	5098	1913.757676678256	28
1	5099	1913.774916535946	28
1	5103	1917.389608319496	27
1	5105	1917.701506306109	27
1	5119	1919.908397125373	28
1	5132	1924.190279744017	28
1	5133	1924.507970499558	27
1	5134	1925.435285168412	26
1	5136	1925.43819572438	26
1	5138	1926.034137903145	27
1	5142	1927.827085100616	27
1	5143	1928.26545965261	26
1	5144	1928.457884277907	25
1	5148	1929.282959168676	24
1	5149	1929.387113847207	23
1	5153	1931.547501306518	22
1	5154	1932.202642156695	21
1	5155	1932.973466303332	20
1	5159	1936.455522479034	20
1	5161	1936.847496361895	20
1	5163	1937.067019142739	20
1	5165	1938.169866454824	21
1	5167	1938.185983571028	22
1	5168	1938.603924411748	22
1	5176	1940.531266066441	22
1	5180	1944.211223714564	22
1	5181	1945.012798157905	21
1	5186	1947.353022460966	21
1	5188	1949.062880107145	22
1	5190	1949.730811598718	23
1	5192	1950.005309867722	24
1	5205	1952.465833080879	24
1	5206	1953.725160450243	23
1	5207	1954.059433243437	22
1	5209	1954.619222522949	22
1	5219	1959.44010755715	23
1	5225	1962.026866777494	24
1	5226	1962.180488365718	24
1	5227	1963.149399836259	23
1	5232	1963.651629616611	23
1	5233	1964.166015764088	23
1	5238	1965.459758464468	23
1	5240	1966.112523763446	24
1	5241	1966.433775294235	24
1	5246	1967.769219268268	24
1	5248	1968.628742074931	25
1	5250	1968.896291873985	26
1	5254	1969.367053122312	26
1	5258	1970.529659392812	25
1	5273	1973.645823602667	25
1	5279	1975.038784809731	25
1	5283	1975.621003421639	24
1	5285	1977.019193473099	24
1	5287	1978.162272995254	25
1	5288	1979.005355018883	25
1	5289	1979.631398074502	24
1	5290	1980.203643681014	23
1	5295	1982.378954078306	23
1	5296	1983.28645277627	23
1	5298	1983.479149931253	23
1	5309	1984.174559930048	24
1	5310	1984.299924818699	24
1	5315	1988.489207431855	24
1	5316	1988.992365960157	24
1	5317	1989.53636916831	23
1	5318	1989.698878412169	22
1	5319	1991.028580885963	21
1	5324	1992.405622918656	21
1	5326	1993.412738813514	22
1	5328	1994.407149752355	23
1	5332	1994.772561525935	24
1	5337	1998.478745427168	24
1	5339	1998.596451677227	24
2	0	0	0
2	4	2.35274981394	1
2	9	5.004742948345	2
2	22	12.984719970415	3
2	54	20.461579543173	4
2	61	21.930990623784	5
2	68	23.648386611537	6
2	71	25.287149431221	7
2	82	34.582297932809	8
2	89	38.251353169665	9
2	97	39.671498609077	10
2	104	41.994364526	11
2	112	44.288106049763	12
2	117	45.462891048326	13
2	125	49.593169286495	14
2	134	51.38234307704	15
2	140	53.268543014813	16
2	159	61.218289691185	17
2	168	63.955077564218	18
2	178	66.170596042042	19
2	183	67.028633665438	20
2	195	72.229029043484	21
2	198	72.826208868155	22
2	201	72.942325876682	23
2	204	73.185595017692	24
2	212	78.216836107901	25
2	215	79.170898101963	26
2	220	80.174399385398	27
2	223	80.365931137421	28
2	230	82.155904422822	29
2	233	82.447954190329	30
2	243	84.242842800273	31
2	246	85.652060366384	32
2	255	86.599857890891	33
2	258	87.250029004161	34
2	261	87.539053301101	35
2	272	91.005751815622	36
2	279	93.401982193085	37
2	297	98.253347056622	38
2	300	100.074671083323	39
2	312	104.014972253443	40
2	328	108.196902513137	41
2	336	111.215076566557	42
2	347	114.435648959353	43
2	359	117.936020596159	44
2	368	120.448021883552	45
2	374	124.728134437006	46
2	397	127.647191920772	47
2	400	129.319088596316	48
2	403	129.58489621632	49
2	415	134.673225810989	50
2	418	137.023174341452	51
2	425	141.624427830836	52
2	428	142.859756812459	53
2	436	145.003353162329	54
2	439	146.946827522741	55
2	456	151.479097603678	56
2	469	155.590851636285	57
2	487	160.068987024087	58
2	490	160.499536643167	59
2	497	162.044244337718	60
2	503	164.354087923467	61
2	508	164.879381138258	62
2	520	166.215626236286	63
2	528	168.926254890311	64
2	534	171.704839052772	65
2	542	173.496610741734	66
2	545	173.813048411482	67
2	548	174.638707408843	68
2	557	181.533706421215	69
2	561	183.583662393958	70
2	564	184.496670428104	71
2	569	187.302769990814	72
2	573	188.375700175385	73
2	594	193.296655242682	74
2	610	201.918533478309	75
2	616	205.204967553897	76
2	621	206.009496000234	77
2	624	206.425880178149	78
2	627	206.808537399317	79
2	635	209.325236262307	80
2	639	211.922980848004	81
2	647	214.990716891879	82
2	654	217.079388361952	83
2	657	218.210709928762	84
2	661	221.199073458284	85
2	672	227.009984353734	86
2	676	229.42176191826	87
2	685	231.624186756396	88
2	688	233.127935668793	89
2	694	234.880286025021	90
2	705	239.326934524518	91
2	708	239.601519927142	92
2	713	242.532715155556	93
2	716	243.928151155439	94
2	731	249.719740862953	95
2	746	257.132583967345	96
2	756	259.011020458009	97
2	764	260.666095137979	98
2	773	261.828928042851	99
2	777	262.550522623462	100
2	780	262.893889753353	101
2	787	267.044894038695	102
2	793	268.438779333008	103
2	796	270.550784822806	104
2	801	272.149959917982	105
2	822	280.088123572445	106
2	831	287.459645150555	107
2	835	288.285412363404	108
2	838	289.466672854012	109
2	845	291.420060741615	110
2	848	291.688944425537	111
2	853	293.141981651111	112
2	856	293.891483665891	113
2	861	295.052053819813	114
2	869	301.393048506101	115
2	881	302.20400097621	116
2	887	302.827945789375	117
2	893	304.930187037589	118
2	898	307.459570453366	119
2	901	309.793433423762	120
2	913	312.940483929459	121
2	918	313.582142686531	122
2	921	314.112090332915	123
2	930	317.66155316425	124
2	935	322.303859598834	125
2	945	325.752242575303	126
2	972	335.587012394608	127
2	980	339.832325924469	128
2	989	341.109447112115	129
2	996	343.444716028198	130
2	1000	345.173984130759	131
2	1005	345.732528671292	132
2	1009	346.409484461326	133
2	1017	348.563468214883	134
2	1020	349.616538769751	135
2	1030	352.195716849204	136
2	1040	355.367084765979	137
2	1057	365.843652106992	138
2	1107	387.008118199559	139
2	1111	389.460898482877	140
2	1117	390.695443882518	141
2	1120	391.247037343681	142
2	1126	392.773538344183	143
2	1133	393.751165929442	144
2	1141	398.17941106493	145
2	1144	398.309685259106	146
2	1156	403.851290985967	147
2	1168	405.946785188857	148
2	1178	408.560910374949	149
2	1192	417.651216074794	150
2	1202	419.157579463831	151
2	1214	425.391383084829	152
2	1220	426.868836145166	153
2	1231	428.961610648736	154
2	1234	432.473499866468	155
2	1237	434.176347327022	156
2	1241	436.261431204617	157
2	1246	437.846953404463	158
2	1259	441.290765415257	159
2	1264	442.713740038886	160
2	1271	445.242851190316	161
2	1301	460.208934460684	162
2	1304	461.557593437951	163
2	1313	463.361856072341	164
2	1319	464.96085594807	165
2	1322	465.854136693338	166
2	1333	469.338630816591	167
2	1349	476.109317621202	168
2	1365	482.484964732231	169
2	1368	483.152606482531	170
2	1376	486.115255636153	171
2	1379	487.01959575694	172
2	1393	489.752955980432	173
2	1401	492.233947019042	174
2	1408	496.195133878335	175
2	1420	503.619739417321	176
2	1423	504.347730728989	177
2	1462	518.849828959	178
2	1465	519.527628933414	179
2	1470	520.800117295952	180
2	1478	523.338674540079	181
2	1481	524.442054508374	182
2	1484	528.770433601434	183
2	1490	529.731447492248	184
2	1496	531.230974347783	185
2	1499	531.317764615438	186
2	1528	546.106745897758	187
2	1545	552.257661564028	188
2	1550	556.348104300509	189
2	1555	557.529768328542	190
2	1572	561.162601806954	191
2	1583	563.738898029523	192
2	1605	577.259343095905	193
2	1610	579.133057480618	194
2	1613	580.673543299861	195
2	1616	581.430559514615	196
2	1619	583.533281786093	197
2	1630	589.116757368004	198
2	1638	591.368229135454	199
2	1642	592.117651226584	200
2	1652	593.587033536481	201
2	1656	595.18868054558	202
2	1661	598.156949243581	203
2	1670	602.152138910638	204
2	1676	605.793363623707	205
2	1680	607.368746537073	206
2	1685	610.34260373661	207
[...]
10	2422	888.784722292871	3.9169520951
10	2425	889.325315518432	3.392792422447
10	2426	889.344703039763	2.987929298479
10	2429	889.752365747304	0.686620587041
10	2430	890.142457564656	0.737168932945
10	2447	897.558599166777	2.038204600322
10	2450	897.818011416609	2.073037533275
10	2458	900.651412703108	2.011882047211
10	2468	907.09075008877	6.789138404026
10	2476	908.76505273999	7.366049928678
10	2477	908.968762116743	2.066061576346
10	2489	915.234551890698	7.661780500719
10	2509	922.036043566927	8.790420380998
10	2521	925.198249857438	9.196992993808
10	2527	926.397727081121	9.06276254105
10	2528	927.188666285706	7.054149660308
10	2529	927.290452707188	6.97231909885
10	2543	932.917543797203	10.447464297673
10	2553	935.156043692972	11.657522713599
10	2558	938.184217701455	14.525974866174
10	2565	943.003385808495	18.635339178442
10	2571	944.862655226985	19.377934833742
10	2572	945.46912635151	17.970235035859
10	2575	946.009364900335	17.69484423213
10	2576	947.174829284493	15.439902717968
10	2577	947.850127165782	15.99550278589
10	2581	949.99799077634	16.463308517524
10	2584	950.291679039486	16.666855178493
10	2588	953.122799507102	17.263035652701
10	2589	953.346942048747	17.471342137929
10	2590	953.766733046516	12.888208672153
10	2602	956.852118313083	14.23579958633
10	2603	957.490400196323	13.903012134665
10	2604	957.632830053315	13.712594458015
10	2607	959.908600390312	14.064267288121
10	2613	961.742026376012	11.49718638678
10	2614	961.869379785595	9.857512772841
10	2615	962.139201224511	7.568081947736
10	2616	962.742627458007	6.769782311472
10	2617	963.931344437184	4.271444181518
10	2620	966.276949258521	6.287349205549
10	2623	966.449071803	6.113845983515
10	2627	968.691494783687	2.41214132141
10	2637	971.783555147374	2.68124667794
10	2643	972.863460219781	3.511219971818
10	2644	973.487372264129	3.223174155924
10	2645	974.297822224434	2.019297074522
10	2656	978.413024899259	1.516400361371
10	2659	980.499859197506	3.319252516529
10	2660	980.683259894049	2.871310703934
10	2661	981.732581636011	2.323896129852
10	2670	985.155668903676	1.736847387721
10	2686	988.219573473035	1.963593885092
10	2707	993.036427623453	4.038303305452
10	2708	994.11384766763	3.545730984552
10	2709	994.223755240865	3.419351645053
10	2710	995.021453455024	4.010664987197
10	2717	996.697395321045	1.51309565709
10	2718	996.959397245894	1.316586441294
10	2741	1009.813074066504	9.076391959122
10	2742	1010.161289451039	2.560043729807
10	2760	1020.433339542241	6.766860053302
10	2767	1023.022376242067	4.17190178396
10	2783	1029.524979166761	1.423125641512
10	2803	1033.565217998725	3.270893524253
10	2804	1034.54314920221	3.623936880901
10	2807	1038.110837264515	5.942505421317
10	2808	1038.714559536103	6.456346922602
10	2814	1039.636489874191	6.30140154663
10	2815	1039.691139434532	2.148592004686
10	2818	1040.46790748995	1.434034349081
10	2826	1042.074968372268	2.148907483713
10	2856	1052.39511409341	6.101788609277
10	2864	1054.168983354383	6.745948249426
10	2865	1054.880692187363	5.961812748845
10	2866	1055.261776688451	4.771699671315
10	2870	1058.11268768358	6.147196953714
10	2878	1060.154075556848	7.420080175151
10	2879	1060.471814685154	6.729751607345
10	2882	1060.87203147496	4.966325140766
10	2897	1065.261171358801	4.56964217265
10	2898	1065.73965720659	4.463178239456
10	2899	1065.925551566307	3.114861037037
10	2906	1066.854641146591	2.11674809361
10	2907	1067.001391404894	0.857700649437
10	2945	1078.377064372059	6.242591207953
10	2946	1079.316532551377	6.323536812102
10	2952	1080.725701861191	4.917886114032
10	2955	1082.464663624697	6.344396735733
10	2963	1085.53893317808	4.972193500886
10	2964	1085.659607959673	4.341950837633
10	2973	1089.982405160593	5.395249965451
10	2985	1093.426555896617	6.596058784152
10	2989	1094.252491471038	4.124705315325
10	2990	1095.236616115272	4.60011057788
10	2993	1096.18762265185	5.279799350025
10	3003	1101.458084752877	7.752164361419
10	3004	1101.64992926529	5.679414859155
10	3009	1103.596456631174	6.807943777492
10	3017	1106.701068470918	4.94830408719
10	3018	1107.592653224296	4.751219688802
10	3023	1109.004410351359	3.936279456429
10	3024	1109.076637515202	2.89399026236
10	3027	1109.475851268163	3.033988014416
10	3028	1109.490059815531	1.487711778903
10	3034	1112.604146201365	3.27070623217
10	3060	1122.305695315009	7.981947162604
10	3092	1132.934494721331	11.195245142218
10	3095	1134.302797467669	11.683158617003
10	3096	1134.732966568474	11.874099889498
10	3110	1138.461263758303	11.231132814699
10	3113	1139.550619510624	12.270364521956
10	3122	1143.476128780007	12.595329635469
10	3125	1144.559534693896	12.014090351227
10	3141	1148.5115960169	13.756481094912
10	3150	1152.046247250059	14.107928926011
10	3166	1162.356467131799	21.094643715735
10	3179	1166.08526655242	21.218389742454
10	3180	1167.061407229107	21.837970130245
10	3181	1167.644193409819	22.159574631503
10	3229	1177.704137628019	26.020071151292
10	3233	1179.50070540228	27.037968327713
10	3234	1179.912499959789	25.905006235298
10	3237	1181.246801596003	26.546072328807
10	3240	1182.7877065071	27.381676546576
10	3248	1185.757885308953	25.958997336687
10	3249	1185.957072671315	24.449878969622
10	3254	1189.277218642577	26.860167861455
10	3257	1191.128432702583	28.565759210897
10	3276	1197.606431193864	29.721456853657
10	3289	1203.769548504899	33.191315273869
10	3301	1206.710700436206	33.335866948784
10	3312	1208.570546730251	33.225269326118
10	3334	1219.442083958065	40.217475223124
10	3337	1220.178690020312	40.232224341994
10	3359	1231.348638896374	46.584708131672
10	3360	1231.946435945973	45.681724748878
10	3363	1233.874285867155	44.608124930588
10	3364	1233.963339390023	43.206806712756
10	3368	1236.054157027093	41.328277302514
10	3374	1240.907000631577	46.009279584341
10	3375	1240.933457317038	45.760978015545
10	3376	1241.430797133373	44.657576123033
10	3393	1248.024361323391	48.283570903828
10	3396	1251.658914874117	51.847398977049
10	3405	1253.995057210319	53.30640382618
10	3418	1261.03034695876	55.516929529145
10	3421	1262.82459320451	57.138334606711
10	3425	1265.304468108317	57.636545878794
10	3426	1265.406364197579	57.330576871591
10	3430	1268.025110717004	55.566967968228
10	3435	1271.351146412542	57.929392765191
10	3440	1274.195583066723	60.664290087985
10	3448	1280.082866992569	65.827191627523
10	3449	1281.950752073753	65.087910963298
10	3452	1282.640037122784	65.495329465384
10	3457	1284.747400240079	65.413522981965
10	3467	1288.043348185863	66.676731470586
10	3470	1289.105098289672	66.101992100533
10	3485	1292.359127145583	64.887815187436
10	3488	1292.674314281545	64.878032182679
10	3505	1298.450161803606	66.342787392439
10	3517	1301.638957876348	63.695909378143
10	3518	1302.210430121217	59.710405364697
10	3524	1303.990795380355	60.041720762912
10	3530	1307.528975509935	60.579641610683
10	3533	1308.885014493656	61.787819150615
10	3542	1312.579151506913	60.501506495342
10	3558	1317.1305853684	60.51472105863
10	3559	1317.280602766646	59.920115132607
10	3560	1317.905488075227	59.045190035275
10	3561	1318.567489497617	59.530624878072
10	3562	1318.794584246399	57.813887844713
10	3565	1320.554044709771	57.92402443831
10	3576	1324.493975253187	54.731598129412
10	3579	1324.808442470709	54.640581502491
10	3585	1325.767721905747	51.884031434486
10	3589	1326.474398176616	49.805245493814
10	3595	1327.540681668728	45.574094331744
10	3596	1328.870802015073	44.938856520527
10	3601	1329.946317060966	45.219612389176
10	3612	1332.938209655993	42.450983497355
10	3616	1334.656020680805	42.598821661279
10	3617	1336.647430536899	44.094705205558
10	3630	1340.07385083371	45.801178441896
10	3637	1341.937287092817	41.992699426374
10	3641	1343.97263252079	43.467383179603
10	3644	1344.667020159573	41.581307510333
10	3647	1345.015593239023	41.131405833638
10	3651	1347.105160043051	40.351364591482
10	3656	1347.764099696424	39.754423990149
10	3677	1356.764127053486	43.485211906758
10	3690	1361.651012117869	45.283344087119
10	3691	1363.104909711508	43.014475068522
10	3695	1364.321632875393	41.517157040994
10	3696	1364.607652421607	41.607023976828
10	3699	1364.929811523917	40.691243636021
10	3702	1365.107885255373	40.509914432985
10	3711	1368.260884219099	42.221175618237
10	3715	1371.343832468411	43.829935446233
10	3716	1373.406399893837	43.840916537705
10	3717	1374.116878447281	44.478216535482
10	3718	1374.2785735319	44.119494278017
10	3726	1375.845946224268	44.877059395123
10	3730	1379.630094247339	45.919590258968
10	3743	1384.332375147029	46.453272481252
10	3744	1384.474221115041	46.253060062443
10	3753	1388.435065905422	48.334169892765
10	3754	1389.55426092653	48.359957031558
10	3758	1390.520682878441	46.546634408354
10	3763	1395.089950649779	50.168696700574
10	3769	1398.622139516381	51.26576966135
10	3775	1400.6057303617	51.17730741257
10	3780	1403.49998893502	53.347438118766
10	3784	1404.051943290658	52.178211224529
10	3787	1405.030055194046	52.841761422696
10	3790	1405.611767148715	53.007566727793
10	3804	1410.208966636548	53.244079218695
10	3812	1414.512895281475	53.552643862239
10	3830	1419.480383421388	54.759151395657
10	3831	1419.876417626787	54.852221317331
10	3832	1420.989948439441	55.821889692481
10	3840	1426.129996704407	58.272120273142
10	3845	1427.951629274911	58.799782576558
10	3858	1434.314660590045	59.21422593572
10	3865	1436.689692343277	56.409625220077
10	3869	1438.470020566507	55.210427347133
10	3876	1442.521709155174	56.830627353843
10	3879	1443.626929443573	57.37682031021
10	3890	1446.94942744301	54.029315085383
10	3891	1448.071703037362	49.642359744475
10	3897	1450.678341727451	51.866860049964
10	3898	1451.234946255272	52.147704082535
10	3904	1454.346805022926	52.875735633896
10	3905	1454.351596469308	50.390056795678
10	3906	1454.693290976121	50.522248523027
10	3913	1457.470250346571	49.817282330821
10	3930	1460.955918358949	51.272399460677
10	3931	1460.969603373614	49.681760935428
10	3932	1461.357463179498	48.71187581073
10	3933	1461.509101117701	48.160398639662
10	3953	1465.534459818094	49.231427903907
10	3956	1468.248295194935	51.560923760534
10	3957	1468.473710931793	50.404875270218
10	3961	1470.834536281525	49.582199514233
10	3962	1471.343191208513	49.974592768737
10	3965	1472.209727996309	46.642242163244
10	3966	1472.831364356285	46.169722387902
10	3967	1473.803470255035	47.097360930905
10	3971	1475.589647278449	46.311461822864
10	3972	1476.973460697315	47.402321116817
10	3977	1477.433971696673	46.510616663877
10	3980	1477.833029960209	46.428487407602
10	3981	1478.477369856428	43.155121279433
10	3985	1480.07675893871	42.434437407035
10	3988	1480.342890755377	41.356491704357
10	3989	1480.422416799278	37.78639348579
10	3997	1483.751128828685	38.118368741208
10	3998	1484.089221911405	38.108588191187
10	4001	1485.138211313489	39.01207026635
10	4002	1486.560096461743	38.223585221189
10	4003	1487.014403505718	37.077515637986
10	4007	1487.806452583028	35.574562996017
10	4026	1494.386941507057	36.48562057563
10	4027	1495.556514929764	36.681743853526
10	4028	1495.931957517404	34.117878921196
10	4029	1495.949481966983	34.011906872421
10	4032	1499.65126551553	37.68726812133
10	4040	1502.885329811574	39.818908579896
10	4041	1503.060103912444	38.80007665527
10	4042	1503.871378242253	38.982711192333
10	4051	1505.835401878175	35.212671184929
10	4056	1509.868767137567	37.735876487633
10	4057	1509.891317261975	35.231756401797
10	4061	1511.773020546866	34.548176215035
10	4065	1517.042410943456	37.348966758863
10	4080	1519.816042358649	38.481740655051
10	4083	1522.15576561565	39.669776757108
10	4086	1523.862303974886	38.873886608324
10	4092	1525.543908999396	37.304000276478
10	4093	1526.762703287844	38.464814610253
10	4096	1527.634246821585	38.14529061328
10	4099	1528.105999522896	38.260359916161
10	4100	1528.193287948258	37.484742267913
10	4103	1529.80317537202	37.657130421125
10	4104	1530.441476496195	36.266088926079
10	4107	1530.737287965691	34.03657595798
10	4111	1532.96820914549	31.170525526283
10	4117	1536.430433600909	32.030798629293
10	4121	1537.381887536571	31.634157722947
10	4138	1543.795189055783	36.851015796461
10	4147	1547.014232302366	29.78868890153
10	4148	1547.347739248348	29.073667263857
10	4152	1550.457428326559	31.292956848045
10	4155	1551.541998753085	32.270864410368
10	4166	1554.597057331399	31.030855515622
10	4171	1555.604498866848	31.345432852777
10	4179	1557.718406479933	30.656198366095
10	4180	1558.134605520656	30.38885757012
10	4200	1563.457148056897	32.751434318619
10	4201	1564.264334117522	32.671483396241
10	4202	1565.442764963192	32.056474305875
10	4208	1569.753140736854	32.897726541225
10	4247	1586.868326506833	36.309037997516
10	4253	1587.36233545903	35.030662920642
10	4260	1589.382842702472	34.20652201653
10	4261	1590.186917473018	34.869210813363
10	4262	1590.476134258631	33.921940621589
10	4263	1591.407119601385	34.692369526353
10	4264	1592.278843936347	35.393970685052
10	4267	1593.358702693733	33.894406221545
10	4268	1593.390420642192	33.670873344421
10	4277	1597.140678727574	35.290743311321
10	4278	1597.477377878354	35.460932726916
10	4292	1602.840993335006	30.081217540166
10	4297	1604.361781476523	31.370980329465
10	4312	1609.98228429663	34.558882186485
10	4315	1612.310054306177	36.380139985698
10	4328	1616.243392004078	36.741822786125
10	4331	1616.739281843909	37.205050528816
10	4347	1620.555660214531	35.898899761955
10	4350	1623.270795276946	37.371077395044
10	4356	1626.658003092878	39.586974519392
10	4357	1627.258280376717	39.675443759443
10	4362	1629.346827166257	41.734339960885
10	4365	1630.441963913675	37.257335604482
10	4373	1631.760669823231	35.934844758971
10	4387	1638.227396066159	37.091505906451
10	4388	1638.981496344637	36.759434209506
10	4402	1642.564607280827	35.872213399945
10	4403	1642.720984909441	35.505871360916
10	4404	1643.447777418825	33.036063522871
10	4407	1644.979967892662	32.083976023621
10	4416	1648.740711767913	33.218165716903
10	4417	1650.686714208317	34.948764637729
10	4418	1651.413035083212	34.790683660276
10	4419	1652.358921720175	35.605744776791
10	4426	1655.290293010431	38.430778032694
10	4427	1656.276812096595	35.015066742794
10	4436	1658.337017046336	33.707668490458
10	4437	1659.21394412188	31.526239050306
10	4443	1662.146406347474	32.545669341167
10	4447	1664.063493565172	32.989637222027
10	4455	1666.36826465128	33.851633089859
10	4473	1670.186555174659	30.789624847243
10	4474	1671.149941943714	31.619576701663
10	4484	1674.627940333887	32.567402120588
10	4485	1674.918371951836	30.874072383638
10	4488	1676.540436016735	30.762012774829
10	4489	1676.70679247079	30.326637440434
10	4498	1680.387469671107	27.589172976446
10	4506	1684.569604234882	29.96301305503
10	4511	1685.673077077696	28.895152298916
10	4517	1688.615805947599	28.940926864398
10	4529	1692.566858776015	30.306359494878
10	4532	1693.51975848849	29.130762227668
10	4533	1693.732328755746	29.011428259042
10	4539	1698.487349880262	31.738900591939
10	4553	1705.30498218288	36.071895738759
10	4554	1705.56115233663	35.860256726084
10	4561	1706.687823213092	33.91200792609
10	4562	1707.044457126717	33.942032562785
10	4565	1707.210956343328	33.624522157715
10	4568	1709.593165490456	35.713812676519
10	4569	1709.669052880411	33.559669701338
10	4580	1713.132234621001	32.618379506881
10	4581	1714.632503670405	32.619203714327
10	4582	1715.157248203155	31.656147655584
10	4620	1732.409154414961	45.45159671585
10	4624	1737.847786542881	46.484152445438
10	4625	1738.578864193527	45.317540969978
10	4626	1739.096981518611	44.600117975894
10	4638	1742.472710263009	39.862324427132
10	4639	1743.478422066625	40.591914947603
10	4640	1744.829048371838	38.916155439828
10	4641	1744.997661109361	37.944150620509
10	4649	1746.623007871961	36.634924300585
10	4660	1750.715096282819	39.446460667852
10	4663	1751.245737355603	38.805052444193
10	4664	1751.875124969413	36.59559841106
10	4665	1752.855646104771	37.273843039553
10	4668	1753.578454804159	31.838099193217
10	4679	1756.88980171431	29.900097891683
10	4682	1758.005405098575	26.659861078043
10	4683	1758.030774654819	25.700727255078
10	4704	1763.665456708029	23.433828593069
10	4734	1772.567069972256	27.359771063797
10	4740	1777.984867654591	30.521601959737
10	4751	1781.781610657561	30.784876401354
10	4776	1792.945601772704	36.757486715376
10	4785	1800.619625560544	41.545218869018
10	4796	1807.125054573554	45.926839139715
10	4801	1807.795064291625	46.074876040197
10	4815	1812.312493824889	47.614112022848
10	4816	1812.786803450029	47.521817535612
10	4825	1820.050846398059	48.801972977655
10	4826	1820.117047220121	47.971102531488
10	4866	1830.210212512129	51.748741762061
10	4867	1830.399061968764	50.492262521846
10	4871	1832.147512880054	49.186738939375
10	4872	1832.448886911258	47.73641411574
10	4892	1838.851834409986	50.495812515267
10	4895	1840.18795039847	47.926859867734
10	4901	1842.178934330054	46.77366553748
10	4907	1843.172590745563	41.374735017448
10	4908	1843.481536294767	39.931941135849
10	4912	1845.134381005498	37.872455797075
10	4913	1846.854008729332	39.348678701375
10	4914	1847.030664797123	38.834965798586
10	4922	1850.713646168612	40.319897278117
10	4928	1852.117923735884	38.829298167087
10	4939	1853.96484398018	33.691562261231
10	4946	1855.797603990787	35.287622808148
10	4951	1857.449677758236	36.66469848952
10	4952	1858.434937141098	36.508572569385
10	4962	1861.962849950322	37.517365552245
10	4965	1864.017038555918	38.622533585057
10	4973	1865.238677287527	38.1993625117
10	4977	1870.333852357998	35.782538105249
10	4995	1874.383926756179	39.221038797004
10	4996	1875.623108314185	39.969879703021
10	5000	1876.976461558383	40.441443960193
10	5001	1877.722534365676	40.022101586491
10	5007	1879.168763343379	38.836661979379
10	5013	1880.835698437538	38.516620823916
10	5018	1881.326378703243	38.907693170376
10	5035	1887.279787870079	38.386934592351
10	5036	1887.648863302346	37.466775063314
10	5037	1888.875800344703	37.564725762537
10	5038	1888.978853846904	37.120765659043
10	5041	1890.492382872402	38.304312376745
10	5044	1892.749541611478	40.295188765062
10	5047	1894.147955219805	41.554636373653
10	5048	1894.185696281043	41.297322231581
10	5056	1895.872174923737	39.072100905074
10	5063	1898.678851644742	37.843557383737
10	5072	1901.497601233739	37.531700646532
10	5076	1903.697444179296	39.103502147896
10	5079	1905.216121862901	40.102818164969
10	5088	1907.968204644804	36.69244472567
10	5094	1911.250338903394	39.46449064323
10	5095	1913.259176601145	41.046350734552
10	5096	1913.297369882244	39.203085358873
10	5099	1913.774916535946	37.741958164276
10	5103	1917.389608319496	38.358651798232
10	5132	1924.190279744017	43.24373625298
10	5133	1924.507970499558	43.518634889279
10	5134	1925.435285168412	43.698130905411
10	5142	1927.827085100616	42.099548197236
10	5143	1928.26545965261	41.673854784085
10	5144	1928.457884277907	39.057203278198
10	5148	1929.282959168676	36.3892983121
10	5149	1929.387113847207	34.260693354869
10	5153	1931.547501306518	35.72006432842
10	5154	1932.202642156695	35.953627157386
10	5155	1932.973466303332	35.386726835898
10	5161	1936.847496361895	37.052960039749
10	5168	1938.603924411748	38.269260958006
10	5180	1944.211223714564	38.982524863069
10	5181	1945.012798157905	38.011881347592
10	5205	1952.465833080879	34.76432677477
10	5206	1953.725160450243	35.990220028914
10	5207	1954.059433243437	34.151036118064
10	5226	1962.180488365718	36.742292641338
10	5227	1963.149399836259	37.115261933114
10	5233	1964.166015764088	35.652883963225
10	5241	1966.433775294235	30.904178362249
10	5254	1969.367053122312	31.197186667488
10	5258	1970.529659392812	31.710541156807
10	5279	1975.038784809731	25.975904702586
10	5283	1975.621003421639	25.615693553917
10	5288	1979.005355018883	27.780638891537
10	5289	1979.631398074502	27.771069625508
10	5290	1980.203643681014	28.041278149895
10	5296	1983.28645277627	25.369968881492
10	5310	1984.299924818699	20.648295202088
10	5316	1988.992365960157	23.532607495689
10	5317	1989.53636916831	23.423845404864
10	5318	1989.698878412169	22.733129764365
10	5319	1991.028580885963	23.259361617695
10	5337	1998.478745427168	29.475905158976
11	5342	2000	0.443
12	5342	2000	0.4385

