file 363389 1671470925                                          
version 2
run Monotonicity_test_recover_rate-453-20221219-18:28:45-16755
attr configname Monotonicity_test_recover_rate
attr datetime 20221219-18:28:45
attr experiment Monotonicity_test_recover_rate
attr inifile omnetpp.ini
attr iterationvars $0=100
attr iterationvarsf 100-
attr measurement $0=100
attr network Network
attr processid 16755
attr repetition 53
attr replication #53
attr resultdir results
attr runnumber 453
attr seedset 53
param *.minion.arrival_mean 2
param *.minion.service_mean 1.5
param *.boss.arrival_mean 2.5
param *.boss.service_mean 0.5
param *.player.recover_rate_x 100
param **.minion.arrival_distribution 0
param **.minion.service_distribution 0
param **.boss.arrival_distribution 0
param **.boss.service_distribution 0

vector 0 Network.player minion_jobs_number_stat:vector ETV
attr source signal_minion_jobs_number
vector 1 Network.player minion_jobs_queue_number_stat:vector ETV
attr source signal_minion_jobs_queue_number
vector 2 Network.player minion_recovered_stat:vector ETV
attr source signal_minion_recovered
vector 3 Network.player minion_defeated_stat:vector ETV
attr source signal_minion_defeated
vector 4 Network.player boss_jobs_number_stat:vector ETV
attr source signal_boss_jobs_number
vector 5 Network.player boss_jobs_queue_number_stat:vector ETV
attr source signal_boss_jobs_queue_number
vector 6 Network.player boss_defeated_stat:vector ETV
attr source signal_boss_defeated
vector 7 Network.player boss_waiting_time_stat:vector ETV
attr source signal_boss_waiting_time
vector 8 Network.player boss_response_time_stat:vector ETV
attr source signal_boss_response_time
vector 9 Network.player minion_waiting_time_stat:vector ETV
attr source signal_minion_waiting_time
vector 10 Network.player minion_response_time_stat:vector ETV
attr source signal_minion_response_time
vector 11 Network.player minion_throughput:vector ETV
attr source signal_minion_throughput
vector 12 Network.player boss_throughput:vector ETV
attr source signal_boss_throughput
0	1994 26632 0 5286 0 1998.982539320796 984 0 70 38996 1788964
1	28626 51507 0 5286 0 1998.982539320796 1902 0 69 73946 3334470
2	80133 18015 0 5284 0 1998.912939071157 644 0 643 207046 88822734
3	98148 25755 0 5282 0 1998.241301953999 919 0 918 421821 258295059
4	123903 20949 0 5284 0 1998.912939071157 802 0 5 986 1442
5	144852 41887 0 5287 0 1999.634079117391 1603 0 4 370 542
6	186739 22440 0 5287 0 1999.634079117391 802 0 801 321201 171628401
7	209179 22884 2 5284 0.1236165191 1998.912939071157 801 0 2.909260582418 93.474590549158 117.74262704878
8	232063 31275 3 5287 0.207188139713 1999.634079117391 801 0.000175082391 3.942283071129 489.85193368544 593.06841889716
9	263338 62368 5 5287 0.530280487642 1999.634079117391 1562 0 87.348453844373 74086.118314672 4102770.7105344
10	325706 37643 8 5282 0.899949681433 1998.241301953999 918 0.066812834267 87.703123491833 45260.608379689 2568269.9432399
11	363349 19 5288 5288 2000 2000 1 0.459 0.459 0.459 0.210681
12	363368 20 5288 5288 2000 2000 1 0.4005 0.4005 0.4005 0.16040025

