version 2
run Monotonicity_test_recover_rate-282-20221219-18:28:10-15891
attr configname Monotonicity_test_recover_rate
attr datetime 20221219-18:28:10
attr experiment Monotonicity_test_recover_rate
attr inifile omnetpp.ini
attr iterationvars $0=50
attr iterationvarsf 50-
attr measurement $0=50
attr network Network
attr processid 15891
attr repetition 82
attr replication #82
attr resultdir results
attr runnumber 282
attr seedset 82
param *.minion.arrival_mean 2
param *.minion.service_mean 1.5
param *.boss.arrival_mean 2.5
param *.boss.service_mean 0.5
param *.player.recover_rate_x 50
param **.minion.arrival_distribution 0
param **.minion.service_distribution 0
param **.boss.arrival_distribution 0
param **.boss.service_distribution 0

vector 0 Network.player minion_jobs_number_stat:vector ETV
attr source signal_minion_jobs_number
vector 1 Network.player minion_jobs_queue_number_stat:vector ETV
attr source signal_minion_jobs_queue_number
vector 2 Network.player minion_recovered_stat:vector ETV
attr source signal_minion_recovered
vector 3 Network.player minion_defeated_stat:vector ETV
attr source signal_minion_defeated
vector 4 Network.player boss_jobs_number_stat:vector ETV
attr source signal_boss_jobs_number
vector 5 Network.player boss_jobs_queue_number_stat:vector ETV
attr source signal_boss_jobs_queue_number
vector 6 Network.player boss_defeated_stat:vector ETV
attr source signal_boss_defeated
vector 7 Network.player minion_waiting_time_stat:vector ETV
attr source signal_minion_waiting_time
vector 8 Network.player boss_waiting_time_stat:vector ETV
attr source signal_boss_waiting_time
vector 9 Network.player boss_response_time_stat:vector ETV
attr source signal_boss_response_time
vector 10 Network.player minion_response_time_stat:vector ETV
attr source signal_minion_response_time
vector 11 Network.player minion_throughput:vector ETV
attr source signal_minion_throughput
vector 12 Network.player boss_throughput:vector ETV
attr source signal_boss_throughput
0	0	0	0
0	2	0.555717410874	1
0	4	0.825773661317	2
0	6	1.415754961944	3
0	26	9.587819118596	1
0	28	9.770349822432	2
0	30	10.164924273291	3
0	34	13.913281186266	2
0	37	15.087106141776	2
0	49	17.82274134357	2
0	51	17.937730492058	3
0	58	21.503975845188	3
0	61	21.636607700774	4
0	68	26.658571289844	1
0	70	27.621801482976	2
0	94	35.48225469139	2
0	96	35.499317407603	3
0	100	37.10818719982	4
0	111	40.589298310283	3
0	113	40.723984483281	4
0	119	42.169463614276	4
0	123	45.745657742522	3
0	125	46.327759597484	4
0	131	47.577117933524	4
0	133	48.087052321488	5
0	135	48.358528750512	6
0	142	52.048105026547	5
0	148	53.216857641137	5
0	154	56.479044761823	5
0	159	57.189795866829	6
0	164	59.481233041692	7
0	175	61.173902375869	8
0	178	62.049072403563	8
0	181	65.167613856571	8
0	185	65.661183624841	9
0	192	67.726796201524	9
0	194	69.220705957272	10
0	197	69.794517319907	10
0	199	69.964153235369	11
0	211	75.434280358867	8
0	220	77.563073804263	8
0	227	79.241735240117	7
0	232	81.520071570763	5
0	234	81.751629230699	6
0	236	81.841133195799	7
0	245	85.995893580143	7
0	253	89.4353502618	5
0	258	89.98212652504	6
0	269	92.636567201404	7
0	280	94.760698834457	8
0	292	98.432241892809	9
0	296	99.810833052313	10
0	298	100.054206734101	11
0	300	100.865091502525	12
0	306	106.824492824197	12
0	311	109.622769408224	12
0	320	113.670726776261	13
0	323	114.095050452704	13
0	331	115.266053302909	11
0	349	122.022782096292	7
0	351	122.486869401288	8
0	356	123.034164005021	9
0	360	124.594733646059	9
0	366	125.885310561019	10
0	368	126.083004853914	11
0	370	126.50869897471	12
0	374	127.41037273913	13
0	376	128.826959913953	14
0	378	129.915567644365	15
0	381	130.308608081895	15
0	405	138.591760247958	12
0	410	141.102076469225	13
0	414	142.560274310187	12
0	419	144.013160401384	13
0	428	147.258343740975	10
0	431	148.033706091515	10
0	442	156.694329160604	8
0	463	165.714301503478	7
0	466	166.750284716166	8
0	478	173.457109028298	7
0	486	175.464442394783	8
0	500	181.803868291832	1
0	504	182.469394336446	2
0	509	183.788159500441	3
0	517	187.135325827878	2
0	520	187.487692715055	2
0	522	187.68608915832	3
0	524	188.814211784542	4
0	526	189.382923307984	5
0	529	190.036705985827	5
0	532	191.098114626957	5
0	534	191.100093656225	6
0	536	193.777903991917	7
0	545	196.430507749718	7
0	548	197.633145817973	7
0	550	198.589610904438	8
0	557	204.110341413377	4
0	562	207.258467665457	5
0	567	209.248597028719	6
0	573	210.092995076262	6
0	579	213.643453210575	3
0	587	214.770344713898	4
0	597	218.562575642529	3
0	601	219.389850839146	2
0	605	221.965785924722	1
0	614	226.175279885219	1
0	622	229.584682459067	2
0	627	232.057370520808	3
0	629	232.149763424669	4
0	632	234.301705911341	4
0	634	234.464297772172	5
0	636	235.55361298644	6
0	640	237.988749627101	5
0	642	238.412542223421	6
0	646	240.577079036675	5
0	648	240.855711922545	6
0	654	245.333717105843	6
0	656	246.697941619118	7
0	658	247.793586147704	8
0	660	248.682531856891	9
0	666	250.267062895017	9
0	668	250.536180476818	10
0	676	252.903790084008	11
0	680	256.586752173799	10
0	684	258.722061041042	9
0	686	260.402997539655	10
0	692	262.492156026608	10
0	700	264.120017232564	5
0	705	265.104660449471	3
0	711	267.565441267878	3
0	718	271.132205090919	2
0	723	271.791911417062	3
0	737	276.555853161886	3
0	746	279.481877535724	4
0	748	279.738920047762	5
0	751	282.11433640582	5
0	753	282.664809917004	6
0	755	283.140364516529	7
0	757	284.028585909463	8
0	759	284.631587636105	9
0	762	285.477841581695	9
0	764	286.252434386932	10
0	769	290.33708376761	8
0	775	292.595053438271	7
0	781	294.128221878579	5
0	783	295.926176176338	6
0	801	301.831269258317	6
0	811	304.131618910768	7
0	813	304.426981556547	8
0	824	308.783421293445	8
0	826	309.138815031784	9
0	829	310.605038809194	10
0	837	316.975858470869	8
0	845	318.805840608626	9
0	852	323.026577952271	9
0	860	325.905777286779	7
0	862	326.454657195359	8
0	866	331.295255091899	7
0	869	334.243159641451	7
0	875	337.106285701071	4
0	877	337.622840408924	5
0	880	341.603590605501	5
0	887	343.839668389719	6
0	896	344.757789260243	7
0	898	345.682403445243	8
0	906	347.052048671458	9
0	909	350.370000354899	9
0	933	359.489689525005	8
0	942	364.633815586342	6
0	944	366.273268562454	7
0	948	368.636178491112	6
0	950	369.064352466156	7
0	955	370.861572911702	5
0	957	370.915409467603	6
0	970	377.272624020852	3
0	979	377.916848695804	4
0	983	378.470917516948	5
0	985	378.665857204382	6
0	989	379.164902485236	7
0	994	379.55636794687	8
0	999	382.720259342916	9
0	1003	383.883157041416	10
0	1008	386.683273417034	9
0	1010	386.736649170304	10
0	1014	388.46962741248	9
0	1016	389.81328004471	10
0	1025	391.093697856633	10
0	1029	394.07423093683	9
0	1031	394.202965402935	10
0	1039	397.385970901389	11
0	1043	399.741404869818	10
0	1052	401.875117088695	10
0	1061	404.32486362971	10
0	1066	406.817626459014	11
0	1071	409.370391763311	11
0	1074	410.298968055112	12
0	1085	412.802648070671	13
0	1090	414.739152483758	14
0	1095	417.780922908907	12
0	1097	417.781763511958	13
0	1099	417.964614888113	14
0	1101	418.014701199309	15
0	1103	419.330897802062	16
0	1105	421.212535223826	17
0	1115	423.782144432411	13
0	1132	427.858924883434	11
0	1134	429.115303805755	12
0	1141	430.019988606802	11
0	1147	432.86327938721	11
0	1154	436.086401733594	10
0	1160	437.587981032665	10
0	1166	438.516700374422	11
0	1169	439.205674899263	12
0	1177	440.794165570073	13
0	1182	443.449707687992	12
0	1185	445.030441695417	12
0	1187	445.713165307908	13
0	1189	445.735162428007	14
0	1191	445.949473012693	15
0	1194	446.490949175721	15
0	1198	448.309875381792	14
0	1205	453.331862102501	10
0	1207	453.350356399359	11
0	1221	457.449209221693	9
0	1227	458.298582183325	10
0	1229	458.85581633228	11
0	1235	459.391774471292	12
0	1238	459.91081785528	13
0	1249	463.592960229134	14
0	1252	468.57333276466	14
0	1270	474.401750909212	8
0	1272	474.474947006613	9
0	1283	478.158382814349	10
0	1289	480.360764404504	10
0	1291	480.621486088368	11
0	1293	481.353826477012	12
0	1295	481.367685621506	13
0	1298	483.770533254572	13
0	1308	487.172784860784	12
0	1310	488.777445910439	13
0	1322	492.880968860538	13
0	1328	494.576120348903	10
0	1334	497.472060528811	7
0	1344	501.358899072604	7
0	1359	505.95480554639	6
0	1361	506.332979635441	7
0	1363	506.337742307425	8
0	1366	508.19052704647	8
0	1378	511.860261776553	5
0	1385	513.199841398229	6
0	1393	514.775248986355	5
0	1400	515.648638781763	6
0	1403	517.041206304116	7
0	1411	520.789519470331	8
0	1418	522.973518332784	9
0	1426	524.84757819727	8
0	1434	531.098150455053	3
0	1436	531.664472637072	4
0	1438	533.08872321664	5
0	1450	536.931334271121	5
0	1452	536.941166515951	6
0	1454	538.01554971803	7
0	1458	540.457134218764	6
0	1461	540.731526208545	6
0	1464	541.696635987695	6
0	1469	543.867672017756	7
0	1471	544.343230333699	8
0	1475	545.549684677051	9
0	1479	546.050435432563	10
0	1481	546.681677287509	11
0	1483	546.872939547319	12
0	1490	548.76258026672	13
0	1496	550.097943794858	13
0	1498	550.632788256614	14
0	1500	551.598438612246	15
0	1505	552.355759310845	16
0	1507	552.369885548383	17
0	1511	554.024376660316	18
0	1514	556.224751233835	19
0	1516	556.225909263525	20
0	1519	556.679496013501	20
0	1521	557.665833821544	21
0	1550	567.579921755908	16
0	1557	571.432152872986	15
0	1559	571.660060252605	16
0	1568	574.448808573417	13
0	1570	574.599050708476	14
0	1574	578.423720094124	13
0	1585	582.313079682525	14
0	1590	583.31325942945	15
0	1593	583.707653868366	15
0	1600	584.782474055772	16
0	1604	585.723227468892	16
0	1611	589.564905021857	15
0	1620	592.747256003396	15
0	1623	594.848235010993	15
0	1625	595.03213630554	16
0	1627	595.863002861545	17
0	1629	596.628809091357	18
0	1632	597.511658230244	18
0	1637	600.295364139859	16
0	1641	604.079765353008	15
0	1644	604.853567463218	15
0	1649	607.887323109968	13
0	1657	610.660565610153	14
0	1664	613.165918985172	13
0	1667	613.914804439537	13
0	1672	615.240628434327	11
0	1678	616.082636003204	11
0	1682	616.532868175401	10
0	1690	622.008804957496	8
0	1695	623.590995713696	9
0	1697	624.154651063183	10
0	1710	628.86931619984	6
0	1714	630.911181161071	5
0	1746	637.399431258936	3
0	1750	638.791610776082	2
0	1756	640.878358087741	2
0	1758	641.258385416566	3
0	1763	643.986480076494	1
0	1770	647.604086072253	2
0	1776	648.84607918241	3
0	1791	655.485743523314	1
0	1795	657.0739163539	2
0	1799	659.45850287823	1
0	1805	661.149101967186	1
0	1811	663.867760179334	1
0	1822	668.684819821482	1
0	1824	668.752229160335	2
0	1827	670.28795144891	3
0	1834	675.907145360048	2
0	1842	677.739439998641	2
0	1847	680.312746075093	3
0	1849	680.457747945135	4
0	1852	681.470410668703	5
0	1854	681.644275400417	6
0	1857	681.823427990466	6
0	1859	681.856340747773	7
0	1861	682.312612862785	8
0	1863	682.545482594039	9
0	1869	684.09939415255	9
0	1882	687.983550785177	7
0	1884	689.58246006291	8
0	1892	691.588879803288	9
0	1901	692.65582083669	9
0	1911	694.958015100206	9
0	1916	696.86837533952	10
0	1920	698.055556536629	9
0	1932	700.572716001261	9
0	1934	701.479401472003	10
0	1942	704.416921837597	10
0	1944	704.531505432589	11
0	1952	709.567030647872	10
0	1959	710.014778050018	10
0	1971	712.99925237567	11
0	1993	721.453718092322	6
0	2006	724.303238128866	4
0	2010	727.00674233668	3
0	2030	734.005340113799	1
0	2032	734.35075852103	2
0	2036	737.41534474175	1
0	2038	737.896210269064	2
0	2047	739.837089147093	2
0	2051	742.357188415667	1
0	2057	748.195401795215	1
0	2066	753.828839595295	1
0	2074	757.567956444816	2
0	2076	758.456203249125	3
0	2079	759.709029573776	3
0	2081	759.939997386232	4
0	2084	761.595749760154	4
0	2090	764.744580180554	3
0	2093	765.204302817662	4
0	2095	766.053989839091	5
0	2101	770.852263130912	5
0	2139	781.026407862167	3
0	2144	783.30075630895	4
0	2154	788.789997367888	3
0	2159	788.970906431596	4
0	2162	789.67498583541	4
0	2167	793.363032487081	2
0	2174	797.298305380813	1
0	2176	797.456685173292	2
0	2181	801.469739837969	3
0	2184	802.669386878267	3
0	2189	804.138659128279	4
0	2191	804.860072688795	5
0	2198	807.285274806219	6
0	2209	810.217296246747	5
0	2212	812.022145099935	5
0	2218	813.0947489894	6
0	2223	813.855334742183	6
0	2225	814.198228491066	7
0	2236	818.507444017963	5
0	2241	820.337327877749	6
0	2253	825.017894112556	6
0	2261	827.741586715714	5
0	2264	828.08691121278	6
0	2268	830.229962872852	6
0	2270	830.409746030369	7
0	2278	831.893077164738	8
0	2280	832.430062962091	9
0	2287	838.607377872565	5
0	2289	839.317562307326	6
0	2299	840.890680637329	5
0	2302	842.302132639632	5
0	2305	844.45621445716	5
0	2309	844.947062868786	6
0	2311	845.54950255235	7
0	2324	853.722188970022	1
0	2328	854.594474081531	2
0	2331	856.174642507573	3
0	2333	856.934047863842	4
0	2339	859.743726242283	1
0	2343	863.379518782795	2
0	2348	865.285059023604	1
0	2351	868.069971942993	1
0	2353	868.228261780613	2
0	2357	869.166764833494	3
0	2359	869.243252129743	4
0	2362	869.829418235705	5
0	2367	871.000060211406	6
0	2375	875.120298965789	4
0	2382	878.308825333962	3
0	2385	878.680603027725	3
0	2388	879.672822062602	3
0	2390	880.118237427646	4
0	2393	884.363380791931	4
0	2396	884.487973889595	4
0	2403	885.635664733818	3
0	2405	885.870141344782	4
0	2420	889.104372034766	4
0	2424	891.883697212389	5
0	2435	897.980891221998	4
0	2440	900.261412734582	5
0	2444	902.195843301497	6
0	2448	904.301153968774	6
0	2454	906.450201884155	6
0	2458	907.238639225909	5
0	2465	909.118672262141	4
0	2474	914.284580660678	4
0	2480	917.980860814174	4
0	2482	918.326976723418	5
0	2485	921.191273185931	5
0	2489	921.261881622596	6
0	2491	921.377100170979	7
0	2494	921.932345871621	8
0	2496	922.28058941738	9
0	2504	926.854109423357	7
0	2506	928.434799351959	8
0	2508	928.989281410805	9
0	2515	931.353942208566	8
0	2522	933.177195880964	7
0	2524	934.085230249584	8
0	2527	936.737503733651	8
0	2531	937.45698284363	9
0	2533	938.380312584023	10
0	2540	941.640845867786	7
0	2546	942.46898273746	8
0	2548	943.362569811953	9
0	2576	954.899551847142	4
0	2587	960.085704536834	2
0	2596	964.545781063347	2
0	2598	966.2049546839	3
0	2605	970.350813335863	4
0	2607	970.513570041536	5
0	2611	971.075118585406	5
0	2618	975.606677104105	6
0	2621	977.174281497292	7
0	2629	978.79177287822	8
0	2633	980.7026220321	7
0	2635	981.710821612377	8
0	2639	982.163178055827	7
0	2647	983.878830809548	8
0	2650	984.689075159811	8
0	2666	996.003080952201	7
0	2668	997.145213766021	8
0	2670	997.600949341191	9
0	2673	997.733305226086	9
0	2675	998.353417189866	10
0	2677	998.636575974569	11
0	2679	998.953706635566	12
0	2681	999.123373920119	13
0	2686	1004.058750082082	11
0	2702	1008.004079400143	7
0	2704	1009.577695697224	8
0	2709	1012.448046926893	9
0	2712	1014.977348655063	9
0	2724	1017.868357472471	9
0	2729	1020.100624472903	10
0	2739	1021.184514421825	11
0	2743	1024.389918840648	11
0	2750	1028.703323313478	10
0	2752	1029.00675749319	11
0	2760	1031.524087405432	11
0	2762	1031.595103644706	12
0	2764	1031.67070422763	13
0	2767	1033.804400482831	14
0	2769	1034.388095379532	15
0	2771	1034.757993492259	16
0	2775	1035.422589366677	15
0	2777	1036.38653041745	16
0	2779	1036.945784145854	17
0	2783	1038.782068780442	16
0	2796	1045.853082431315	15
0	2800	1047.364623352979	16
0	2803	1049.934183866281	17
0	2805	1050.716790612734	18
0	2808	1051.962233208348	18
0	2810	1052.04593364495	19
0	2833	1059.91407955914	17
0	2847	1065.399738067804	18
0	2849	1065.822879262293	19
0	2851	1066.277388111342	20
0	2853	1067.321170638602	21
0	2856	1068.19976090875	21
0	2867	1077.653096449376	19
0	2869	1078.112496895047	20
0	2877	1080.228433281703	21
0	2891	1088.016976583461	19
0	2893	1089.418376704071	20
0	2895	1090.083395955053	21
0	2897	1090.347409870623	22
0	2899	1090.872110803776	23
0	2901	1091.323170114669	24
0	2903	1091.668859547677	25
0	2908	1093.160561334267	26
0	2910	1093.721086653373	27
0	2914	1098.476492841621	26
0	2918	1100.099999072172	25
0	2920	1100.909083819628	26
0	2926	1102.299088946151	26
0	2933	1103.139552839279	25
0	2939	1107.114323133686	25
0	2949	1108.843786144485	26
0	2953	1109.790830413409	26
0	2956	1112.149615948108	26
0	2963	1115.019651617066	24
0	2967	1118.021369073568	24
0	2975	1119.992807438506	24
0	2978	1121.193500773191	25
0	2990	1126.210150613481	22
0	2997	1129.892646149079	21
0	3000	1130.650567852637	21
0	3002	1130.956606720578	22
0	3004	1131.335942354859	23
0	3010	1134.500159814442	23
0	3012	1135.41857600231	24
0	3014	1138.047026896681	25
0	3019	1141.669919467087	23
0	3022	1142.139350437445	23
0	3028	1144.045409269146	23
0	3035	1146.691388101776	22
0	3038	1148.430809735671	22
0	3040	1148.469215210718	23
0	3043	1150.596597282162	23
0	3048	1152.031358842161	23
0	3050	1152.113602496942	24
0	3059	1154.269305571619	24
0	3061	1154.50608465236	25
0	3069	1157.014729886232	26
0	3071	1157.852047393847	27
0	3076	1159.674699298686	26
0	3078	1159.719977022896	27
0	3080	1159.879238805816	28
0	3090	1164.797202630409	27
0	3092	1165.587695414712	28
0	3094	1165.858952833018	29
0	3099	1167.866027555471	29
0	3103	1171.643377199473	29
0	3106	1171.963790284543	29
0	3125	1177.960798127788	30
0	3135	1179.620899280831	31
0	3148	1183.030974109175	32
0	3150	1183.336753922799	33
0	3160	1188.422652175288	32
0	3170	1191.731897972813	31
0	3172	1191.772163000287	32
0	3175	1192.842628727049	32
0	3179	1195.185385582946	33
0	3182	1196.010435202998	34
0	3184	1196.453013534763	35
0	3187	1197.622993345466	35
0	3192	1202.141477185052	36
0	3197	1205.735324700715	34
0	3202	1206.602682566328	35
0	3204	1207.069991456402	36
0	3208	1209.055753549086	35
0	3210	1209.508675610563	36
0	3214	1210.36117774093	35
0	3216	1210.806134144546	36
0	3234	1218.337749863065	36
0	3236	1218.431169972368	37
0	3238	1218.481146435497	38
0	3254	1223.7417196076	37
0	3261	1229.096370440582	36
0	3293	1242.012375888696	31
0	3295	1242.585514952641	32
0	3300	1244.198674005737	30
0	3305	1247.503345260643	28
0	3307	1247.547515210666	29
0	3315	1250.455113134638	30
0	3317	1251.413780397266	31
0	3319	1251.415154464265	32
0	3323	1252.977015898827	31
0	3326	1253.280135778155	31
0	3330	1256.052408108577	30
0	3332	1256.474935372298	31
0	3337	1259.162047773014	29
0	3349	1261.281827810215	29
0	3351	1261.782761203414	30
0	3353	1262.047517852642	31
0	3355	1262.235533926299	32
0	3358	1262.945151431685	32
0	3364	1264.868222950567	29
0	3367	1266.372741172586	29
0	3372	1267.294025037241	30
0	3377	1268.41788164825	31
0	3379	1271.466972756567	32
0	3388	1274.328574422189	33
0	3394	1276.244465407631	34
0	3400	1278.916870605278	35
0	3402	1279.410095790323	36
0	3414	1288.681029877907	33
0	3418	1289.643342205392	32
0	3421	1290.327199190802	32
0	3431	1296.701005825752	31
0	3435	1296.994654835053	32
0	3437	1297.142565351732	33
0	3446	1300.082479620619	34
0	3454	1303.171060481549	35
0	3456	1303.265834048167	36
0	3458	1304.126721632472	37
0	3460	1304.33422024911	38
0	3478	1310.051317983213	35
0	3482	1311.6414383765	36
0	3500	1318.029921675641	36
0	3502	1318.040567473295	37
0	3512	1323.968868187481	35
0	3524	1326.773919071553	36
0	3527	1327.810119714333	37
0	3531	1330.229695068244	36
0	3535	1331.061297741094	37
0	3537	1331.156953702241	38
0	3539	1331.207379646269	39
0	3545	1332.559822688568	40
0	3550	1333.209771244376	40
0	3553	1334.389439062733	41
0	3555	1334.961681428089	42
0	3564	1335.700546072872	42
0	3568	1336.172765191922	41
0	3571	1337.651494460058	41
0	3578	1338.833207002682	42
0	3593	1348.455371863591	37
0	3595	1348.951608017928	38
0	3599	1351.194049107117	37
0	3604	1352.402496232425	38
0	3606	1353.532674603184	39
0	3610	1353.951564202765	40
0	3617	1357.756679866929	40
0	3619	1357.828653077455	41
0	3632	1361.962426734297	40
0	3636	1362.885801499781	41
0	3638	1363.061479266778	42
0	3643	1363.403452658654	43
0	3646	1364.410264987329	44
0	3650	1365.146972236127	45
0	3652	1365.285441317548	46
0	3655	1365.770395938593	47
0	3665	1368.056991259637	43
0	3667	1368.52604006892	44
0	3671	1369.904321343798	45
0	3687	1375.021982302427	45
0	3691	1375.484126104635	46
0	3695	1377.740731495677	46
0	3697	1378.167488616682	47
0	3704	1381.866829742308	46
0	3708	1385.548041382336	45
0	3710	1386.327374995809	46
0	3712	1386.547477197114	47
0	3714	1386.822900890278	48
0	3721	1388.423653412404	49
0	3724	1389.815723435597	50
0	3726	1390.487467442632	51
0	3728	1390.875110628595	52
0	3736	1395.098709525555	50
0	3740	1397.06968835124	49
0	3745	1398.583230529136	50
0	3750	1405.834826813732	48
0	3752	1406.689089917349	49
0	3769	1414.550270965767	41
0	3790	1420.585985789606	35
0	3794	1422.48322450952	34
0	3806	1428.570876751994	31
0	3811	1433.037602493636	31
0	3814	1434.779298651001	32
0	3821	1437.841630930093	31
0	3823	1440.723959879071	32
0	3832	1445.882035085192	31
0	3835	1447.418749234879	32
0	3837	1448.074361386511	33
0	3839	1448.194315516475	34
0	3855	1453.113852880796	30
0	3865	1454.666859901927	28
0	3871	1456.013876161315	28
0	3882	1459.657478702195	27
0	3885	1460.44912916923	27
0	3887	1461.047681235937	28
0	3890	1461.574605523244	28
0	3895	1462.920486179634	26
0	3899	1463.843723688144	27
0	3906	1465.98653625132	27
0	3908	1467.739477853435	28
0	3912	1468.283621344962	29
0	3915	1469.102081572643	30
0	3920	1472.14818400776	31
0	3925	1472.397356668942	29
0	3932	1474.414080702179	30
0	3935	1475.358923109766	31
0	3937	1478.09433316994	32
0	3942	1478.904251481046	33
0	3945	1480.389406621857	33
0	3947	1480.986880445909	34
0	3949	1482.416911278739	35
0	3952	1485.918766466928	35
0	3956	1486.728506908602	36
0	3963	1489.560317575642	36
0	3971	1494.27304568446	37
0	3974	1494.722842999957	37
0	3976	1495.61883667301	38
0	3982	1497.018616012269	38
0	3984	1498.765180117553	39
0	3986	1501.082207057803	40
0	3992	1502.572755178241	37
0	3994	1504.243092772876	38
0	4008	1508.106779013896	36
0	4013	1509.209547890054	34
0	4015	1509.690601757623	35
0	4025	1517.034403524223	36
0	4032	1517.841765701126	37
0	4035	1518.614696476126	38
0	4047	1520.803286206376	39
0	4049	1521.066951894745	40
0	4051	1522.642715711281	41
0	4053	1522.810229043288	42
0	4055	1524.400578570942	43
0	4060	1525.288695083748	44
0	4068	1526.179973674027	45
0	4071	1527.736808916302	45
0	4073	1527.809792686318	46
0	4078	1529.677005450729	47
0	4080	1529.69595587574	48
0	4086	1535.510912302013	45
0	4089	1536.063252184444	45
0	4091	1537.380105421115	46
0	4093	1537.877348269784	47
0	4097	1539.081949548043	46
0	4099	1539.429295056632	47
0	4101	1539.510494892039	48
0	4106	1541.417802766113	49
0	4110	1543.449831731266	48
0	4119	1547.745829954653	49
0	4133	1555.57769851895	46
0	4135	1556.305639675606	47
0	4137	1556.35932598229	48
0	4141	1557.753792348991	47
0	4147	1560.889102354274	47
0	4152	1564.030535260227	45
0	4165	1567.850175294766	44
0	4167	1568.672245038317	45
0	4169	1568.750019578983	46
0	4172	1569.27483528338	46
0	4178	1571.522883925361	43
0	4180	1572.261239084664	44
0	4184	1573.668989400245	45
0	4187	1574.386041703526	46
0	4189	1574.493509732563	47
0	4205	1581.477548081292	45
0	4208	1583.409800164064	46
0	4210	1583.619918279423	47
0	4212	1584.229900054242	48
0	4215	1586.201794846351	48
0	4217	1586.444433520796	49
0	4221	1587.739711386147	48
0	4228	1590.896115075725	47
0	4243	1595.810107871059	46
0	4251	1597.553199270432	47
0	4254	1597.94203251538	48
0	4256	1598.310130084018	49
0	4258	1598.525529478543	50
0	4260	1600.784834661748	51
0	4262	1602.273783364645	52
0	4266	1602.401986125879	53
0	4281	1609.290248990718	51
0	4285	1610.426629498965	52
0	4291	1611.904238356281	53
0	4293	1613.149137320526	54
0	4298	1616.098469440457	55
0	4302	1616.702460994627	56
0	4309	1618.868888146727	56
0	4320	1626.046373311254	53
0	4329	1629.002759982155	51
0	4332	1630.363945727016	51
0	4334	1630.399867495287	52
0	4338	1634.795582128551	51
0	4343	1635.282580763767	52
0	4346	1637.020602161836	52
0	4348	1637.12948964569	53
0	4350	1637.430210089558	54
0	4352	1637.667157467544	55
0	4361	1640.033012855829	52
0	4367	1644.932352469239	49
0	4375	1647.160198192502	50
0	4383	1649.850846509332	48
0	4387	1653.29898441663	47
0	4390	1653.535222193152	47
0	4392	1654.628991999387	48
0	4402	1659.344006450316	47
0	4426	1669.180135134893	41
0	4428	1670.128274236785	42
0	4441	1676.932500956887	35
0	4443	1677.047855868031	36
0	4445	1677.835950994498	37
0	4453	1680.366124098557	35
0	4462	1685.364855552397	34
0	4465	1685.958742584317	35
0	4470	1688.586173719255	36
0	4486	1695.440508649475	31
0	4499	1700.570982191769	31
0	4502	1701.553820370672	31
0	4508	1704.382853174247	31
0	4511	1705.490503820351	31
0	4517	1706.208483402632	31
0	4519	1706.389305286849	32
0	4521	1706.998256741537	33
0	4529	1710.650956731924	33
0	4533	1713.570304593027	33
0	4538	1715.670139520252	33
0	4541	1717.326883668612	34
0	4543	1718.091003622786	35
0	4545	1718.3078647501	36
0	4551	1720.231158048932	36
0	4558	1723.797180492427	35
0	4562	1724.798762741387	34
0	4565	1725.395352347007	34
0	4567	1726.564383662689	35
0	4569	1727.272510875733	36
0	4571	1727.921638743817	37
0	4577	1729.171537484764	37
0	4579	1729.43878056995	38
0	4583	1732.355999269544	37
0	4587	1733.858751863051	36
0	4606	1742.079147781939	35
0	4608	1743.277279689298	36
0	4613	1745.771174973411	34
0	4622	1748.786262340841	34
0	4625	1749.333884794172	34
0	4627	1749.895737553423	35
0	4630	1750.166536665335	35
0	4632	1752.198776493764	36
0	4634	1753.501255047875	37
0	4636	1754.072334443736	38
0	4643	1758.43963847912	37
0	4645	1758.817077961268	38
0	4649	1760.608653921621	37
0	4652	1760.969725061474	37
0	4655	1763.19513546677	37
0	4659	1763.857179435586	36
0	4661	1765.77095651005	37
0	4669	1770.349238190744	35
0	4673	1770.830667229894	34
0	4692	1778.55605336226	32
0	4707	1785.362196664094	33
0	4716	1786.947230554997	33
0	4719	1787.103438888552	33
0	4721	1787.446800864657	34
0	4726	1789.62170357902	35
0	4747	1797.441448270029	29
0	4749	1797.946718446293	30
0	4753	1798.386821515612	31
0	4758	1799.572671981201	32
0	4761	1801.353815174203	33
0	4770	1804.996050556092	34
0	4775	1807.609156147985	34
0	4780	1809.150316917171	35
0	4782	1809.353703976345	36
0	4785	1809.77017665267	36
0	4788	1810.793267878084	36
0	4790	1810.952681625133	37
0	4796	1812.949875708343	36
0	4799	1813.250024671725	37
0	4807	1817.739720281042	34
0	4816	1819.70723849117	34
0	4823	1822.951658239709	34
0	4828	1824.615755735722	34
0	4831	1826.895972136502	35
0	4833	1827.184489771316	36
0	4836	1828.929243086236	36
0	4840	1831.232494015502	35
0	4844	1832.1713417068	36
0	4847	1837.036450462061	37
0	4865	1843.494251043109	32
0	4871	1846.405845172743	33
0	4874	1846.589147668593	34
0	4877	1851.534498751356	34
0	4883	1855.800331676631	33
0	4894	1860.123070632398	34
0	4912	1865.085744185927	32
0	4914	1865.368920925242	33
0	4916	1865.629702210042	34
0	4918	1865.921762832749	35
0	4920	1867.563577575631	36
0	4923	1868.165224910682	36
0	4927	1868.757494899643	35
0	4939	1875.868816762516	32
0	4946	1877.441637129138	33
0	4948	1877.755792889572	34
0	4959	1880.543123747958	33
0	4962	1881.98724427638	33
0	4966	1883.787090492798	34
0	4970	1885.888147387161	34
0	4975	1886.923192447773	35
0	4977	1887.540739147817	36
0	4979	1887.833015498714	37
0	4985	1888.694748028396	37
0	4988	1889.175773843245	37
0	4997	1893.524772291506	37
0	5000	1894.523528086467	37
0	5011	1897.929346390832	38
0	5013	1898.217552293382	39
0	5028	1901.986052636368	36
0	5030	1901.988813368428	37
0	5032	1902.366000361709	38
0	5034	1902.466717980824	39
0	5039	1904.268637798847	40
0	5047	1907.484305629098	38
0	5050	1907.720959456187	38
0	5052	1909.569467217422	39
0	5056	1912.195487848914	38
0	5058	1912.509153740628	39
0	5061	1912.661837066966	39
0	5063	1913.108421468575	40
0	5065	1913.161415388484	41
0	5082	1925.186057193435	38
0	5085	1926.004742167291	39
0	5097	1934.219079110111	35
0	5099	1934.370555617574	36
0	5104	1935.680527472358	37
0	5110	1941.507035544281	37
0	5112	1941.744768526957	38
0	5117	1945.14444946874	39
0	5119	1946.040630066129	40
0	5121	1946.111686328124	41
0	5123	1946.545014419266	42
0	5127	1947.399475955177	42
0	5130	1949.518909831696	42
0	5134	1949.952333313335	43
0	5136	1950.407697991994	44
0	5142	1952.33349037207	45
0	5150	1958.859677608121	43
0	5152	1960.500382969622	44
0	5158	1962.95514447852	44
0	5166	1965.949308441388	42
0	5172	1966.713985303601	42
0	5175	1968.835340042957	42
0	5181	1969.742104625621	42
0	5184	1970.13327801631	42
0	5189	1971.905790138883	43
0	5197	1973.501271264349	43
0	5200	1973.814492810344	44
0	5202	1974.313932223478	45
0	5205	1975.768976108987	45
0	5207	1975.772483053005	46
0	5210	1976.663169593392	46
0	5212	1977.481921630966	47
0	5220	1980.547291321191	46
0	5222	1980.619421220903	47
0	5235	1986.677756779846	45
0	5237	1986.827795175196	46
0	5239	1986.999986138149	47
0	5249	1990.793911362422	43
0	5263	1993.963622306269	41
0	5273	1996.212413195028	42
0	5276	1996.696002999941	43
1	0	0	0
1	2	0.555717410874	0
1	4	0.825773661317	1
1	6	1.415754961944	2
1	19	4.589922061241	2
1	20	4.768799514391	1
1	21	4.903552040913	0
1	26	9.587819118596	0
1	28	9.770349822432	1
1	30	10.164924273291	2
1	31	11.380175294547	2
1	32	11.490049970152	1
1	34	13.913281186266	1
1	35	14.111893636675	1
1	37	15.087106141776	1
1	44	16.158390162083	1
1	49	17.82274134357	1
1	51	17.937730492058	2
1	52	18.998349901984	2
1	58	21.503975845188	2
1	61	21.636607700774	3
1	63	22.439284993523	3
1	64	23.34052722362	2
1	65	24.279257053261	1
1	66	25.940272312007	0
1	68	26.658571289844	0
1	70	27.621801482976	1
1	71	27.656379787363	1
1	94	35.48225469139	1
1	96	35.499317407603	2
1	100	37.10818719982	3
1	105	38.984498190002	3
1	109	40.43362189888	2
1	111	40.589298310283	2
1	113	40.723984483281	3
1	114	40.981162186417	3
1	119	42.169463614276	3
1	120	44.447622762313	3
1	121	44.867210753124	2
1	123	45.745657742522	2
1	125	46.327759597484	3
1	126	46.469723475862	3
1	131	47.577117933524	3
1	133	48.087052321488	4
1	135	48.358528750512	5
1	136	48.407828283394	5
1	137	48.759825120668	4
1	142	52.048105026547	4
1	146	52.878574955974	4
1	148	53.216857641137	4
1	149	53.695703762548	4
1	154	56.479044761823	4
1	159	57.189795866829	5
1	164	59.481233041692	6
1	175	61.173902375869	7
1	176	61.987894700165	7
1	178	62.049072403563	7
1	179	64.284269652832	7
1	181	65.167613856571	7
1	185	65.661183624841	8
1	190	67.484722337763	8
1	192	67.726796201524	8
1	194	69.220705957272	9
1	195	69.76396404216	9
1	197	69.794517319907	9
1	199	69.964153235369	10
1	200	70.471392475881	10
1	201	70.890401503996	9
1	208	75.271322465083	8
1	209	75.309381657625	7
1	211	75.434280358867	7
1	212	75.469639537149	7
1	220	77.563073804263	7
1	224	78.712571470309	7
1	225	79.174389655369	6
1	227	79.241735240117	6
1	228	80.218377772578	6
1	229	80.355313642415	5
1	230	81.030471336963	4
1	232	81.520071570763	4
1	234	81.751629230699	5
1	236	81.841133195799	6
1	237	82.657661761422	6
1	245	85.995893580143	6
1	249	87.776684900503	6
1	250	87.800628757853	5
1	251	88.543365154079	4
1	253	89.4353502618	4
1	258	89.98212652504	5
1	269	92.636567201404	6
1	280	94.760698834457	7
1	292	98.432241892809	8
1	296	99.810833052313	9
1	298	100.054206734101	10
1	300	100.865091502525	11
1	301	101.702655523037	11
1	306	106.824492824197	11
1	307	107.182722559051	11
1	311	109.622769408224	11
1	320	113.670726776261	12
1	321	113.70122687841	12
1	323	114.095050452704	12
1	324	114.551802168937	12
1	325	114.648919614067	11
1	329	115.232903474476	10
1	331	115.266053302909	10
1	332	115.316324875577	10
1	333	115.499215138793	9
1	340	117.884678733923	8
1	344	119.3818502638	7
1	345	120.610956132593	6
1	349	122.022782096292	6
1	351	122.486869401288	7
1	356	123.034164005021	8
1	358	124.546380044981	8
1	360	124.594733646059	8
1	366	125.885310561019	9
1	368	126.083004853914	10
1	370	126.50869897471	11
1	374	127.41037273913	12
1	376	128.826959913953	13
1	378	129.915567644365	14
1	379	130.008507323402	14
1	381	130.308608081895	14
1	388	131.859996652981	14
1	389	132.540141827588	13
1	390	133.013045629599	12
1	403	137.932613154427	11
1	405	138.591760247958	11
1	410	141.102076469225	12
1	411	142.296253132979	12
1	412	142.491616050762	11
1	414	142.560274310187	11
1	419	144.013160401384	12
1	420	144.042353746962	12
1	421	144.609959306688	11
1	425	145.460618669164	10
1	426	146.646559761749	9
1	428	147.258343740975	9
1	429	147.715222926187	9
1	431	148.033706091515	9
1	435	150.169361793867	9
1	439	153.136370053277	8
1	440	156.54612268527	7
1	442	156.694329160604	7
1	449	160.93592428354	7
1	453	163.381553801712	6
1	463	165.714301503478	6
1	466	166.750284716166	7
1	467	170.323263357436	7
1	474	172.788730980056	6
1	478	173.457109028298	6
1	486	175.464442394783	7
1	488	175.94258277037	7
1	489	177.172936410253	6
1	490	177.189313875571	5
1	491	177.371692067923	4
1	495	178.721702515363	3
1	496	179.032536394353	2
1	497	179.080053532196	1
1	498	179.359577145834	0
1	500	181.803868291832	0
1	504	182.469394336446	1
1	509	183.788159500441	2
1	511	184.312614228184	2
1	515	185.817280204085	1
1	517	187.135325827878	1
1	518	187.259829677722	1
1	520	187.487692715055	1
1	522	187.68608915832	2
1	524	188.814211784542	3
1	526	189.382923307984	4
1	527	189.585619169498	4
1	529	190.036705985827	4
1	530	190.475771630132	4
1	532	191.098114626957	4
1	534	191.100093656225	5
1	536	193.777903991917	6
1	543	195.778428180135	6
1	545	196.430507749718	6
1	546	197.169908846351	6
1	548	197.633145817973	6
1	550	198.589610904438	7
1	551	200.230933084633	7
1	552	200.654949428983	6
1	553	200.826916717481	5
1	554	201.130453747983	4
1	555	203.332191363907	3
1	557	204.110341413377	3
1	562	207.258467665457	4
1	567	209.248597028719	5
1	568	209.277951945633	5
1	573	210.092995076262	5
1	574	210.253582726704	5
1	575	213.232503334557	4
1	576	213.240074835449	3
1	577	213.63625926002	2
1	579	213.643453210575	2
1	587	214.770344713898	3
1	591	216.030951405929	3
1	592	216.702991314887	2
1	597	218.562575642529	2
1	598	219.044824776608	2
1	599	219.297071641239	1
1	601	219.389850839146	1
1	602	219.546752133301	1
1	603	219.789392962642	0
1	605	221.965785924722	0
1	612	225.31293552962	0
1	614	226.175279885219	0
1	622	229.584682459067	1
1	627	232.057370520808	2
1	629	232.149763424669	3
1	630	233.098663432045	3
1	632	234.301705911341	3
1	634	234.464297772172	4
1	636	235.55361298644	5
1	637	237.341674440051	5
1	638	237.949412198325	4
1	640	237.988749627101	4
1	642	238.412542223421	5
1	643	239.238827807958	5
1	644	239.25941983302	4
1	646	240.577079036675	4
1	648	240.855711922545	5
1	652	244.885463625497	5
1	654	245.333717105843	5
1	656	246.697941619118	6
1	658	247.793586147704	7
1	660	248.682531856891	8
1	661	249.180598665106	8
1	666	250.267062895017	8
1	668	250.536180476818	9
1	676	252.903790084008	10
1	677	255.271147022037	10
1	678	255.291124653279	9
1	680	256.586752173799	9
1	681	256.811726747937	9
1	682	257.65929509545	8
1	684	258.722061041042	8
1	686	260.402997539655	9
1	690	262.235039719792	9
1	692	262.492156026608	9
1	693	262.575564437165	9
1	694	262.82262720024	8
1	695	262.838481191969	7
1	696	263.329313534523	6
1	697	263.449469412348	5
1	698	263.911276474863	4
1	700	264.120017232564	4
1	701	264.269338697163	4
1	702	264.390077785292	3
1	703	265.026260246919	2
1	705	265.104660449471	2
1	709	267.293664414478	2
1	711	267.565441267878	2
1	712	269.176513156002	2
1	713	269.432802666661	1
1	718	271.132205090919	1
1	723	271.791911417062	2
1	724	272.018730650213	2
1	737	276.555853161886	2
1	746	279.481877535724	3
1	748	279.738920047762	4
1	749	280.938915429627	4
1	751	282.11433640582	4
1	753	282.664809917004	5
1	755	283.140364516529	6
1	757	284.028585909463	7
1	759	284.631587636105	8
1	760	285.039249657363	8
1	762	285.477841581695	8
1	764	286.252434386932	9
1	765	286.58598961665	9
1	766	289.65004741904	8
1	767	290.182294373611	7
1	769	290.33708376761	7
1	770	290.588749454352	7
1	771	290.801504279185	6
1	775	292.595053438271	6
1	777	293.135945263785	6
1	778	293.433685464161	5
1	779	293.891977197359	4
1	781	294.128221878579	4
1	783	295.926176176338	5
1	784	296.573983891356	5
1	801	301.831269258317	5
1	811	304.131618910768	6
1	813	304.426981556547	7
1	815	305.393792587803	7
1	824	308.783421293445	7
1	826	309.138815031784	8
1	829	310.605038809194	9
1	831	312.264669654661	9
1	832	313.169640512689	8
1	833	313.42114220976	7
1	837	316.975858470869	7
1	845	318.805840608626	8
1	847	321.868263204286	8
1	852	323.026577952271	8
1	856	324.940810018436	8
1	857	325.103795933001	7
1	858	325.416645843824	6
1	860	325.905777286779	6
1	862	326.454657195359	7
1	863	327.324158211398	7
1	864	327.657463816499	6
1	866	331.295255091899	6
1	867	333.912998595439	6
1	869	334.243159641451	6
1	870	334.421507224148	6
1	871	334.825304423311	5
1	872	335.813407433404	4
1	873	336.001357232054	3
1	875	337.106285701071	3
1	877	337.622840408924	4
1	878	341.457761676238	4
1	880	341.603590605501	4
1	887	343.839668389719	5
1	896	344.757789260243	6
1	898	345.682403445243	7
1	906	347.052048671458	8
1	907	348.622390817685	8
1	909	350.370000354899	8
1	910	350.45917895045	8
1	917	353.931942017494	7
1	933	359.489689525005	7
1	935	360.346710987046	7
1	939	362.296585850326	6
1	940	362.770111753421	5
1	942	364.633815586342	5
1	944	366.273268562454	6
1	945	366.340638982009	6
1	946	367.438211229454	5
1	948	368.636178491112	5
1	950	369.064352466156	6
1	951	369.950680883746	6
1	952	370.126022361277	5
1	953	370.658924815899	4
1	955	370.861572911702	4
1	957	370.915409467603	5
1	958	371.124876499375	5
1	959	373.139451296076	4
1	960	373.448118162631	3
1	961	374.92847617709	2
1	970	377.272624020852	2
1	979	377.916848695804	3
1	983	378.470917516948	4
1	985	378.665857204382	5
1	989	379.164902485236	6
1	994	379.55636794687	7
1	999	382.720259342916	8
1	1003	383.883157041416	9
1	1005	384.891889629502	9
1	1006	385.618292974165	8
1	1008	386.683273417034	8
1	1010	386.736649170304	9
1	1011	388.267363578938	9
1	1012	388.268024040524	8
1	1014	388.46962741248	8
1	1016	389.81328004471	9
1	1017	389.981649647331	9
1	1025	391.093697856633	9
1	1026	391.828581649207	9
1	1027	393.050921516658	8
1	1029	394.07423093683	8
1	1031	394.202965402935	9
1	1039	397.385970901389	10
1	1040	398.372635954105	10
1	1041	398.736914018648	9
1	1043	399.741404869818	9
1	1044	400.213651684604	9
1	1052	401.875117088695	9
1	1059	404.324232288778	9
1	1061	404.32486362971	9
1	1066	406.817626459014	10
1	1067	407.444893396379	10
1	1071	409.370391763311	10
1	1074	410.298968055112	11
1	1085	412.802648070671	12
1	1090	414.739152483758	13
1	1091	415.735038710105	13
1	1092	416.130565655182	12
1	1093	417.771116955681	11
1	1095	417.780922908907	11
1	1097	417.781763511958	12
1	1099	417.964614888113	13
1	1101	418.014701199309	14
1	1103	419.330897802062	15
1	1105	421.212535223826	16
1	1109	422.511196717457	16
1	1110	422.548101613573	15
1	1111	422.686170473314	14
1	1112	422.762858330969	13
1	1113	423.724674413482	12
1	1115	423.782144432411	12
1	1116	423.785967789344	12
1	1120	424.427228104985	11
1	1127	426.675464437074	10
1	1132	427.858924883434	10
1	1134	429.115303805755	11
1	1135	429.601819323064	11
1	1136	429.856004285952	10
1	1141	430.019988606802	10
1	1142	432.460922000413	10
1	1147	432.86327938721	10
1	1151	435.230095229111	10
1	1152	435.580466752539	9
1	1154	436.086401733594	9
1	1155	436.395212172629	9
1	1160	437.587981032665	9
1	1166	438.516700374422	10
1	1169	439.205674899263	11
1	1177	440.794165570073	12
1	1179	442.038023823951	12
1	1180	442.66375197678	11
1	1182	443.449707687992	11
1	1183	443.86980299044	11
1	1185	445.030441695417	11
1	1187	445.713165307908	12
1	1189	445.735162428007	13
1	1191	445.949473012693	14
1	1192	446.308651005482	14
1	1194	446.490949175721	14
1	1195	446.970988571788	14
1	1196	447.589795415616	13
1	1198	448.309875381792	13
1	1199	450.730570697186	13
1	1200	451.684180324973	12
1	1201	451.863719369408	11
1	1202	452.828161072097	10
1	1203	453.113366320915	9
1	1205	453.331862102501	9
1	1207	453.350356399359	10
1	1208	453.752930190559	10
1	1209	453.982647960014	9
1	1213	455.571503979256	8
1	1221	457.449209221693	8
1	1227	458.298582183325	9
1	1229	458.85581633228	10
1	1235	459.391774471292	11
1	1238	459.91081785528	12
1	1249	463.592960229134	13
1	1250	466.304636927273	13
1	1252	468.57333276466	13
1	1253	468.718460979092	13
1	1254	468.927245542195	12
1	1255	469.213558804969	11
1	1262	472.664618289802	10
1	1266	473.617947700698	9
1	1267	473.685137685355	8
1	1268	474.036333827554	7
1	1270	474.401750909212	7
1	1272	474.474947006613	8
1	1283	478.158382814349	9
1	1287	480.093421400078	9
1	1289	480.360764404504	9
1	1291	480.621486088368	10
1	1293	481.353826477012	11
1	1295	481.367685621506	12
1	1296	482.298603283215	12
1	1298	483.770533254572	12
1	1302	484.655570371019	12
1	1306	486.067404124194	11
1	1308	487.172784860784	11
1	1310	488.777445910439	12
1	1311	489.807091189697	12
1	1322	492.880968860538	12
1	1323	493.22255245235	12
1	1324	493.26324212585	11
1	1325	494.019218822462	10
1	1326	494.555517411023	9
1	1328	494.576120348903	9
1	1329	495.525443330865	9
1	1330	495.679190720562	8
1	1331	496.237528661747	7
1	1332	497.279752577931	6
1	1334	497.472060528811	6
1	1338	499.997641060114	6
1	1344	501.358899072604	6
1	1347	502.069085463473	6
1	1348	502.073702468113	5
1	1359	505.95480554639	5
1	1361	506.332979635441	6
1	1363	506.337742307425	7
1	1364	507.265833822721	7
1	1366	508.19052704647	7
1	1370	509.98417844531	7
1	1371	510.100701131092	6
1	1372	511.187145016101	5
1	1376	511.42631893645	4
1	1378	511.860261776553	4
1	1385	513.199841398229	5
1	1387	513.516235921751	5
1	1391	514.703686050035	4
1	1393	514.775248986355	4
1	1400	515.648638781763	5
1	1403	517.041206304116	6
1	1411	520.789519470331	7
1	1418	522.973518332784	8
1	1420	523.569942006062	8
1	1421	524.286468475812	7
1	1426	524.84757819727	7
1	1427	526.600700554881	7
1	1428	526.998164700543	6
1	1429	527.022421582687	5
1	1430	527.509827776808	4
1	1431	529.054473211784	3
1	1432	529.145695278377	2
1	1434	531.098150455053	2
1	1436	531.664472637072	3
1	1438	533.08872321664	4
1	1439	534.589127707784	4
1	1450	536.931334271121	4
1	1452	536.941166515951	5
1	1454	538.01554971803	6
1	1455	538.896393489992	6
1	1456	539.81588795229	5
1	1458	540.457134218764	5
1	1459	540.547009742744	5
1	1461	540.731526208545	5
1	1462	540.980293019768	5
1	1464	541.696635987695	5
1	1469	543.867672017756	6
1	1471	544.343230333699	7
1	1475	545.549684677051	8
1	1479	546.050435432563	9
1	1481	546.681677287509	10
1	1483	546.872939547319	11
1	1490	548.76258026672	12
1	1491	549.26835953039	12
1	1496	550.097943794858	12
1	1498	550.632788256614	13
1	1500	551.598438612246	14
1	1505	552.355759310845	15
1	1507	552.369885548383	16
1	1511	554.024376660316	17
1	1514	556.224751233835	18
1	1516	556.225909263525	19
1	1517	556.613835565052	19
1	1519	556.679496013501	19
1	1521	557.665833821544	20
1	1534	560.989316007282	20
1	1535	560.993479436909	19
1	1536	561.103985015406	18
1	1537	562.017540782301	17
1	1541	563.135248330445	16
1	1548	565.220554008318	15
1	1550	567.579921755908	15
1	1551	568.373745935975	15
1	1552	569.179131672444	14
1	1557	571.432152872986	14
1	1559	571.660060252605	15
1	1560	572.836264705931	15
1	1561	573.177576796503	14
1	1565	574.304401116469	13
1	1566	574.366260408316	12
1	1568	574.448808573417	12
1	1570	574.599050708476	13
1	1571	576.235084661052	13
1	1572	576.886750782891	12
1	1574	578.423720094124	12
1	1585	582.313079682525	13
1	1590	583.31325942945	14
1	1591	583.481854017465	14
1	1593	583.707653868366	14
1	1600	584.782474055772	15
1	1602	585.718166153213	15
1	1604	585.723227468892	15
1	1605	587.465035712808	15
1	1606	588.483069588632	14
1	1611	589.564905021857	14
1	1615	590.963490349591	14
1	1620	592.747256003396	14
1	1621	593.589055541139	14
1	1623	594.848235010993	14
1	1625	595.03213630554	15
1	1627	595.863002861545	16
1	1629	596.628809091357	17
1	1630	596.760954999298	17
1	1632	597.511658230244	17
1	1633	599.43786438067	17
1	1634	599.486587653323	16
1	1635	599.66988935184	15
1	1637	600.295364139859	15
1	1638	601.543573547015	15
1	1639	601.79054459135	14
1	1641	604.079765353008	14
1	1642	604.809573734614	14
1	1644	604.853567463218	14
1	1645	605.329151225608	14
1	1646	605.362931791062	13
1	1647	607.400218506345	12
1	1649	607.887323109968	12
1	1657	610.660565610153	13
1	1658	610.731823360291	13
1	1659	611.536694213053	12
1	1664	613.165918985172	12
1	1665	613.18212996238	12
1	1667	613.914804439537	12
1	1668	614.047735634188	12
1	1669	614.651458203491	11
1	1670	614.771099120886	10
1	1672	615.240628434327	10
1	1676	615.951193034627	10
1	1678	616.082636003204	10
1	1679	616.42178508633	10
1	1680	616.517144740794	9
1	1682	616.532868175401	9
1	1683	616.688286031441	9
1	1684	620.273369545458	8
1	1685	620.279186417094	7
1	1690	622.008804957496	7
1	1695	623.590995713696	8
1	1697	624.154651063183	9
1	1701	624.742850666611	9
1	1702	625.699942098549	8
1	1703	626.112324073037	7
1	1704	627.036499621688	6
1	1705	628.046928682528	5
1	1710	628.86931619984	5
1	1711	629.227758515874	5
1	1712	630.661497856964	4
1	1714	630.911181161071	4
1	1718	631.614110408462	4
1	1731	634.406880877411	3
1	1741	636.220897142534	2
1	1746	637.399431258936	2
1	1747	637.734485624836	2
1	1748	638.462059626172	1
1	1750	638.791610776082	1
1	1754	640.305251052633	1
1	1756	640.878358087741	1
1	1758	641.258385416566	2
1	1759	641.328343510216	2
1	1760	642.794512152546	1
1	1761	643.929533666054	0
1	1763	643.986480076494	0
1	1770	647.604086072253	1
1	1776	648.84607918241	2
1	1780	650.694309466272	2
1	1781	650.988299824307	1
1	1782	653.73852712776	0
1	1791	655.485743523314	0
1	1795	657.0739163539	1
1	1796	657.384842772929	1
1	1797	659.420344526607	0
1	1799	659.45850287823	0
1	1800	659.636674347534	0
1	1805	661.149101967186	0
1	1806	661.945157942147	0
1	1811	663.867760179334	0
1	1815	665.191397089424	0
1	1822	668.684819821482	0
1	1824	668.752229160335	1
1	1827	670.28795144891	2
1	1831	672.636720199322	2
1	1832	674.359502275711	1
1	1834	675.907145360048	1
1	1838	677.241217482667	1
1	1842	677.739439998641	1
1	1847	680.312746075093	2
1	1849	680.457747945135	3
1	1852	681.470410668703	4
1	1854	681.644275400417	5
1	1855	681.796414065241	5
1	1857	681.823427990466	5
1	1859	681.856340747773	6
1	1861	682.312612862785	7
1	1863	682.545482594039	8
1	1864	682.869001840209	8
1	1869	684.09939415255	8
1	1870	684.278804015001	8
1	1877	686.607191666119	7
1	1878	687.32914414715	6
1	1882	687.983550785177	6
1	1884	689.58246006291	7
1	1892	691.588879803288	8
1	1894	691.925913527876	8
1	1901	692.65582083669	8
1	1909	694.657181605939	8
1	1911	694.958015100206	8
1	1916	696.86837533952	9
1	1917	696.880053929707	9
1	1918	697.115780967284	8
1	1920	698.055556536629	8
1	1921	698.298824664715	8
1	1932	700.572716001261	8
1	1934	701.479401472003	9
1	1935	701.4903132653	9
1	1942	704.416921837597	9
1	1944	704.531505432589	10
1	1949	706.938254876509	10
1	1950	707.013761408899	9
1	1952	709.567030647872	9
1	1953	709.639593417387	9
1	1959	710.014778050018	9
1	1971	712.99925237567	10
1	1973	713.222714863007	10
1	1974	713.34848998728	9
1	1975	713.416644711418	8
1	1976	714.179287662539	7
1	1977	714.254674580413	6
1	1978	714.56930322331	5
1	1993	721.453718092322	5
1	1999	722.356397614004	5
1	2003	723.220860950827	4
1	2004	723.955814269235	3
1	2006	724.303238128866	3
1	2007	724.912049250026	3
1	2008	726.440442154786	2
1	2010	727.00674233668	2
1	2017	729.594843243098	2
1	2021	731.797601115664	1
1	2022	731.898257618734	0
1	2030	734.005340113799	0
1	2032	734.35075852103	1
1	2033	734.572483205496	1
1	2034	736.289430724358	0
1	2036	737.41534474175	0
1	2038	737.896210269064	1
1	2039	738.093555175698	1
1	2047	739.837089147093	1
1	2048	740.688297629565	1
1	2049	741.797887572304	0
1	2051	742.357188415667	0
1	2052	742.423777048083	0
1	2057	748.195401795215	0
1	2061	753.036616905593	0
1	2066	753.828839595295	0
1	2074	757.567956444816	1
1	2076	758.456203249125	2
1	2077	759.515737970703	2
1	2079	759.709029573776	2
1	2081	759.939997386232	3
1	2082	761.409624493142	3
1	2084	761.595749760154	3
1	2085	763.731375906372	3
1	2086	763.798252688081	2
1	2090	764.744580180554	2
1	2093	765.204302817662	3
1	2095	766.053989839091	4
1	2096	767.156911016432	4
1	2101	770.852263130912	4
1	2102	771.295882654666	4
1	2106	771.995512798959	3
1	2131	779.738277866684	2
1	2139	781.026407862167	2
1	2144	783.30075630895	3
1	2145	784.768213470702	3
1	2146	785.166969884714	2
1	2154	788.789997367888	2
1	2159	788.970906431596	3
1	2160	789.389131687193	3
1	2162	789.67498583541	3
1	2163	791.079846691464	3
1	2164	791.645363071735	2
1	2165	792.30867066528	1
1	2167	793.363032487081	1
1	2168	793.401212340063	1
1	2169	793.534995511216	0
1	2174	797.298305380813	0
1	2176	797.456685173292	1
1	2181	801.469739837969	2
1	2182	801.986566787444	2
1	2184	802.669386878267	2
1	2189	804.138659128279	3
1	2191	804.860072688795	4
1	2198	807.285274806219	5
1	2200	808.318129684387	5
1	2207	809.550447277589	4
1	2209	810.217296246747	4
1	2210	811.300440338272	4
1	2212	812.022145099935	4
1	2218	813.0947489894	5
1	2221	813.690021944731	5
1	2223	813.855334742183	5
1	2225	814.198228491066	6
1	2226	814.797562817722	6
1	2227	815.834905437545	5
1	2234	817.927340853047	4
1	2236	818.507444017963	4
1	2241	820.337327877749	5
1	2251	824.613947490779	5
1	2253	825.017894112556	5
1	2254	826.002650511558	5
1	2255	826.876345589993	4
1	2261	827.741586715714	4
1	2264	828.08691121278	5
1	2266	829.651652746374	5
1	2268	830.229962872852	5
1	2270	830.409746030369	6
1	2278	831.893077164738	7
1	2280	832.430062962091	8
1	2281	833.646535059147	8
1	2282	835.25179877669	7
1	2283	836.183639458227	6
1	2284	836.928625746334	5
1	2285	837.342371980312	4
1	2287	838.607377872565	4
1	2289	839.317562307326	5
1	2290	839.320281590212	5
1	2294	840.443047742537	4
1	2299	840.890680637329	4
1	2300	841.103617833209	4
1	2302	842.302132639632	4
1	2303	843.003527671159	4
1	2305	844.45621445716	4
1	2309	844.947062868786	5
1	2311	845.54950255235	6
1	2313	847.706356266152	6
1	2314	848.958058965829	5
1	2315	850.224294828988	4
1	2316	850.687010514717	3
1	2320	851.558927405961	2
1	2321	852.024498372042	1
1	2322	852.969215874778	0
1	2324	853.722188970022	0
1	2328	854.594474081531	1
1	2331	856.174642507573	2
1	2333	856.934047863842	3
1	2334	857.429599433072	3
1	2335	858.144560722213	2
1	2336	858.184826753046	1
1	2337	858.355666399599	0
1	2339	859.743726242283	0
1	2343	863.379518782795	1
1	2345	864.940300771365	1
1	2346	864.953863970547	0
1	2348	865.285059023604	0
1	2349	866.224679637422	0
1	2351	868.069971942993	0
1	2353	868.228261780613	1
1	2357	869.166764833494	2
1	2359	869.243252129743	3
1	2362	869.829418235705	4
1	2367	871.000060211406	5
1	2368	871.010260168483	5
1	2372	872.497225544108	4
1	2373	873.962681678354	3
1	2375	875.120298965789	3
1	2376	875.329129347418	3
1	2377	875.574876734321	2
1	2382	878.308825333962	2
1	2383	878.65701599306	2
1	2385	878.680603027725	2
1	2386	879.349950896095	2
1	2388	879.672822062602	2
1	2390	880.118237427646	3
1	2391	883.826165332439	3
1	2393	884.363380791931	3
1	2394	884.422639192404	3
1	2396	884.487973889595	3
1	2400	885.432918850473	3
1	2401	885.591505849563	2
1	2403	885.635664733818	2
1	2405	885.870141344782	3
1	2406	885.948087074334	3
1	2420	889.104372034766	3
1	2424	891.883697212389	4
1	2432	895.439901607398	4
1	2433	895.638508773299	3
1	2435	897.980891221998	3
1	2440	900.261412734582	4
1	2444	902.195843301497	5
1	2446	903.258787866265	5
1	2448	904.301153968774	5
1	2452	905.975019970265	5
1	2454	906.450201884155	5
1	2455	906.930697743021	5
1	2456	907.191667784631	4
1	2458	907.238639225909	4
1	2459	907.448973986857	4
1	2460	908.344036252362	3
1	2465	909.118672262141	3
1	2469	911.423657116522	3
1	2474	914.284580660678	3
1	2478	916.542066568412	3
1	2480	917.980860814174	3
1	2482	918.326976723418	4
1	2483	920.833619478935	4
1	2485	921.191273185931	4
1	2489	921.261881622596	5
1	2491	921.377100170979	6
1	2494	921.932345871621	7
1	2496	922.28058941738	8
1	2497	922.380650736268	8
1	2501	926.481218281213	7
1	2502	926.736026977157	6
1	2504	926.854109423357	6
1	2506	928.434799351959	7
1	2508	928.989281410805	8
1	2509	929.642504404736	8
1	2510	929.909177974433	7
1	2515	931.353942208566	7
1	2516	931.551598733469	7
1	2520	932.205058304827	6
1	2522	933.177195880964	6
1	2524	934.085230249584	7
1	2525	934.862539001195	7
1	2527	936.737503733651	7
1	2531	937.45698284363	8
1	2533	938.380312584023	9
1	2535	938.605456288844	9
1	2536	939.105388040932	8
1	2537	939.186578513393	7
1	2538	939.210819256867	6
1	2540	941.640845867786	6
1	2546	942.46898273746	7
1	2548	943.362569811953	8
1	2566	948.452137847948	8
1	2567	948.586284126197	7
1	2568	951.373766688998	6
1	2569	952.490796089886	5
1	2570	953.397398037061	4
1	2574	954.865490385216	3
1	2576	954.899551847142	3
1	2580	956.589495084303	3
1	2584	958.529691156926	2
1	2585	959.563567793943	1
1	2587	960.085704536834	1
1	2591	963.120668995874	1
1	2596	964.545781063347	1
1	2598	966.2049546839	2
1	2605	970.350813335863	3
1	2607	970.513570041536	4
1	2609	970.785306147731	4
1	2611	971.075118585406	4
1	2618	975.606677104105	5
1	2621	977.174281497292	6
1	2629	978.79177287822	7
1	2630	978.915863754747	7
1	2631	979.912993731167	6
1	2633	980.7026220321	6
1	2635	981.710821612377	7
1	2636	981.946552753515	7
1	2637	982.142327082158	6
1	2639	982.163178055827	6
1	2647	983.878830809548	7
1	2648	984.006644798418	7
1	2650	984.689075159811	7
1	2654	987.263407472851	7
1	2655	988.736825464343	6
1	2666	996.003080952201	6
1	2668	997.145213766021	7
1	2670	997.600949341191	8
1	2671	997.61122780724	8
1	2673	997.733305226086	8
1	2675	998.353417189866	9
1	2677	998.636575974569	10
1	2679	998.953706635566	11
1	2681	999.123373920119	12
1	2682	1000.078437616178	12
1	2683	1003.043364000618	11
1	2684	1003.604243168908	10
1	2686	1004.058750082082	10
1	2687	1004.058789225697	10
1	2691	1005.486447542822	9
1	2692	1005.586841332287	8
1	2693	1006.021556124339	7
1	2700	1007.86545443418	6
1	2702	1008.004079400143	6
1	2704	1009.577695697224	7
1	2709	1012.448046926893	8
1	2710	1012.710032169844	8
1	2712	1014.977348655063	8
1	2719	1017.241081036998	8
1	2724	1017.868357472471	8
1	2729	1020.100624472903	9
1	2739	1021.184514421825	10
1	2741	1021.876975302348	10
1	2743	1024.389918840648	10
1	2744	1025.325300189626	10
1	2745	1026.679845609704	9
1	2750	1028.703323313478	9
1	2752	1029.00675749319	10
1	2756	1030.241992813455	10
1	2760	1031.524087405432	10
1	2762	1031.595103644706	11
1	2764	1031.67070422763	12
1	2767	1033.804400482831	13
1	2769	1034.388095379532	14
1	2771	1034.757993492259	15
1	2772	1034.900872629787	15
1	2773	1035.07521696481	14
1	2775	1035.422589366677	14
1	2777	1036.38653041745	15
1	2779	1036.945784145854	16
1	2780	1037.14743836924	16
1	2781	1038.334423973065	15
1	2783	1038.782068780442	15
1	2787	1043.64890646678	15
1	2788	1043.693980827871	14
1	2796	1045.853082431315	14
1	2800	1047.364623352979	15
1	2803	1049.934183866281	16
1	2805	1050.716790612734	17
1	2806	1051.160318897203	17
1	2808	1051.962233208348	17
1	2810	1052.04593364495	18
1	2811	1052.389918560624	18
1	2821	1055.148658952774	17
1	2825	1056.541113334525	16
1	2833	1059.91407955914	16
1	2847	1065.399738067804	17
1	2849	1065.822879262293	18
1	2851	1066.277388111342	19
1	2853	1067.321170638602	20
1	2854	1067.462329297885	20
1	2856	1068.19976090875	20
1	2863	1071.829409707396	20
1	2864	1073.953241348884	19
1	2865	1076.834237509111	18
1	2867	1077.653096449376	18
1	2869	1078.112496895047	19
1	2877	1080.228433281703	20
1	2878	1080.647549127709	20
1	2879	1080.802437151254	19
1	2886	1084.696685281643	18
1	2891	1088.016976583461	18
1	2893	1089.418376704071	19
1	2895	1090.083395955053	20
1	2897	1090.347409870623	21
1	2899	1090.872110803776	22
1	2901	1091.323170114669	23
1	2903	1091.668859547677	24
1	2908	1093.160561334267	25
1	2910	1093.721086653373	26
1	2911	1094.853229256128	26
1	2912	1095.547844218079	25
1	2914	1098.476492841621	25
1	2915	1098.803496167673	25
1	2916	1099.347080539522	24
1	2918	1100.099999072172	24
1	2920	1100.909083819628	25
1	2921	1101.584921603615	25
1	2926	1102.299088946151	25
1	2930	1102.919869686112	25
1	2931	1103.098156297712	24
1	2933	1103.139552839279	24
1	2937	1104.299689174402	24
1	2939	1107.114323133686	24
1	2949	1108.843786144485	25
1	2951	1109.754506030686	25
1	2953	1109.790830413409	25
1	2954	1111.213056895251	25
1	2956	1112.149615948108	25
1	2957	1112.441628653693	25
1	2958	1113.06274985203	24
1	2959	1114.760864282417	23
1	2963	1115.019651617066	23
1	2965	1115.838076353392	23
1	2967	1118.021369073568	23
1	2971	1119.282925419209	23
1	2975	1119.992807438506	23
1	2978	1121.193500773191	24
1	2982	1123.130458666918	24
1	2983	1123.291554212899	23
1	2987	1124.779766564485	22
1	2988	1125.352081127741	21
1	2990	1126.210150613481	21
1	2991	1127.13737074545	21
1	2995	1129.766861189874	20
1	2997	1129.892646149079	20
1	2998	1130.177635206487	20
1	3000	1130.650567852637	20
1	3002	1130.956606720578	21
1	3004	1131.335942354859	22
1	3005	1131.476744679155	22
1	3010	1134.500159814442	22
1	3012	1135.41857600231	23
1	3014	1138.047026896681	24
1	3015	1139.572081945188	24
1	3016	1139.870742374569	23
1	3017	1140.756908817855	22
1	3019	1141.669919467087	22
1	3020	1141.766382363226	22
1	3022	1142.139350437445	22
1	3026	1142.918957537898	22
1	3028	1144.045409269146	22
1	3029	1144.996562103127	22
1	3030	1145.979446357669	21
1	3035	1146.691388101776	21
1	3036	1146.728011019194	21
1	3038	1148.430809735671	21
1	3040	1148.469215210718	22
1	3041	1148.944730049178	22
1	3043	1150.596597282162	22
1	3044	1151.414633552836	22
1	3048	1152.031358842161	22
1	3050	1152.113602496942	23
1	3052	1152.650809668068	23
1	3059	1154.269305571619	23
1	3061	1154.50608465236	24
1	3069	1157.014729886232	25
1	3071	1157.852047393847	26
1	3073	1158.500954082543	26
1	3074	1159.120477961151	25
1	3076	1159.674699298686	25
1	3078	1159.719977022896	26
1	3080	1159.879238805816	27
1	3084	1163.200457273206	27
1	3088	1164.603744452961	26
1	3090	1164.797202630409	26
1	3092	1165.587695414712	27
1	3094	1165.858952833018	28
1	3095	1166.410381705847	28
1	3099	1167.866027555471	28
1	3101	1169.10000995118	28
1	3103	1171.643377199473	28
1	3104	1171.903199110357	28
1	3106	1171.963790284543	28
1	3125	1177.960798127788	29
1	3135	1179.620899280831	30
1	3148	1183.030974109175	31
1	3150	1183.336753922799	32
1	3157	1186.397153891592	32
1	3158	1187.727297093738	31
1	3160	1188.422652175288	31
1	3161	1188.900831822592	31
1	3162	1189.077837214015	30
1	3170	1191.731897972813	30
1	3172	1191.772163000287	31
1	3173	1192.685423166885	31
1	3175	1192.842628727049	31
1	3179	1195.185385582946	32
1	3182	1196.010435202998	33
1	3184	1196.453013534763	34
1	3185	1197.062715953846	34
1	3187	1197.622993345466	34
1	3192	1202.141477185052	35
1	3193	1202.24772339548	35
1	3194	1202.579877152071	34
1	3195	1204.007800870362	33
1	3197	1205.735324700715	33
1	3202	1206.602682566328	34
1	3204	1207.069991456402	35
1	3205	1207.163692408067	35
1	3206	1207.804646825322	34
1	3208	1209.055753549086	34
1	3210	1209.508675610563	35
1	3211	1209.84778783644	35
1	3212	1210.110982795462	34
1	3214	1210.36117774093	34
1	3216	1210.806134144546	35
1	3226	1215.043238766903	35
1	3234	1218.337749863065	35
1	3236	1218.431169972368	36
1	3238	1218.481146435497	37
1	3248	1221.955597907816	37
1	3249	1222.532721823927	36
1	3254	1223.7417196076	36
1	3258	1226.825488508943	36
1	3259	1227.471866945904	35
1	3261	1229.096370440582	35
1	3262	1231.489412247481	35
1	3263	1231.71712430648	34
1	3264	1231.804430289573	33
1	3265	1232.166030646986	32
1	3266	1233.63417264129	31
1	3288	1240.540100078167	30
1	3293	1242.012375888696	30
1	3295	1242.585514952641	31
1	3296	1242.774649199187	31
1	3297	1244.096544243691	30
1	3298	1244.181435203258	29
1	3300	1244.198674005737	29
1	3301	1244.52620637275	29
1	3302	1246.044044859871	28
1	3303	1247.424055792751	27
1	3305	1247.503345260643	27
1	3307	1247.547515210666	28
1	3315	1250.455113134638	29
1	3317	1251.413780397266	30
1	3319	1251.415154464265	31
1	3320	1251.52204171527	31
1	3321	1252.612201379567	30
1	3323	1252.977015898827	30
1	3324	1252.977222102162	30
1	3326	1253.280135778155	30
1	3327	1254.484554278643	30
1	3328	1254.72943385368	29
1	3330	1256.052408108577	29
1	3332	1256.474935372298	30
1	3333	1258.247021487123	30
1	3334	1258.426618562062	29
1	3335	1258.512493712255	28
1	3337	1259.162047773014	28
1	3347	1261.193546361944	28
1	3349	1261.281827810215	28
1	3351	1261.782761203414	29
1	3353	1262.047517852642	30
1	3355	1262.235533926299	31
1	3356	1262.811452927136	31
1	3358	1262.945151431685	31
1	3359	1263.370456342215	31
1	3360	1264.168176070138	30
1	3361	1264.363273475408	29
1	3362	1264.675305930266	28
1	3364	1264.868222950567	28
1	3365	1265.207700789292	28
1	3367	1266.372741172586	28
1	3372	1267.294025037241	29
1	3377	1268.41788164825	30
1	3379	1271.466972756567	31
1	3388	1274.328574422189	32
1	3394	1276.244465407631	33
1	3400	1278.916870605278	34
1	3402	1279.410095790323	35
1	3406	1281.129350437415	35
1	3410	1283.018211262312	34
1	3411	1284.478288716417	33
1	3412	1288.598100547118	32
1	3414	1288.681029877907	32
1	3415	1288.841577100616	32
1	3416	1289.365576760604	31
1	3418	1289.643342205392	31
1	3419	1289.699055377896	31
1	3421	1290.327199190802	31
1	3422	1291.759432211335	31
1	3426	1294.668942897535	30
1	3431	1296.701005825752	30
1	3435	1296.994654835053	31
1	3437	1297.142565351732	32
1	3446	1300.082479620619	33
1	3454	1303.171060481549	34
1	3456	1303.265834048167	35
1	3458	1304.126721632472	36
1	3460	1304.33422024911	37
1	3464	1306.148648095446	37
1	3465	1306.254943797982	36
1	3466	1306.431267804881	35
1	3476	1309.815615583756	34
1	3478	1310.051317983213	34
1	3482	1311.6414383765	35
1	3487	1313.752379070982	35
1	3500	1318.029921675641	35
1	3502	1318.040567473295	36
1	3504	1319.391128768579	36
1	3505	1320.360603307724	35
1	3506	1321.175367846353	34
1	3512	1323.968868187481	34
1	3524	1326.773919071553	35
1	3527	1327.810119714333	36
1	3528	1328.030390713132	36
1	3529	1328.641857200274	35
1	3531	1330.229695068244	35
1	3535	1331.061297741094	36
1	3537	1331.156953702241	37
1	3539	1331.207379646269	38
1	3545	1332.559822688568	39
1	3546	1332.71675597588	39
1	3550	1333.209771244376	39
1	3553	1334.389439062733	40
1	3555	1334.961681428089	41
1	3556	1334.964342984421	41
1	3564	1335.700546072872	41
1	3565	1335.87590541152	41
1	3566	1336.107730881705	40
1	3568	1336.172765191922	40
1	3569	1336.760994376254	40
1	3571	1337.651494460058	40
1	3578	1338.833207002682	41
1	3580	1339.101381318223	41
1	3587	1343.374893460043	40
1	3588	1344.565072514666	39
1	3589	1344.617808398301	38
1	3590	1345.644397238565	37
1	3591	1348.363227155948	36
1	3593	1348.455371863591	36
1	3595	1348.951608017928	37
1	3596	1349.877364014203	37
1	3597	1350.380398502364	36
1	3599	1351.194049107117	36
1	3604	1352.402496232425	37
1	3606	1353.532674603184	38
1	3610	1353.951564202765	39
1	3612	1356.194328860993	39
1	3617	1357.756679866929	39
1	3619	1357.828653077455	40
1	3623	1358.225450304856	40
1	3624	1359.966621559927	39
1	3632	1361.962426734297	39
1	3636	1362.885801499781	40
1	3638	1363.061479266778	41
1	3643	1363.403452658654	42
1	3646	1364.410264987329	43
1	3650	1365.146972236127	44
1	3652	1365.285441317548	45
1	3655	1365.770395938593	46
1	3656	1365.82572838504	46
1	3660	1366.120835928353	45
1	3661	1366.587350583028	44
1	3662	1367.39126800274	43
1	3663	1367.558692006008	42
1	3665	1368.056991259637	42
1	3667	1368.52604006892	43
1	3671	1369.904321343798	44
1	3676	1370.80587296302	44
1	3687	1375.021982302427	44
1	3691	1375.484126104635	45
1	3693	1377.018805651691	45
1	3695	1377.740731495677	45
1	3697	1378.167488616682	46
1	3698	1378.957494002032	46
1	3699	1380.608505793725	45
1	3704	1381.866829742308	45
1	3705	1384.529702926046	45
1	3706	1385.384966852638	44
1	3708	1385.548041382336	44
1	3710	1386.327374995809	45
1	3712	1386.547477197114	46
1	3714	1386.822900890278	47
1	3721	1388.423653412404	48
1	3724	1389.815723435597	49
1	3726	1390.487467442632	50
1	3728	1390.875110628595	51
1	3729	1391.833029447189	51
1	3730	1391.965672488823	50
1	3731	1392.457947511885	49
1	3736	1395.098709525555	49
1	3737	1396.29975003019	49
1	3738	1396.964949122407	48
1	3740	1397.06968835124	48
1	3745	1398.583230529136	49
1	3746	1399.461005063492	49
1	3747	1401.486458638459	48
1	3748	1405.259671540216	47
1	3750	1405.834826813732	47
1	3752	1406.689089917349	48
1	3753	1408.139873670257	48
1	3754	1408.519912734994	47
1	3758	1409.547744807164	46
1	3759	1409.661161380366	45
1	3760	1409.92093537213	44
1	3764	1410.532834451482	43
1	3765	1410.967427890523	42
1	3766	1411.981013171483	41
1	3767	1413.118169067424	40
1	3769	1414.550270965767	40
1	3770	1415.083220417075	40
1	3771	1415.183125908268	39
1	3772	1415.239033537392	38
1	3776	1416.607785238214	37
1	3780	1417.239189003637	36
1	3787	1419.432775696765	35
1	3788	1420.242401756761	34
1	3790	1420.585985789606	34
1	3791	1421.401940392829	34
1	3792	1422.092499125625	33
1	3794	1422.48322450952	33
1	3795	1423.094130994443	33
1	3796	1423.17728353818	32
1	3797	1424.708825962199	31
1	3798	1425.250536703142	30
1	3806	1428.570876751994	30
1	3807	1432.22512855809	30
1	3811	1433.037602493636	30
1	3814	1434.779298651001	31
1	3815	1435.139401490603	31
1	3819	1437.734909967237	30
1	3821	1437.841630930093	30
1	3823	1440.723959879071	31
1	3824	1442.810101024864	31
1	3825	1442.850724492464	30
1	3832	1445.882035085192	30
1	3835	1447.418749234879	31
1	3837	1448.074361386511	32
1	3839	1448.194315516475	33
1	3843	1449.632026203114	33
1	3844	1450.131775546831	32
1	3845	1450.821315830389	31
1	3846	1451.712352631428	30
1	3853	1452.831040973019	29
1	3855	1453.113852880796	29
1	3856	1453.702176712871	29
1	3857	1453.924250945721	28
1	3858	1454.134501371675	27
1	3865	1454.666859901927	27
1	3867	1455.344677801574	27
1	3871	1456.013876161315	27
1	3873	1458.733988509749	27
1	3880	1459.592903933025	26
1	3882	1459.657478702195	26
1	3883	1459.972923983008	26
1	3885	1460.44912916923	26
1	3887	1461.047681235937	27
1	3888	1461.54743092938	27
1	3890	1461.574605523244	27
1	3891	1462.103014183205	27
1	3892	1462.767368391917	26
1	3893	1462.899351913684	25
1	3895	1462.920486179634	25
1	3899	1463.843723688144	26
1	3904	1465.827409428577	26
1	3906	1465.98653625132	26
1	3908	1467.739477853435	27
1	3912	1468.283621344962	28
1	3915	1469.102081572643	29
1	3920	1472.14818400776	30
1	3921	1472.17527775693	30
1	3922	1472.321554870793	29
1	3923	1472.375704110698	28
1	3925	1472.397356668942	28
1	3932	1474.414080702179	29
1	3935	1475.358923109766	30
1	3937	1478.09433316994	31
1	3942	1478.904251481046	32
1	3943	1480.160201124898	32
1	3945	1480.389406621857	32
1	3947	1480.986880445909	33
1	3949	1482.416911278739	34
1	3950	1483.967115764342	34
1	3952	1485.918766466928	34
1	3956	1486.728506908602	35
1	3961	1488.074844367976	35
1	3963	1489.560317575642	35
1	3971	1494.27304568446	36
1	3972	1494.701251208958	36
1	3974	1494.722842999957	36
1	3976	1495.61883667301	37
1	3977	1495.753626404934	37
1	3982	1497.018616012269	37
1	3984	1498.765180117553	38
1	3986	1501.082207057803	39
1	3987	1501.185020715675	39
1	3988	1501.444224529903	38
1	3989	1501.565927276303	37
1	3990	1502.355852122237	36
1	3992	1502.572755178241	36
1	3994	1504.243092772876	37
1	4001	1505.815610151455	37
1	4002	1506.164015207956	36
1	4006	1507.175705186891	35
1	4008	1508.106779013896	35
1	4009	1508.388783487616	35
1	4010	1508.456233285351	34
1	4011	1508.681545810883	33
1	4013	1509.209547890054	33
1	4015	1509.690601757623	34
1	4025	1517.034403524223	35
1	4032	1517.841765701126	36
1	4035	1518.614696476126	37
1	4047	1520.803286206376	38
1	4049	1521.066951894745	39
1	4051	1522.642715711281	40
1	4053	1522.810229043288	41
1	4055	1524.400578570942	42
1	4060	1525.288695083748	43
1	4068	1526.179973674027	44
1	4069	1527.372743636253	44
1	4071	1527.736808916302	44
1	4073	1527.809792686318	45
1	4078	1529.677005450729	46
1	4080	1529.69595587574	47
1	4081	1530.134622709716	47
1	4082	1531.387092511909	46
1	4083	1532.808384886713	45
1	4084	1534.459735202525	44
1	4086	1535.510912302013	44
1	4087	1535.947020117944	44
1	4089	1536.063252184444	44
1	4091	1537.380105421115	45
1	4093	1537.877348269784	46
1	4094	1538.317873879756	46
1	4095	1538.803220843508	45
1	4097	1539.081949548043	45
1	4099	1539.429295056632	46
1	4101	1539.510494892039	47
1	4106	1541.417802766113	48
1	4107	1542.287302653195	48
1	4108	1543.412764015639	47
1	4110	1543.449831731266	47
1	4119	1547.745829954653	48
1	4122	1549.821175189902	48
1	4126	1551.853266213127	47
1	4127	1553.871477924907	46
1	4131	1555.130204701815	45
1	4133	1555.57769851895	45
1	4135	1556.305639675606	46
1	4137	1556.35932598229	47
1	4138	1556.514329636141	47
1	4139	1557.684384781978	46
1	4141	1557.753792348991	46
1	4142	1558.43676857545	46
1	4147	1560.889102354274	46
1	4148	1561.308064433623	46
1	4149	1562.827908315066	45
1	4150	1563.629904433148	44
1	4152	1564.030535260227	44
1	4153	1564.209386649007	44
1	4154	1565.080109862815	43
1	4165	1567.850175294766	43
1	4167	1568.672245038317	44
1	4169	1568.750019578983	45
1	4170	1568.8115439147	45
1	4172	1569.27483528338	45
1	4173	1569.489034485479	45
1	4174	1569.889191659233	44
1	4175	1570.082082080476	43
1	4176	1570.276277386044	42
1	4178	1571.522883925361	42
1	4180	1572.261239084664	43
1	4184	1573.668989400245	44
1	4187	1574.386041703526	45
1	4189	1574.493509732563	46
1	4190	1575.606519611954	46
1	4191	1575.872977380269	45
1	4192	1577.181561388237	44
1	4205	1581.477548081292	44
1	4208	1583.409800164064	45
1	4210	1583.619918279423	46
1	4212	1584.229900054242	47
1	4213	1585.233534661189	47
1	4215	1586.201794846351	47
1	4217	1586.444433520796	48
1	4218	1586.656546502664	48
1	4219	1587.277064120778	47
1	4221	1587.739711386147	47
1	4225	1589.497720082044	47
1	4226	1590.660491699869	46
1	4228	1590.896115075725	46
1	4229	1591.634541424207	46
1	4239	1595.208014798825	45
1	4243	1595.810107871059	45
1	4251	1597.553199270432	46
1	4254	1597.94203251538	47
1	4256	1598.310130084018	48
1	4258	1598.525529478543	49
1	4260	1600.784834661748	50
1	4262	1602.273783364645	51
1	4266	1602.401986125879	52
1	4268	1603.972007669479	52
1	4275	1606.473487612988	51
1	4279	1608.346700630898	50
1	4281	1609.290248990718	50
1	4285	1610.426629498965	51
1	4291	1611.904238356281	52
1	4293	1613.149137320526	53
1	4298	1616.098469440457	54
1	4302	1616.702460994627	55
1	4307	1618.759607402645	55
1	4309	1618.868888146727	55
1	4310	1621.730903163625	55
1	4311	1622.984548817098	54
1	4315	1624.353452947558	53
1	4316	1625.064145433751	52
1	4320	1626.046373311254	52
1	4322	1626.156724523119	52
1	4326	1626.662355529504	51
1	4327	1627.873175710585	50
1	4329	1629.002759982155	50
1	4330	1629.916858067039	50
1	4332	1630.363945727016	50
1	4334	1630.399867495287	51
1	4335	1631.837892537287	51
1	4336	1634.270807230353	50
1	4338	1634.795582128551	50
1	4343	1635.282580763767	51
1	4344	1635.929997562232	51
1	4346	1637.020602161836	51
1	4348	1637.12948964569	52
1	4350	1637.430210089558	53
1	4352	1637.667157467544	54
1	4353	1637.73485191081	54
1	4357	1638.072975027202	53
1	4358	1638.3142797544	52
1	4359	1638.998983191049	51
1	4361	1640.033012855829	51
1	4362	1640.222915915049	51
1	4363	1640.935586423309	50
1	4364	1641.735300194552	49
1	4365	1643.097254907301	48
1	4367	1644.932352469239	48
1	4375	1647.160198192502	49
1	4376	1647.532807420861	49
1	4377	1648.054182842853	48
1	4378	1648.236795297618	47
1	4383	1649.850846509332	47
1	4384	1651.090327033179	47
1	4385	1653.126855282234	46
1	4387	1653.29898441663	46
1	4388	1653.402994123099	46
1	4390	1653.535222193152	46
1	4392	1654.628991999387	47
1	4393	1654.92062006337	47
1	4400	1657.916007069163	46
1	4402	1659.344006450316	46
1	4403	1660.266292902833	46
1	4404	1660.483509677086	45
1	4408	1661.972002638286	44
1	4409	1661.995119992372	43
1	4410	1662.418505793871	42
1	4411	1664.49162823302	41
1	4418	1666.675217143176	40
1	4426	1669.180135134893	40
1	4428	1670.128274236785	41
1	4429	1671.48314288646	41
1	4430	1671.61278360176	40
1	4431	1672.616149211114	39
1	4432	1674.994613441005	38
1	4433	1675.155845617952	37
1	4437	1675.904496102661	36
1	4438	1676.36854016505	35
1	4439	1676.744258487614	34
1	4441	1676.932500956887	34
1	4443	1677.047855868031	35
1	4445	1677.835950994498	36
1	4446	1678.078574358753	36
1	4447	1678.24367569907	35
1	4448	1679.679241361456	34
1	4453	1680.366124098557	34
1	4454	1681.307703534556	34
1	4455	1682.804555208029	33
1	4462	1685.364855552397	33
1	4465	1685.958742584317	34
1	4470	1688.586173719255	35
1	4471	1688.716082765701	35
1	4472	1688.814448371694	34
1	4473	1690.675870410562	33
1	4477	1692.227521044042	32
1	4478	1692.711563465472	31
1	4479	1693.559944633407	30
1	4486	1695.440508649475	30
1	4497	1700.570871016695	30
1	4499	1700.570982191769	30
1	4500	1701.293989030909	30
1	4502	1701.553820370672	30
1	4503	1701.639539651453	30
1	4508	1704.382853174247	30
1	4509	1705.2520819847	30
1	4511	1705.490503820351	30
1	4512	1705.752530525138	30
1	4517	1706.208483402632	30
1	4519	1706.389305286849	31
1	4521	1706.998256741537	32
1	4525	1708.775774818532	32
1	4529	1710.650956731924	32
1	4531	1711.275691980133	32
1	4533	1713.570304593027	32
1	4534	1713.596174859372	32
1	4538	1715.670139520252	32
1	4541	1717.326883668612	33
1	4543	1718.091003622786	34
1	4545	1718.3078647501	35
1	4549	1720.224099895748	35
1	4551	1720.231158048932	35
1	4555	1721.917921440425	35
1	4556	1722.900190795627	34
1	4558	1723.797180492427	34
1	4559	1724.061524209084	34
1	4560	1724.793381963812	33
1	4562	1724.798762741387	33
1	4563	1725.205445877293	33
1	4565	1725.395352347007	33
1	4567	1726.564383662689	34
1	4569	1727.272510875733	35
1	4571	1727.921638743817	36
1	4575	1728.8766406907	36
1	4577	1729.171537484764	36
1	4579	1729.43878056995	37
1	4580	1730.180534574986	37
1	4581	1732.256237407597	36
1	4583	1732.355999269544	36
1	4584	1733.458549505205	36
1	4585	1733.794098689982	35
1	4587	1733.858751863051	35
1	4588	1734.474997082986	35
1	4595	1737.749549641997	34
1	4606	1742.079147781939	34
1	4608	1743.277279689298	35
1	4609	1743.81731343278	35
1	4610	1744.013148753153	34
1	4611	1744.6513720439	33
1	4613	1745.771174973411	33
1	4617	1747.66141750916	33
1	4622	1748.786262340841	33
1	4623	1749.295856684223	33
1	4625	1749.333884794172	33
1	4627	1749.895737553423	34
1	4628	1750.081138319096	34
1	4630	1750.166536665335	34
1	4632	1752.198776493764	35
1	4634	1753.501255047875	36
1	4636	1754.072334443736	37
1	4637	1755.433475878453	37
1	4641	1757.867046686231	36
1	4643	1758.43963847912	36
1	4645	1758.817077961268	37
1	4646	1759.669197404214	37
1	4647	1760.179556732962	36
1	4649	1760.608653921621	36
1	4650	1760.647271100294	36
1	4652	1760.969725061474	36
1	4653	1761.809586617384	36
1	4655	1763.19513546677	36
1	4656	1763.584390505712	36
1	4657	1763.597106368933	35
1	4659	1763.857179435586	35
1	4661	1765.77095651005	36
1	4665	1768.651250346307	36
1	4666	1769.708753162355	35
1	4667	1769.860047768266	34
1	4669	1770.349238190744	34
1	4670	1770.358892616558	34
1	4671	1770.462582400477	33
1	4673	1770.830667229894	33
1	4674	1772.783506375491	33
1	4675	1773.270464714641	32
1	4676	1775.508929895753	31
1	4692	1778.55605336226	31
1	4707	1785.362196664094	32
1	4714	1786.598355197557	32
1	4716	1786.947230554997	32
1	4717	1787.056155367819	32
1	4719	1787.103438888552	32
1	4721	1787.446800864657	33
1	4726	1789.62170357902	34
1	4730	1792.06419842053	34
1	4731	1792.516850878732	33
1	4735	1793.050194663613	32
1	4739	1793.594410491632	31
1	4743	1795.69807835751	30
1	4744	1797.155693561442	29
1	4745	1797.361084187761	28
1	4747	1797.441448270029	28
1	4749	1797.946718446293	29
1	4753	1798.386821515612	30
1	4758	1799.572671981201	31
1	4761	1801.353815174203	32
1	4770	1804.996050556092	33
1	4773	1805.873572333345	33
1	4775	1807.609156147985	33
1	4780	1809.150316917171	34
1	4782	1809.353703976345	35
1	4783	1809.612471096389	35
1	4785	1809.77017665267	35
1	4786	1810.572510138225	35
1	4788	1810.793267878084	35
1	4790	1810.952681625133	36
1	4791	1811.862158085006	36
1	4792	1811.889748496649	35
1	4796	1812.949875708343	35
1	4799	1813.250024671725	36
1	4800	1813.359547352389	36
1	4801	1815.539062524772	35
1	4802	1815.634103923827	34
1	4803	1817.151363699918	33
1	4807	1817.739720281042	33
1	4809	1818.439277740848	33
1	4816	1819.70723849117	33
1	4818	1821.152646708643	33
1	4823	1822.951658239709	33
1	4824	1823.557208213406	33
1	4828	1824.615755735722	33
1	4831	1826.895972136502	34
1	4833	1827.184489771316	35
1	4834	1827.209862779057	35
1	4836	1828.929243086236	35
1	4837	1829.061278739143	35
1	4838	1829.500054755434	34
1	4840	1831.232494015502	34
1	4844	1832.1713417068	35
1	4847	1837.036450462061	36
1	4848	1837.905049496865	36
1	4849	1837.997513617184	35
1	4850	1838.122525298829	34
1	4851	1838.239024504048	33
1	4852	1839.915192485715	32
1	4859	1842.097489878647	31
1	4865	1843.494251043109	31
1	4871	1846.405845172743	32
1	4874	1846.589147668593	33
1	4875	1850.628259193061	33
1	4877	1851.534498751356	33
1	4878	1852.748970252325	33
1	4879	1853.427896137511	32
1	4883	1855.800331676631	32
1	4894	1860.123070632398	33
1	4902	1861.704488369976	33
1	4909	1863.434374654742	32
1	4910	1864.129727119542	31
1	4912	1865.085744185927	31
1	4914	1865.368920925242	32
1	4916	1865.629702210042	33
1	4918	1865.921762832749	34
1	4920	1867.563577575631	35
1	4921	1867.866751036542	35
1	4923	1868.165224910682	35
1	4924	1868.184249318451	35
1	4925	1868.749768320886	34
1	4927	1868.757494899643	34
1	4928	1869.020137324712	34
1	4929	1869.895019713355	33
1	4933	1872.038714087842	32
1	4934	1872.267507364836	31
1	4939	1875.868816762516	31
1	4946	1877.441637129138	32
1	4948	1877.755792889572	33
1	4950	1878.729576519181	33
1	4951	1878.911442065456	32
1	4959	1880.543123747958	32
1	4960	1881.757853193608	32
1	4962	1881.98724427638	32
1	4966	1883.787090492798	33
1	4968	1885.260317590523	33
1	4970	1885.888147387161	33
1	4975	1886.923192447773	34
1	4977	1887.540739147817	35
1	4979	1887.833015498714	36
1	4980	1887.899352925467	36
1	4985	1888.694748028396	36
1	4986	1889.009347329583	36
1	4988	1889.175773843245	36
1	4989	1889.29944927893	36
1	4997	1893.524772291506	36
1	4998	1893.582682564136	36
1	5000	1894.523528086467	36
1	5011	1897.929346390832	37
1	5013	1898.217552293382	38
1	5014	1898.372339246058	38
1	5015	1898.750864474656	37
1	5016	1898.797462063334	36
1	5020	1899.611992594566	35
1	5028	1901.986052636368	35
1	5030	1901.988813368428	36
1	5032	1902.366000361709	37
1	5034	1902.466717980824	38
1	5039	1904.268637798847	39
1	5040	1904.809309627931	39
1	5041	1905.107032458645	38
1	5042	1905.135504615787	37
1	5047	1907.484305629098	37
1	5048	1907.66445008537	37
1	5050	1907.720959456187	37
1	5052	1909.569467217422	38
1	5053	1910.778851631767	38
1	5054	1912.08306311874	37
1	5056	1912.195487848914	37
1	5058	1912.509153740628	38
1	5059	1912.653103049936	38
1	5061	1912.661837066966	38
1	5063	1913.108421468575	39
1	5065	1913.161415388484	40
1	5066	1914.096283697763	40
1	5067	1919.235927191983	39
1	5068	1919.509520042509	38
1	5072	1921.490529072893	37
1	5082	1925.186057193435	37
1	5085	1926.004742167291	38
1	5089	1930.039220267731	38
1	5090	1930.423275961216	37
1	5091	1932.621771932899	36
1	5092	1933.825859364097	35
1	5093	1933.832312280841	34
1	5097	1934.219079110111	34
1	5099	1934.370555617574	35
1	5104	1935.680527472358	36
1	5106	1938.63090386431	36
1	5110	1941.507035544281	36
1	5112	1941.744768526957	37
1	5117	1945.14444946874	38
1	5119	1946.040630066129	39
1	5121	1946.111686328124	40
1	5123	1946.545014419266	41
1	5125	1947.311409115306	41
1	5127	1947.399475955177	41
1	5128	1947.657841596143	41
1	5130	1949.518909831696	41
1	5134	1949.952333313335	42
1	5136	1950.407697991994	43
1	5142	1952.33349037207	44
1	5143	1953.89874562747	44
1	5147	1956.236263164932	43
1	5148	1956.331383451106	42
1	5150	1958.859677608121	42
1	5152	1960.500382969622	43
1	5156	1962.770681666257	43
1	5158	1962.95514447852	43
1	5159	1963.583310067803	43
1	5160	1963.830291219474	42
1	5161	1963.867334860836	41
1	5166	1965.949308441388	41
1	5167	1966.184595075196	41
1	5172	1966.713985303601	41
1	5173	1968.640067043006	41
1	5175	1968.835340042957	41
1	5176	1968.965196461774	41
1	5181	1969.742104625621	41
1	5182	1970.005302800864	41
1	5184	1970.13327801631	41
1	5189	1971.905790138883	42
1	5193	1972.770512341751	42
1	5197	1973.501271264349	42
1	5200	1973.814492810344	43
1	5202	1974.313932223478	44
1	5203	1975.765898622416	44
1	5205	1975.768976108987	44
1	5207	1975.772483053005	45
1	5208	1976.519369901119	45
1	5210	1976.663169593392	45
1	5212	1977.481921630966	46
1	5213	1977.852132230668	46
1	5214	1979.180893253901	45
1	5220	1980.547291321191	45
1	5222	1980.619421220903	46
1	5228	1983.367739874623	46
1	5232	1984.734156556252	45
1	5233	1985.31451228518	44
1	5235	1986.677756779846	44
1	5237	1986.827795175196	45
1	5239	1986.999986138149	46
1	5240	1987.378640517207	46
1	5241	1987.493172754202	45
1	5245	1987.755892688759	44
1	5246	1989.614010678613	43
1	5247	1989.877525811198	42
1	5249	1990.793911362422	42
1	5259	1993.356767773705	42
1	5260	1993.621738162261	41
1	5261	1993.695895131116	40
1	5263	1993.963622306269	40
1	5273	1996.212413195028	41
1	5276	1996.696002999941	42
1	5277	1997.436740060825	42
1	5278	1997.597401189942	41
1	5282	1998.878380944793	40
2	0	0	0
2	8	1.711863799491	1
2	17	3.531707335085	2
2	39	15.238560653172	3
2	46	16.918124938187	4
2	54	20.403756816037	5
[...]
10	2648	984.006644798418	6.794720017272
10	2654	987.263407472851	6.560785440751
10	2655	988.736825464343	7.026003851966
10	2671	997.61122780724	13.732396997692
10	2682	1000.078437616178	15.389362456367
10	2683	1003.043364000618	18.257153023181
10	2684	1003.604243168908	13.264968229738
10	2687	1004.058789225697	13.136420283958
10	2691	1005.486447542822	9.483366590621
10	2692	1005.586841332287	8.441627566266
10	2693	1006.021556124339	8.420606783148
10	2700	1007.86545443418	9.228878459611
10	2710	1012.710032169844	13.586658249725
10	2719	1017.241081036998	12.296031818046
10	2741	1021.876975302348	9.428928375455
10	2744	1025.325300189626	10.347951534563
10	2745	1026.679845609704	11.182498437689
10	2756	1030.241992813455	11.619747586353
10	2772	1034.900872629787	14.212328856273
10	2773	1035.07521696481	14.282837965947
10	2780	1037.14743836924	16.140946265634
10	2781	1038.334423973065	17.14990955124
10	2787	1043.64890646678	16.39699340384
10	2788	1043.693980827871	14.990657514393
10	2806	1051.160318897203	21.894675819684
10	2811	1052.389918560624	21.999949439136
10	2821	1055.148658952774	23.477954725144
10	2825	1056.541113334525	22.153017954993
10	2854	1067.462329297885	28.547853887635
10	2863	1071.829409707396	24.464786354417
10	2864	1073.953241348884	24.019057482603
10	2865	1076.834237509111	26.117446896377
10	2878	1080.647549127709	28.601615482759
10	2879	1080.802437151254	26.840180493891
10	2886	1084.696685281643	27.916989049724
10	2911	1094.853229256128	34.222378721205
10	2912	1095.547844218079	32.41511034422
10	2915	1098.803496167673	35.169098953944
10	2916	1099.347080539522	33.947342471718
10	2921	1101.584921603615	35.762042341322
10	2930	1102.919869686112	34.720108777362
10	2931	1103.098156297712	33.66444425301
10	2937	1104.299689174402	26.646592725026
10	2951	1109.754506030686	29.526072748983
10	2954	1111.213056895251	29.135602269426
10	2957	1112.441628653693	29.180536336509
10	2958	1113.06274985203	27.529226746889
10	2959	1114.760864282417	26.743887698956
10	2965	1115.838076353392	25.754680398339
10	2971	1119.282925419209	28.410814615433
10	2982	1123.130458666918	31.257057640103
10	2983	1123.291554212899	30.130992878632
10	2987	1124.779766564485	26.303273722864
10	2988	1125.352081127741	25.252082055569
10	2991	1127.13737074545	26.228286925822
10	2995	1129.766861189874	27.467772243723
10	2998	1130.177635206487	27.717603264133
10	3005	1131.476744679155	28.337191839876
10	3015	1139.572081945188	32.457758811502
10	3016	1139.870742374569	32.028636836814
10	3017	1140.756908817855	32.361932577286
10	3020	1141.766382363226	32.922596218741
10	3026	1142.918957537898	30.76934158979
10	3029	1144.996562103127	30.21543766936
10	3030	1145.979446357669	30.959794740603
10	3036	1146.728011019194	28.506175659295
10	3041	1148.944730049178	29.425481639227
10	3044	1151.414633552836	31.42182611433
10	3052	1152.650809668068	30.660971429936
10	3073	1158.500954082543	28.608307933464
10	3074	1159.120477961151	28.469910108514
10	3084	1163.200457273206	31.864514918347
10	3088	1164.603744452961	30.103584638519
10	3095	1166.410381705847	30.991805703537
10	3101	1169.10000995118	27.430090484093
10	3104	1171.903199110357	29.763848672912
10	3157	1186.397153891592	34.28355139465
10	3158	1187.727297093738	34.884593908786
10	3161	1188.900831822592	34.861439112982
10	3162	1189.077837214015	34.808531642396
10	3173	1192.685423166885	36.112227450242
10	3185	1197.062715953846	39.210668559999
10	3193	1202.24772339548	42.527746372584
10	3194	1202.579877152071	42.700638346255
10	3195	1204.007800870362	42.972561771392
10	3205	1207.163692408067	42.366489777658
10	3206	1207.804646825322	42.21695141061
10	3211	1209.84778783644	43.988835003422
10	3212	1210.110982795462	42.821970663524
10	3226	1215.043238766903	43.07944848236
10	3248	1221.955597907816	45.125701664618
10	3249	1222.532721823927	44.571923696139
10	3258	1226.825488508943	46.723076293605
10	3259	1227.471866945904	45.202267310419
10	3262	1231.489412247481	48.458438138306
10	3263	1231.71712430648	48.380370383681
10	3264	1231.804430289573	47.911745040202
10	3265	1232.166030646986	47.688753235137
10	3266	1233.63417264129	45.211520466002
10	3288	1240.540100078167	45.555519716632
10	3296	1242.774649199187	46.764213996189
10	3297	1244.096544243691	47.643530708928
10	3298	1244.181435203258	46.558441857792
10	3301	1244.52620637275	44.075546009305
10	3302	1246.044044859871	43.902567674819
10	3303	1247.424055792751	41.688731092036
10	3320	1251.52204171527	44.452050258868
10	3321	1252.612201379567	43.556447830481
10	3324	1252.977222102162	43.468546491599
10	3327	1254.484554278643	44.123376537713
10	3328	1254.72943385368	43.923299709134
10	3333	1258.247021487123	45.906768853664
10	3334	1258.426618562062	44.347730490873
10	3335	1258.512493712255	42.250616742243
10	3347	1261.193546361944	40.714974231522
10	3356	1262.811452927136	41.310271049214
10	3359	1263.370456342215	40.005449373931
10	3360	1264.168176070138	40.426456462538
10	3361	1264.363273475408	39.58015515515
10	3362	1264.675305930266	35.578935489684
10	3365	1265.207700789292	31.156914131186
10	3406	1281.129350437415	36.930676431678
10	3410	1283.018211262312	35.470696051646
10	3411	1284.478288716417	36.267306947399
10	3412	1288.598100547118	39.266869840107
10	3415	1288.841577100616	38.386463965978
10	3416	1289.365576760604	37.951796363338
10	3419	1289.699055377896	38.283900913631
10	3422	1291.759432211335	38.782416312508
10	3426	1294.668942897535	38.616534788958
10	3464	1306.148648095446	44.101130242804
10	3465	1306.254943797982	44.019409871683
10	3466	1306.431267804881	43.486116373196
10	3476	1309.815615583756	42.521590546515
10	3487	1313.752379070982	42.285406314415
10	3504	1319.391128768579	45.06255434639
10	3505	1320.360603307724	45.242242688041
10	3506	1321.175367846353	44.930902438722
10	3528	1328.030390713132	48.014116333699
10	3529	1328.641857200274	46.928563890243
10	3546	1332.71675597588	43.073413770488
10	3556	1334.964342984421	42.234195713504
10	3565	1335.87590541152	39.174899585768
10	3566	1336.107730881705	39.1237530386
10	3569	1336.760994376254	39.766339541201
10	3580	1339.101381318223	39.269697704597
10	3587	1343.374893460043	42.03414392776
10	3588	1344.565072514666	41.394012033117
10	3589	1344.617808398301	41.351974350134
10	3590	1345.644397238565	41.517675606093
10	3591	1348.363227155948	44.029006906838
10	3596	1349.877364014203	45.44691754529
10	3597	1350.380398502364	43.239464190723
10	3612	1356.194328860993	46.14301087778
10	3623	1358.225450304856	45.622780701845
10	3624	1359.966621559927	45.642987301542
10	3656	1365.82572838504	44.537261662571
10	3660	1366.120835928353	39.849467656237
10	3661	1366.587350583028	39.813431511475
10	3662	1367.39126800274	39.581148288407
10	3663	1367.558692006008	37.328996937764
10	3676	1370.80587296302	39.648919260779
10	3693	1377.018805651691	44.00116782087
10	3698	1378.957494002032	45.747722757656
10	3699	1380.608505793725	46.219066730992
10	3705	1384.529702926046	49.20352098833
10	3706	1385.384966852638	49.684420779766
10	3729	1391.833029447189	54.181534987131
10	3730	1391.965672488823	54.053353762778
10	3731	1392.457947511885	54.06001658904
10	3737	1396.29975003019	55.680516403935
10	3738	1396.964949122407	55.351005448415
10	3746	1399.461005063492	50.509397045564
10	3747	1401.486458638459	50.292409531342
10	3748	1405.259671540216	53.267275791104
10	3753	1408.139873670257	55.737377437832
10	3754	1408.519912734994	54.98723813181
10	3758	1409.547744807164	55.596180604399
10	3759	1409.661161380366	52.756724461262
10	3760	1409.92093537213	52.164255505201
10	3764	1410.532834451482	52.518458752358
10	3765	1410.967427890523	50.215975514286
10	3766	1411.981013171483	50.018586437186
10	3767	1413.118169067424	50.232367567643
10	3770	1415.083220417075	52.021741150297
10	3771	1415.183125908268	51.855569442919
10	3772	1415.239033537392	51.835580878738
10	3776	1416.607785238214	51.661732972017
10	3780	1417.239189003637	51.953747686089
10	3787	1419.432775696765	51.375784437128
10	3788	1420.242401756761	51.716361687841
10	3791	1421.401940392829	52.220243573717
10	3792	1422.092499125625	52.188177781827
10	3795	1423.094130994443	52.694421967461
10	3796	1423.17728353818	51.174633576728
10	3797	1424.708825962199	51.185550850684
10	3798	1425.250536703142	50.228554400715
10	3807	1432.22512855809	54.057639941408
10	3815	1435.139401490603	53.272571748295
10	3819	1437.734909967237	51.407534971428
10	3824	1442.810101024864	56.26262382775
10	3825	1442.850724492464	56.027823602186
10	3843	1449.632026203114	59.144558760482
10	3844	1450.131775546831	59.256664918236
10	3845	1450.821315830389	56.410847200304
10	3846	1451.712352631428	56.613643105873
10	3853	1452.831040973019	54.247810443883
10	3856	1453.702176712871	47.867349899139
10	3857	1453.924250945721	47.235161028372
10	3858	1454.134501371675	45.60078276672
10	3867	1455.344677801574	39.779904114142
10	3873	1458.733988509749	41.469677466052
10	3880	1459.592903933025	39.006918143419
10	3883	1459.972923983008	37.489699473488
10	3888	1461.54743092938	35.026773707063
10	3891	1462.103014183205	35.340032310526
10	3892	1462.767368391917	34.196491639923
10	3893	1462.899351913684	30.348915106633
10	3904	1465.827409428577	28.479859272219
10	3921	1472.17527775693	28.174606685219
10	3922	1472.321554870793	26.455111743342
10	3923	1472.375704110698	26.493669025506
10	3943	1480.160201124898	31.944518740228
10	3950	1483.967115764342	32.109872010257
10	3961	1488.074844367976	33.871179617708
10	3972	1494.701251208958	39.106496111655
10	3977	1495.753626404934	39.739750243619
10	3987	1501.185020715675	41.52754201348
10	3988	1501.444224529903	40.995095360673
10	3989	1501.565927276303	40.518246040366
10	3990	1502.355852122237	40.781246598993
10	4001	1505.815610151455	42.480774458268
10	4002	1506.164015207956	42.320291519812
10	4006	1507.175705186891	41.189168935571
10	4009	1508.388783487616	40.649305634181
10	4010	1508.456233285351	40.556242006422
10	4011	1508.681545810883	40.397924465921
10	4069	1527.372743636253	52.958662934074
10	4081	1530.134622709716	52.040289539776
10	4082	1531.387092511909	53.020431402888
10	4083	1532.808384886713	53.904133405667
10	4084	1534.459735202525	54.070328580668
10	4087	1535.947020117944	54.960139672035
10	4094	1538.317873879756	55.900962601017
10	4095	1538.803220843508	52.88445437658
10	4107	1542.287302653195	55.558795744593
10	4108	1543.412764015639	55.900047672707
10	4122	1549.821175189902	60.046648566538
10	4126	1551.853266213127	57.580220528667
10	4127	1553.871477924907	59.14863492495
10	4131	1555.130204701815	58.624441827464
10	4138	1556.514329636141	59.495713623872
10	4139	1557.684384781978	58.919204664425
10	4142	1558.43676857545	57.354561517647
10	4148	1561.308064433623	57.064971660747
10	4149	1562.827908315066	58.535035631865
10	4150	1563.629904433148	57.315692744794
10	4153	1564.209386649007	56.102607635111
10	4154	1565.080109862815	55.870561972761
10	4170	1568.8115439147	57.122842676676
10	4173	1569.489034485479	53.899112769343
10	4174	1569.889191659233	52.85478813501
10	4175	1570.082082080476	52.765215393683
10	4176	1570.276277386044	52.434511684918
10	4190	1575.606519611954	54.803233405578
10	4191	1575.872977380269	54.806025485524
10	4192	1577.181561388237	54.538845676956
10	4213	1585.233534661189	59.856094720842
10	4218	1586.656546502664	61.154044278319
10	4219	1587.277064120778	61.097090446751
10	4225	1589.497720082044	61.687927395726
10	4226	1590.660491699869	62.082688293289
10	4229	1591.634541424207	61.957535973478
10	4239	1595.208014798825	59.144762614381
10	4268	1603.972007669479	64.46151277744
10	4275	1606.473487612988	63.023655881722
10	4279	1608.346700630898	60.600870676245
10	4307	1618.759607402645	61.005815053654
10	4310	1621.730903163625	63.109054910072
10	4311	1622.984548817098	62.095446462824
10	4315	1624.353452947558	58.269547033988
10	4316	1625.064145433751	57.213970138985
10	4322	1626.156724523119	57.406704944136
10	4326	1626.662355529504	55.139471604143
10	4327	1627.873175710585	55.611936625921
10	4330	1629.916858067039	57.068337731859
10	4335	1631.837892537287	58.168903137042
10	4336	1634.270807230353	59.884765526827
10	4344	1635.929997562232	58.3176843358
10	4353	1637.73485191081	59.262159039382
10	4357	1638.072975027202	57.170195824501
10	4358	1638.3142797544	56.836731673108
10	4359	1638.998983191049	55.589183026985
10	4362	1640.222915915049	56.602997635626
10	4363	1640.935586423309	56.705686369067
10	4364	1641.735300194552	55.533505348201
10	4365	1643.097254907301	56.652821386505
10	4376	1647.532807420861	59.629860728165
10	4377	1648.054182842853	57.158067767128
10	4378	1648.236795297618	56.324314730746
10	4384	1651.090327033179	55.457343190444
10	4385	1653.126855282234	57.316747411175
10	4388	1653.402994123099	57.357801593873
10	4393	1654.92062006337	57.892101216222
10	4400	1657.916007069163	59.605876985145
10	4403	1660.266292902833	61.74076342429
10	4404	1660.483509677086	59.698675015338
10	4408	1661.972002638286	59.61808619743
10	4409	1661.995119992372	59.593133866493
10	4410	1662.418505793871	58.097780122929
10	4411	1664.49162823302	58.776432100398
10	4418	1666.675217143176	57.384968152458
10	4429	1671.48314288646	60.697433722419
10	4430	1671.61278360176	59.708545245479
10	4431	1672.616149211114	59.467011890588
10	4432	1674.994613441005	60.098811913406
10	4433	1675.155845617952	59.057376177495
10	4437	1675.904496102661	59.202035108034
10	4438	1676.36854016505	58.962095580791
10	4439	1676.744258487614	57.875370340887
10	4446	1678.078574358753	54.987127890531
10	4447	1678.24367569907	52.5708717089
10	4448	1679.679241361456	53.632868050202
10	4454	1681.307703534556	52.304943552401
10	4455	1682.804555208029	52.440609481013
10	4471	1688.716082765701	53.433502001934
10	4472	1688.814448371694	51.793846209858
10	4473	1690.675870410562	53.546380764872
10	4477	1692.227521044042	54.560363576498
10	4478	1692.711563465472	54.80205825257
10	4479	1693.559944633407	53.526931777578
10	4497	1700.570871016695	47.271886600065
10	4500	1701.293989030909	47.758766837757
10	4503	1701.639539651453	47.010547652066
10	4509	1705.2520819847	48.11097335406
10	4512	1705.752530525138	46.408524074822
10	4525	1708.775774818532	41.625772025975
10	4531	1711.275691980133	42.09555684524
10	4534	1713.596174859372	43.467900622587
10	4549	1720.224099895748	43.176244027717
10	4555	1721.917921440425	41.939473806872
10	4556	1722.900190795627	42.53406669707
10	4559	1724.061524209084	40.545183023848
10	4560	1724.793381963812	39.614834139795
10	4563	1725.205445877293	39.840590324896
10	4575	1728.8766406907	42.400365927884
10	4580	1730.180534574986	41.594360855731
10	4581	1732.256237407597	41.396426626133
10	4584	1733.458549505205	39.458432458025
10	4585	1733.794098689982	39.480791545645
10	4588	1734.474997082986	39.034488433511
10	4595	1737.749549641997	38.141714043376
10	4609	1743.81731343278	39.918849295602
10	4610	1744.013148753153	39.630295578906
10	4611	1744.6513720439	39.160868223549
10	4617	1747.66141750916	41.452934106528
10	4623	1749.295856684223	42.297599942686
10	4628	1750.081138319096	42.967195489054
10	4637	1755.433475878453	45.220247694402
10	4641	1757.867046686231	44.296742093204
10	4646	1759.669197404214	44.78074597773
10	4647	1760.179556732962	44.50941721271
10	4650	1760.647271100294	43.320387431682
10	4653	1761.809586617384	43.718582994598
10	4656	1763.584390505712	45.276525755612
10	4657	1763.597106368933	44.667317684307
10	4665	1768.651250346307	47.589631034711
10	4666	1769.708753162355	45.911572669928
10	4667	1769.860047768266	45.061285026879
10	4670	1770.358892616558	44.963540269551
10	4671	1770.462582400477	43.898198737788
10	4674	1772.783506375491	45.510995499758
10	4675	1773.270464714641	45.348825970824
10	4676	1775.508929895753	46.989832442099
10	4714	1786.598355197557	54.242355928013
10	4717	1787.056155367819	53.197403504768
10	4730	1792.06419842053	53.741015092229
10	4731	1792.516850878732	52.743358104022
10	4735	1793.050194663613	49.772914974315
10	4739	1793.594410491632	46.18246422292
10	4743	1795.69807835751	46.911816016669
10	4744	1797.155693561442	47.82180876727
10	4745	1797.361084187761	47.465346634338
10	4773	1805.873572333345	51.801237889609
10	4783	1809.612471096389	51.172832617269
10	4786	1810.572510138225	51.755432176957
10	4791	1811.862158085006	51.253504163385
10	4792	1811.889748496649	50.920023435175
10	4800	1813.359547352389	49.502367916803
10	4801	1815.539062524772	49.768106014722
10	4802	1815.634103923827	49.777691932738
10	4803	1817.151363699918	46.802125509174
10	4809	1818.439277740848	42.8043190856
10	4818	1821.152646708643	35.716552287251
10	4824	1823.557208213406	36.453769324854
10	4834	1827.209862779057	38.667007774969
10	4837	1829.061278739143	39.439575160123
10	4838	1829.500054755434	39.372289630902
10	4848	1837.905049496865	44.579661973271
10	4849	1837.997513617184	42.81322743928
10	4850	1838.122525298829	40.6810770288
10	4851	1838.239024504048	40.292306057755
10	4852	1839.915192485715	41.868834091491
10	4859	1842.097489878647	42.524817897446
10	4875	1850.628259193061	45.632208636969
10	4878	1852.748970252325	45.13981410434
10	4879	1853.427896137511	45.64839211978
10	4902	1861.704488369976	50.751806744843
10	4909	1863.434374654742	50.184349983017
10	4910	1864.129727119542	46.743146800363
10	4921	1867.866751036542	50.1270307555
10	4924	1868.184249318451	49.621096535649
10	4925	1868.749768320886	49.520478831631
10	4928	1869.020137324712	49.312898833542
10	4929	1869.895019713355	48.717234248669
10	4933	1872.038714087842	48.409293501379
10	4934	1872.267507364836	47.651751629114
10	4950	1878.729576519181	47.497082503679
10	4951	1878.911442065456	47.100050140166
10	4960	1881.757853193608	41.758486848899
10	4968	1885.260317590523	42.749096377775
10	4980	1887.899352925467	41.892833099688
10	4986	1889.009347329583	42.42019966099
10	4989	1889.29944927893	37.764950527574
10	4998	1893.582682564136	36.52365900942
10	5014	1898.372339246058	36.472553496561
10	5015	1898.750864474656	36.108786910076
10	5016	1898.797462063334	33.711717877407
10	5020	1899.611992594566	33.982290384524
10	5040	1904.809309627931	36.644084717249
10	5041	1905.107032458645	36.349537559002
10	5042	1905.135504615787	34.212675704599
10	5048	1907.66445008537	31.795633322854
10	5053	1910.778851631767	33.93775789613
10	5054	1912.08306311874	34.762134291413
10	5059	1912.653103049936	35.211465920798
10	5066	1914.096283697763	36.340490808191
10	5067	1919.235927191983	40.284310050623
10	5068	1919.509520042509	40.408185159565
10	5072	1921.490529072893	39.503284796513
10	5089	1930.039220267731	43.758397560254
10	5090	1930.423275961216	43.500083513443
10	5091	1932.621771932899	45.081032785082
10	5092	1933.825859364097	45.992843865383
10	5093	1933.832312280841	45.560376041459
10	5106	1938.63090386431	47.970555524022
10	5125	1947.311409115306	53.7866368238
10	5128	1947.657841596143	53.134313509676
10	5143	1953.89874562747	56.774891268195
10	5147	1956.236263164932	58.01871087155
10	5148	1956.331383451106	57.462727774653
10	5156	1962.770681666257	60.784629029889
10	5159	1963.583310067803	61.594496699375
10	5160	1963.830291219474	61.464290857765
10	5161	1963.867334860836	61.400616880012
10	5167	1966.184595075196	61.915957276349
10	5173	1968.640067043006	61.155761413908
10	5176	1968.965196461774	61.244237005587
10	5182	1970.005302800864	57.80981495195
10	5193	1972.770512341751	59.662090873176
10	5203	1975.765898622416	56.032965395461
10	5208	1976.519369901119	53.835740897385
10	5213	1977.852132230668	54.288050831235
10	5214	1979.180893253901	53.994836060466
10	5228	1983.367739874623	53.42728558446
10	5232	1984.734156556252	50.515077446141
10	5233	1985.31451228518	50.943956667606
10	5240	1987.378640517207	51.91317026168
10	5241	1987.493172754202	51.812645281844
10	5245	1987.755892688759	46.248857144478
10	5246	1989.614010678613	47.869242151656
10	5247	1989.877525811198	44.733076342458
10	5259	1993.356767773705	46.811753354439
10	5260	1993.621738162261	46.222262207084
10	5261	1993.695895131116	44.17698529942
10	5277	1997.436740060825	46.260884202725
10	5278	1997.597401189942	45.263910817872
10	5282	1998.878380944793	40.018703336672
11	5283	2000	0.4715
12	5283	2000	0.3955

