version 2
run Monotonicity_test_recover_rate-280-20221219-18:28:09-15881
attr configname Monotonicity_test_recover_rate
attr datetime 20221219-18:28:09
attr experiment Monotonicity_test_recover_rate
attr inifile omnetpp.ini
attr iterationvars $0=50
attr iterationvarsf 50-
attr measurement $0=50
attr network Network
attr processid 15881
attr repetition 80
attr replication #80
attr resultdir results
attr runnumber 280
attr seedset 80
param *.minion.arrival_mean 2
param *.minion.service_mean 1.5
param *.boss.arrival_mean 2.5
param *.boss.service_mean 0.5
param *.player.recover_rate_x 50
param **.minion.arrival_distribution 0
param **.minion.service_distribution 0
param **.boss.arrival_distribution 0
param **.boss.service_distribution 0

scalar Network.player boss_throughput:mean 0.4235
attr source signal_boss_throughput
scalar Network.player boss_throughput:last 0.4235
attr source signal_boss_throughput
scalar Network.player boss_defeated_stat:count 848
attr source signal_boss_defeated
scalar Network.player boss_defeated_stat:mean 423.5
attr source signal_boss_defeated
scalar Network.player boss_waiting_time_stat:mean 0.1733619580747
attr source signal_boss_waiting_time
scalar Network.player boss_response_time_stat:mean 0.68617689675577
attr source signal_boss_response_time
scalar Network.player minion_throughput:mean 0.4925
attr source signal_minion_throughput
scalar Network.player minion_throughput:last 0.4925
attr source signal_minion_throughput
scalar Network.player minion_recovered_stat:count 608
attr source signal_minion_recovered
scalar Network.player minion_recovered_stat:mean 303.5
attr source signal_minion_recovered
scalar Network.player minion_defeated_stat:count 986
attr source signal_minion_defeated
scalar Network.player minion_defeated_stat:mean 492.5
attr source signal_minion_defeated
scalar Network.player minion_waiting_time_stat:mean 26.210197605296
attr source signal_minion_waiting_time
scalar Network.player minion_response_time_stat:mean 27.013571275863
attr source signal_minion_response_time

