version 2
run Monotonicity_test_recover_rate-452-20221219-18:28:45-16750
attr configname Monotonicity_test_recover_rate
attr datetime 20221219-18:28:45
attr experiment Monotonicity_test_recover_rate
attr inifile omnetpp.ini
attr iterationvars $0=100
attr iterationvarsf 100-
attr measurement $0=100
attr network Network
attr processid 16750
attr repetition 52
attr replication #52
attr resultdir results
attr runnumber 452
attr seedset 52
param *.minion.arrival_mean 2
param *.minion.service_mean 1.5
param *.boss.arrival_mean 2.5
param *.boss.service_mean 0.5
param *.player.recover_rate_x 100
param **.minion.arrival_distribution 0
param **.minion.service_distribution 0
param **.boss.arrival_distribution 0
param **.boss.service_distribution 0

vector 0 Network.player minion_jobs_number_stat:vector ETV
attr source signal_minion_jobs_number
vector 1 Network.player minion_jobs_queue_number_stat:vector ETV
attr source signal_minion_jobs_queue_number
vector 2 Network.player minion_recovered_stat:vector ETV
attr source signal_minion_recovered
vector 3 Network.player minion_defeated_stat:vector ETV
attr source signal_minion_defeated
vector 4 Network.player boss_jobs_number_stat:vector ETV
attr source signal_boss_jobs_number
vector 5 Network.player boss_jobs_queue_number_stat:vector ETV
attr source signal_boss_jobs_queue_number
vector 6 Network.player boss_defeated_stat:vector ETV
attr source signal_boss_defeated
vector 7 Network.player minion_waiting_time_stat:vector ETV
attr source signal_minion_waiting_time
vector 8 Network.player boss_waiting_time_stat:vector ETV
attr source signal_boss_waiting_time
vector 9 Network.player boss_response_time_stat:vector ETV
attr source signal_boss_response_time
vector 10 Network.player minion_response_time_stat:vector ETV
attr source signal_minion_response_time
vector 11 Network.player minion_throughput:vector ETV
attr source signal_minion_throughput
vector 12 Network.player boss_throughput:vector ETV
attr source signal_boss_throughput
0	0	0	0
0	2	0.235105656894	1
0	10	2.674776810704	2
0	15	5.975004983858	3
0	17	6.02224901204	4
0	19	6.164139159569	5
0	27	10.067001960876	3
0	42	16.521585107989	4
0	44	16.780211556052	5
0	58	24.593093076506	5
0	60	24.716226929971	6
0	64	25.614245629023	7
0	66	26.699240563038	8
0	69	27.135417306814	9
0	76	30.704556348801	8
0	78	31.007637856267	9
0	81	31.7358189062	9
0	84	32.239606110816	9
0	87	33.718351393717	9
0	93	35.497617770208	9
0	95	35.592787193133	10
0	109	38.808984773483	8
0	111	39.559926736776	9
0	113	40.389881897361	10
0	118	41.561890552489	10
0	126	43.161054366323	11
0	129	43.884137820138	12
0	133	44.392689527025	13
0	142	52.506218577458	11
0	144	52.862878869052	12
0	146	53.021681687029	13
0	148	54.885948109298	14
0	155	56.936756003963	14
0	170	62.80459095447	7
0	179	66.657739270776	7
0	188	70.900055948538	4
0	195	74.265414172434	3
0	197	75.184162735487	4
0	208	81.132227870087	2
0	210	82.259059408305	3
0	212	83.901285128472	4
0	216	85.040548451742	3
0	221	85.694978386418	4
0	246	92.275240932066	3
0	250	93.151858470918	2
0	252	93.717546599816	3
0	256	94.205742615192	4
0	266	97.475896759252	4
0	270	100.583733903625	3
0	272	101.141720622976	4
0	276	103.165560803348	3
0	288	108.693167385936	2
0	291	109.363444638512	3
0	293	109.653268799964	4
0	295	110.802446994663	5
0	316	118.000061297203	4
0	320	119.781955856193	4
0	325	120.612743841266	4
0	332	125.341029128864	4
0	336	127.298268865537	3
0	341	128.7374023663	4
0	350	130.502875742724	3
0	357	132.957120103439	3
0	365	136.665640730338	3
0	368	137.671896682369	4
0	376	139.950272409504	5
0	385	143.079798705621	5
0	388	144.918039147298	5
0	390	145.599321616051	6
0	393	147.603504381409	6
0	407	149.961305359512	4
0	411	153.276245176366	5
0	414	155.27253901576	6
0	421	158.569027070021	5
0	435	162.171089262631	5
0	439	162.768369660861	6
0	441	163.587295708272	7
0	447	168.369199884341	6
0	454	172.877932863852	2
0	458	174.773455503021	1
0	461	175.075405200772	1
0	463	175.101010704073	2
0	465	176.082777086311	3
0	467	176.428304697893	4
0	470	177.53556169415	4
0	472	178.153760476339	5
0	475	178.17615971524	5
0	477	178.498457253425	6
0	479	179.682445602712	7
0	486	184.309243567068	8
0	490	185.116945680034	8
0	496	185.512595819987	9
0	503	188.367244078258	10
0	507	189.917677392362	9
0	509	190.430728036012	10
0	511	190.706961886004	11
0	514	195.793258269941	11
0	516	196.009121523322	12
0	518	196.402829947158	13
0	524	197.283689861129	14
0	528	200.560465027382	15
0	536	206.173628825242	10
0	542	207.40450820447	10
0	547	210.668416011408	10
0	550	211.316960351654	11
0	557	212.961052466408	12
0	565	219.606071135491	11
0	567	219.939009344091	12
0	569	220.253804706694	13
0	572	221.156026179541	13
0	578	223.512194491312	13
0	581	224.972861847437	13
0	583	225.060977952089	14
0	585	225.18470824192	15
0	593	227.3735558738	15
0	602	229.017003853853	16
0	607	230.224961489322	17
0	623	237.236394205837	13
0	627	237.810493923814	14
0	630	237.88587650627	15
0	635	238.740889942006	16
0	640	240.483992808602	17
0	642	241.403882044371	18
0	647	243.870336153747	19
0	659	251.25206545479	18
0	661	251.394581857792	19
0	669	253.14551032216	20
0	671	253.162289738182	21
0	675	253.755813223295	22
0	678	254.891011057139	23
0	681	255.417505208953	24
0	684	257.097418733327	24
0	686	257.380770728353	25
0	688	257.424809794775	26
0	691	257.919964966742	26
0	693	260.110682411539	27
0	701	263.277707942869	28
0	703	263.546242174071	29
0	707	264.158796216177	30
0	717	270.988374890082	30
0	719	271.388506723151	31
0	721	271.975118684021	32
0	724	272.596154828338	32
0	726	272.649923901762	33
0	729	274.049550394586	33
0	741	275.40373790757	34
0	745	276.717996494119	35
0	749	277.232781998395	36
0	754	278.403209408878	35
0	766	283.502517044654	35
0	768	283.992377387162	36
0	780	291.421337735754	36
0	791	295.31007064694	34
0	796	298.77646683904	34
0	805	302.83874974378	35
0	808	303.775056539235	35
0	813	307.200248291093	35
0	820	314.31140499261	35
0	838	318.873807021544	31
0	840	319.004872672824	32
0	842	319.268293391299	33
0	850	321.517860914763	34
0	858	326.393249408641	33
0	863	327.334583014393	34
0	865	328.515386917669	35
0	880	332.730582270465	35
0	889	334.536610547983	35
0	892	335.041078685243	36
0	896	335.713853930829	37
0	898	336.430088315345	38
0	903	337.061445396285	39
0	917	340.800412205029	39
0	920	342.267952591251	40
0	924	344.207631695708	39
0	926	344.835577806102	40
0	939	347.198164669922	38
0	947	348.876608710677	39
0	949	349.828329949859	40
0	951	351.176853443221	41
0	956	354.430872767349	40
0	962	357.456016785832	40
0	965	358.463646005545	40
0	967	358.82275721506	41
0	969	359.683812379015	42
0	974	362.220216296992	43
0	980	362.983511498503	42
0	982	363.145580365381	43
0	989	365.304185613656	43
0	998	366.785624512735	43
0	1004	368.677220778833	43
0	1008	370.43431992562	42
0	1013	373.739757614606	40
0	1015	374.109762378614	41
0	1018	374.896758928999	41
0	1027	375.824529427279	42
0	1030	376.394825299737	43
0	1038	378.685886794782	44
0	1045	382.711381236585	41
0	1048	383.250741370308	41
0	1060	386.847851533688	42
0	1069	391.061449840234	43
0	1071	391.118174960192	44
0	1083	393.558213948987	44
0	1085	394.133937429798	45
0	1088	395.970474725412	46
0	1092	398.574498390462	47
0	1094	402.214514736007	48
0	1100	403.538483976573	49
0	1114	412.646990168248	44
0	1118	413.655261327845	45
0	1121	414.421882254414	46
0	1123	414.475441746819	47
0	1125	414.477731072131	48
0	1128	415.886449976908	48
0	1130	416.589703328104	49
0	1134	417.867709966175	48
0	1139	420.249924697812	46
0	1142	421.630286410534	46
0	1146	422.396184658989	47
0	1148	423.031452764613	48
0	1151	424.469925458478	49
0	1153	425.334316532581	50
0	1157	426.345505325324	51
0	1160	426.832923255876	52
0	1162	427.343926963791	53
0	1174	431.519386520934	52
0	1185	433.566283700591	53
0	1197	436.928018561021	51
0	1213	441.928363734305	50
0	1221	447.20775933121	50
0	1225	448.162267188172	50
0	1227	448.5383767447	51
0	1233	450.72056133549	50
0	1242	451.60917938191	48
0	1247	453.360401514758	49
0	1249	453.625069388277	50
0	1254	454.547674106948	50
0	1260	458.024101284363	51
0	1267	460.983173471146	50
0	1277	462.654276228731	49
0	1285	465.063048814473	49
0	1288	466.032720304342	50
0	1292	467.787306071989	49
0	1313	476.133120987835	49
0	1316	476.93082560366	49
0	1321	480.493565363603	47
0	1324	482.257810035424	47
0	1326	483.396865601637	48
0	1345	488.445360084735	47
0	1356	491.053983052021	48
0	1366	493.64754366967	47
0	1368	495.956246717521	48
0	1377	497.268645166249	48
0	1379	497.795721322433	49
0	1381	498.129246425869	50
0	1386	499.765887340628	51
0	1391	501.712526910178	52
0	1396	503.709824146726	53
0	1399	503.986029229004	53
0	1408	505.637041025741	53
0	1413	507.365201447219	54
0	1416	508.964793774889	54
0	1422	510.780017439654	54
0	1428	513.100261524757	54
0	1433	514.764426897287	52
0	1442	518.261832464848	52
0	1447	519.027459234223	52
0	1455	522.267895541503	51
0	1469	528.974054211653	48
0	1472	530.428750527249	49
0	1474	532.065620561937	50
0	1476	532.269860756251	51
0	1482	532.942534798221	52
0	1490	539.373280412703	52
0	1495	541.259290644875	50
0	1519	550.797074888688	47
0	1521	551.626837534271	48
0	1533	558.105420593453	45
0	1551	566.730055732255	42
0	1553	566.916593363043	43
0	1555	567.321283506964	44
0	1561	568.376774562789	44
0	1564	569.506100915007	44
0	1566	570.294508941738	45
0	1577	573.873178882868	45
0	1580	574.64559755199	46
0	1584	578.637330657382	47
0	1588	581.300329714547	47
0	1594	582.882500012887	47
0	1601	584.379555565778	48
0	1604	585.104271855262	49
0	1620	591.463472612259	48
0	1623	593.202051757399	48
0	1625	593.763395590017	49
0	1629	596.104212170828	48
0	1641	600.742697319263	42
0	1645	602.126305837621	43
0	1649	602.664189204054	43
0	1651	603.7168795876	44
0	1653	603.809186209949	45
0	1657	606.06359293884	44
0	1659	607.268801060486	45
0	1665	609.771836715553	45
0	1671	611.542662570747	45
0	1679	614.316131567886	46
0	1684	615.537046148754	47
0	1693	617.926912724732	46
0	1704	622.799846500074	44
0	1707	623.200400517	45
0	1709	624.364054189583	46
0	1717	628.160796979009	47
0	1719	628.204569874584	48
0	1721	628.228465317952	49
0	1723	629.228309661646	50
0	1734	630.873640549253	49
0	1752	637.319936833365	44
0	1757	640.053945585576	43
0	1765	641.076773085908	43
0	1770	642.130240474306	42
0	1774	643.355977436791	43
0	1785	644.408180914651	42
0	1792	644.980244800661	43
0	1796	645.710191640136	43
0	1804	652.437719082469	41
0	1806	652.439750008136	42
0	1808	652.779778044148	43
0	1812	653.270775726968	44
0	1815	654.304004288771	45
0	1820	655.346205409792	46
0	1827	657.75152028356	45
0	1839	662.463616476626	45
0	1841	662.862004852945	46
0	1843	663.151323853847	47
0	1845	663.420963891211	48
0	1848	666.58902677583	48
0	1854	670.096243684805	45
0	1860	673.607923951144	42
0	1865	675.40969997269	43
0	1872	676.911218359038	42
0	1874	676.990508376034	43
0	1880	682.86664167134	40
0	1883	683.646136944547	40
0	1885	683.869946953973	41
0	1897	686.817721401552	41
0	1900	687.638662936618	41
0	1905	689.941880011278	42
0	1915	694.100937457	41
0	1921	696.796013753309	41
0	1923	696.967944450972	42
0	1927	700.600689031961	41
0	1929	700.901288094471	42
0	1935	702.393860154975	42
0	1942	704.460952540157	43
0	1956	708.988853532696	44
0	1959	710.034974998072	45
0	1964	711.406225051799	46
0	1966	711.628131605534	47
0	1969	714.395328997761	47
0	1974	714.593081782849	48
0	1976	714.733818312665	49
0	1978	714.795034151348	50
0	1982	717.665679494253	49
0	1984	717.788918526771	50
0	1988	718.091717018776	51
0	1991	719.109318583129	52
0	1993	720.663924098955	53
0	2008	726.832410088267	52
0	2013	727.494726769064	53
0	2016	727.851745338067	54
0	2019	728.552980955007	54
0	2023	729.84749594602	55
0	2028	730.936196701618	56
0	2031	731.170166923123	57
0	2042	735.392829972161	57
0	2050	738.038912187735	58
0	2061	741.344433359245	57
0	2066	746.25480358398	55
0	2071	747.454349220472	55
0	2080	752.751919746015	56
0	2083	753.46924717616	56
0	2085	753.593229069094	57
0	2091	754.999166185897	54
0	2093	755.445756915047	55
0	2099	757.951769530086	55
0	2104	762.368650966924	53
0	2107	762.67038079112	53
0	2121	769.68136254166	51
0	2123	770.312057169835	52
0	2126	770.853225228231	52
0	2131	772.341226193095	53
0	2134	777.800707245875	53
0	2142	780.640248236622	53
0	2146	780.876055466452	54
0	2148	780.930293482782	55
0	2159	784.146256997562	55
0	2164	786.320596012592	53
0	2166	786.400903784431	54
0	2172	789.997488024589	54
0	2181	792.460119067813	54
0	2184	793.332136463747	54
0	2186	793.635789757041	55
0	2190	795.689503897231	54
0	2198	798.805413963238	54
0	2201	801.060103983381	55
0	2207	803.24790662518	55
0	2210	804.118876408731	55
0	2214	805.323719786623	54
0	2216	805.449308647674	55
0	2223	807.519093872829	56
0	2229	808.320849469969	57
0	2237	809.784787878805	57
0	2256	817.750513370376	54
0	2258	818.184820645941	55
0	2260	818.424567020214	56
0	2262	818.96953999158	57
0	2266	820.478795193114	58
0	2269	820.698921552813	59
0	2273	821.48784185865	58
0	2278	823.262464912876	56
0	2284	825.364284128919	57
0	2292	826.62660310668	57
0	2299	832.94147629718	58
0	2303	833.024947898189	59
0	2310	834.526370601973	60
0	2313	835.310366547181	60
0	2319	838.581818950217	57
0	2324	838.859661263991	58
0	2326	839.306643616024	59
0	2334	841.588866315057	57
0	2347	845.063282560689	58
0	2349	845.829152597074	59
0	2355	847.553315152406	60
0	2357	847.821693752312	61
0	2359	847.886241261374	62
0	2361	848.109968406679	63
0	2363	848.899547603948	64
0	2366	850.77093318579	64
0	2370	851.027786211632	63
0	2372	852.488738005381	64
0	2374	852.490991281587	65
0	2380	854.649248846524	65
0	2385	860.435509139393	63
0	2394	863.473419350821	60
0	2396	863.583244242796	61
0	2403	869.061825847408	60
0	2409	870.401653415336	60
0	2412	871.562867732473	60
0	2420	874.544199566592	58
0	2423	874.72451770812	58
0	2425	874.805352375316	59
0	2430	877.302943882643	57
0	2454	887.496803546734	57
0	2456	888.079575720667	58
0	2464	890.18480751616	59
0	2468	891.06646163645	60
0	2472	891.72170272192	61
0	2474	891.849086035272	62
0	2493	899.341619732785	60
0	2501	902.0295766539	61
0	2514	910.191099798088	57
0	2516	910.702048619609	58
0	2519	915.189444243216	58
0	2521	915.594161351688	59
0	2523	915.769374210219	60
0	2525	916.560015440898	61
0	2527	917.421203250877	62
0	2529	917.662396046194	63
0	2531	918.356689963536	64
0	2537	919.875940051321	64
0	2539	920.480803816718	65
0	2541	920.534948994847	66
0	2546	923.072223913507	66
0	2549	923.68797248264	67
0	2551	924.753762650381	68
0	2553	924.824220591822	69
0	2569	933.665441709346	65
0	2574	936.884140844981	66
0	2578	937.36382310903	65
0	2582	937.755614919603	66
0	2595	943.801593722739	66
0	2597	943.871422576708	67
0	2615	952.978126034506	61
0	2618	955.188637148121	61
0	2637	963.357275023033	57
0	2642	963.671330591463	57
0	2651	966.020266634175	58
0	2653	966.839345793788	59
0	2656	967.634340890927	59
0	2667	972.059524663524	57
0	2669	972.301839878306	58
0	2672	973.643687772305	58
0	2674	974.584947618943	59
0	2695	984.331864713995	56
0	2704	987.277830992736	56
0	2706	987.449239691721	57
0	2710	989.299038616403	56
0	2712	990.077608943572	57
0	2715	990.774793759061	57
0	2717	991.087779924459	58
0	2720	992.780239117465	58
0	2723	994.117953275452	58
0	2729	998.323901644195	58
0	2731	998.912254468276	59
0	2738	999.757756946939	60
0	2740	999.815938081407	61
0	2762	1008.3930171495	60
0	2772	1015.734944794578	60
0	2777	1016.405207729161	61
0	2782	1019.09809450112	62
0	2788	1022.507503815576	62
0	2791	1023.808786542181	62
0	2793	1024.002167587639	63
0	2800	1026.002245916414	64
0	2802	1026.182293396368	65
0	2814	1031.205374199828	63
0	2822	1035.04423129244	61
0	2825	1036.376622933792	61
0	2828	1038.746191634457	61
0	2838	1041.601345626297	62
0	2840	1041.848406108293	63
0	2842	1041.975117680334	64
0	2846	1043.196588459577	64
0	2860	1048.15812176215	63
0	2873	1054.478393988276	64
0	2881	1056.736893567833	65
0	2883	1057.020108168639	66
0	2891	1058.515076264578	64
0	2893	1059.420291051701	65
0	2904	1063.467034525768	63
0	2914	1066.866677007017	61
0	2921	1069.756961955469	61
0	2923	1069.810674945513	62
0	2925	1070.195064439219	63
0	2929	1070.827651946877	64
0	2935	1071.604807602481	65
0	2937	1071.685483454209	66
0	2940	1072.676866597158	66
0	2942	1073.534506406622	67
0	2944	1074.430656562819	68
0	2946	1075.786160749698	69
0	2958	1080.409332244675	69
0	2976	1085.977293544409	69
0	2981	1088.507143365608	67
0	2983	1089.124768629091	68
0	2988	1090.025573206606	68
0	2991	1091.027541519665	69
0	3002	1097.015334680008	64
0	3004	1097.775959791524	65
0	3006	1097.943047391226	66
0	3008	1098.347238802689	67
0	3015	1101.890123240946	68
0	3018	1103.730715403293	69
0	3032	1107.018321399115	69
0	3036	1108.636235463144	69
0	3041	1109.822918689202	70
0	3043	1110.117979444346	71
0	3053	1114.230653788485	70
0	3059	1114.843199579189	71
0	3063	1115.667536423064	72
0	3065	1117.360557851802	73
0	3073	1119.622848694907	74
0	3083	1124.766095490288	73
0	3086	1125.31086915084	73
0	3101	1132.026987699126	73
0	3107	1133.846941793502	73
0	3112	1136.259649158021	74
0	3122	1141.848382678598	74
0	3124	1142.513251921628	75
0	3132	1145.978323473893	75
0	3138	1146.950372006421	74
0	3142	1148.802606966792	75
0	3148	1152.71183427198	74
0	3150	1152.766026186123	75
0	3160	1154.88490038086	74
0	3165	1158.001504883316	72
0	3170	1163.592157065801	70
0	3172	1164.55474890374	71
0	3176	1164.613537766411	72
0	3178	1164.68268370705	73
0	3183	1167.35573012158	72
0	3190	1170.580561848099	71
0	3192	1171.293114786565	72
0	3199	1173.629217121772	73
0	3206	1174.273708125286	74
0	3208	1174.963128541743	75
0	3216	1178.968934893109	72
0	3219	1180.52095175728	72
0	3226	1187.04420014883	70
0	3228	1187.104838151727	71
0	3231	1188.669993977843	72
0	3233	1190.2896883669	73
0	3235	1190.367449212649	74
0	3238	1191.745664416693	74
0	3240	1191.853451626741	75
0	3243	1192.639178718585	75
0	3245	1193.320891103147	76
0	3247	1195.069822304929	77
0	3249	1197.618966104707	78
0	3257	1201.636541593314	73
0	3259	1203.321550904249	74
0	3261	1204.101854617162	75
0	3267	1205.671311043717	75
0	3272	1207.000067199529	76
0	3276	1208.403141669778	75
0	3282	1211.076267268146	75
0	3294	1216.365988240812	74
0	3310	1220.951430357199	74
0	3312	1220.957145768678	75
0	3314	1221.173535523315	76
0	3327	1226.110625092725	72
0	3329	1226.116216505286	73
0	3339	1228.10558622697	74
0	3345	1230.020234004753	75
0	3347	1230.266485671664	76
0	3349	1230.95208529455	77
0	3351	1231.405985706568	78
0	3354	1231.572097727907	78
0	3356	1233.169800092022	79
0	3359	1234.606058741965	79
0	3361	1234.980327140348	80
0	3363	1235.122918219855	81
0	3365	1237.167909779394	82
0	3369	1238.298104535358	81
0	3375	1241.194847191105	81
0	3377	1241.875708308421	82
0	3381	1245.215847319917	81
0	3383	1245.437136801802	82
0	3386	1246.490830421404	82
0	3390	1247.898321301615	83
0	3392	1248.010336557168	84
0	3394	1248.111166768143	85
0	3400	1251.865438882582	83
0	3408	1252.876678326489	83
0	3415	1255.697133822847	82
0	3425	1257.729259765881	82
0	3427	1258.095639851069	83
0	3436	1265.161130349586	83
0	3440	1268.061975397416	84
0	3445	1268.719054139223	85
0	3451	1270.783068334513	83
0	3454	1272.2308009988	83
0	3465	1275.900813967095	78
0	3467	1276.533548106396	79
0	3472	1277.826885403907	80
0	3475	1279.666308166426	80
0	3484	1281.782399552625	80
0	3486	1281.846486426552	81
0	3489	1282.940505775275	81
0	3491	1283.261186659483	82
0	3496	1284.517470712748	83
0	3508	1294.186718832733	79
0	3515	1295.325415645819	80
0	3526	1298.896914887178	77
0	3531	1300.808505415721	78
0	3533	1300.810134408457	79
0	3538	1304.649259975276	80
0	3541	1305.008391959182	80
0	3547	1306.185587104708	80
0	3555	1310.88244644422	81
0	3563	1314.752024427876	81
0	3565	1314.854783511991	82
0	3577	1318.881458249977	83
0	3587	1320.509683598042	84
0	3595	1323.879340206705	83
0	3600	1324.631210738219	84
0	3602	1325.407296267045	85
0	3614	1332.394336714748	85
0	3619	1334.154256241227	86
0	3625	1335.86274318525	83
0	3629	1336.52450799504	82
0	3635	1337.667400451701	82
0	3640	1338.462268982288	83
0	3643	1339.138741748332	83
0	3655	1343.444852891924	80
0	3659	1345.344094393929	81
0	3668	1350.070247465161	79
0	3670	1350.879772198858	80
0	3677	1352.646485024426	81
0	3696	1358.670091402586	75
0	3698	1359.11488688887	76
0	3700	1359.608852393095	77
0	3703	1360.037476143857	77
0	3705	1360.191549376852	78
0	3712	1362.965539032425	77
0	3721	1364.514432559131	77
0	3726	1365.616565605587	77
0	3734	1370.88456347681	76
0	3736	1371.259688131437	77
0	3740	1371.565610997268	78
0	3744	1373.234226318883	78
0	3749	1375.263392170812	78
0	3762	1381.491229473054	75
0	3764	1382.478744191834	76
0	3766	1382.549037990057	77
0	3776	1385.317786479337	75
0	3784	1387.02737055033	76
0	3790	1388.974842963367	77
0	3806	1393.561333348732	76
0	3808	1394.03876780119	77
0	3810	1394.216000551249	78
0	3823	1398.756065970401	77
0	3827	1400.31504609908	76
0	3829	1400.673761499594	77
0	3832	1401.286810355328	77
0	3834	1401.495948041023	78
0	3841	1404.21591590843	77
0	3843	1404.897552442237	78
0	3847	1408.127720399638	77
0	3851	1408.991397140938	78
0	3866	1415.70346997315	76
0	3869	1416.09187298537	76
0	3880	1417.970660925285	77
0	3884	1420.432076235813	78
0	3886	1420.446763177663	79
0	3893	1422.110299658339	79
0	3900	1424.924831194642	78
0	3912	1429.103989409577	77
0	3915	1429.354736452576	78
0	3917	1429.504092209543	79
0	3924	1431.906817520446	78
0	3926	1432.105546850438	79
0	3934	1433.401666011054	80
0	3936	1433.431234942208	81
0	3938	1433.800868755111	82
0	3946	1435.422646369536	83
0	3951	1436.022582801367	84
0	3955	1438.394749622727	83
0	3960	1439.657952609713	84
0	3963	1441.750281626094	84
0	3965	1442.735366739411	85
0	3972	1445.158799375587	84
0	3974	1445.288381135194	85
0	3979	1448.108061186858	86
0	3981	1448.421383748512	87
0	3994	1452.046343845586	86
0	4010	1458.297126044003	85
0	4013	1458.53765261864	85
0	4015	1458.566738415544	86
0	4018	1462.080304544081	86
0	4020	1462.646341614506	87
0	4023	1464.619974660901	87
0	4026	1465.364000038382	87
0	4028	1465.850689603726	88
0	4030	1466.792669003795	89
0	4032	1467.329159113815	90
0	4039	1468.710484729991	89
0	4048	1471.848017812498	88
0	4051	1473.449143713438	89
0	4053	1474.123385907918	90
0	4062	1478.500452171466	90
0	4065	1479.006583128139	90
0	4068	1481.007004518536	90
0	4071	1483.139767189405	90
0	4073	1483.240775665668	91
0	4075	1484.489287370005	92
0	4083	1486.218470042615	93
0	4097	1489.314823458482	91
0	4099	1489.421775539472	92
0	4101	1489.42726245034	93
0	4104	1490.475988916983	93
0	4111	1491.534972837234	93
0	4113	1492.067451739923	94
0	4142	1505.009872804856	90
0	4147	1506.554107893198	91
0	4150	1508.235273993646	92
0	4152	1508.604516515931	93
0	4154	1508.764883602927	94
0	4157	1510.928310877926	94
0	4159	1512.729183506308	95
0	4162	1513.897903089453	95
0	4184	1524.040788047199	91
0	4186	1524.170188478266	92
0	4190	1525.009601697919	93
0	4197	1526.781825808589	93
0	4201	1527.707612078656	92
0	4205	1528.827662589869	93
0	4207	1528.916729849407	94
0	4210	1531.526061495332	95
0	4212	1532.390749855179	96
0	4220	1535.415471197235	94
0	4228	1538.696357123622	92
0	4230	1539.159351252674	93
0	4234	1540.543159119733	94
0	4248	1545.301100779977	93
0	4250	1545.877892384888	94
0	4255	1549.503013935105	95
0	4261	1553.862574516097	95
0	4264	1554.056556823488	95
0	4269	1554.287117853002	96
0	4271	1555.468156265256	97
0	4274	1557.531361732122	97
0	4276	1558.068753368491	98
0	4280	1560.352340713716	97
0	4292	1567.604791667979	91
0	4294	1567.880894328815	92
0	4298	1568.783891871693	93
0	4306	1575.172177796799	94
0	4309	1575.587187171618	95
0	4323	1580.022247004063	93
0	4325	1580.50286911867	94
0	4327	1581.432887877802	95
0	4333	1582.949234294175	95
0	4338	1585.225293357807	96
0	4344	1588.157002837373	96
0	4348	1589.050548337527	95
0	4355	1593.261433241415	94
0	4358	1593.932118401941	94
0	4360	1594.88327119853	95
0	4370	1598.159262475512	94
0	4372	1598.784889034817	95
0	4374	1599.697264167543	96
0	4376	1600.715555433133	97
0	4381	1601.242450805395	97
0	4387	1602.896347848996	98
0	4390	1603.082266164189	98
0	4397	1606.348556405198	97
0	4410	1609.827224873607	98
0	4417	1613.09398226973	98
0	4423	1615.153959138674	98
0	4428	1619.263492592046	96
0	4432	1620.039490563411	97
0	4458	1632.487789879011	87
0	4463	1633.187788434639	88
0	4467	1635.413521044417	87
0	4471	1636.943559731241	86
0	4473	1638.346329642687	87
0	4478	1638.789082947975	88
0	4483	1639.920335407595	89
0	4485	1640.805158232385	90
0	4487	1640.9036537247	91
0	4489	1641.049499299311	92
0	4496	1642.72256746104	91
0	4499	1643.173228060301	91
0	4510	1648.264225592896	91
0	4512	1648.74653918693	92
0	4515	1650.095269180076	93
0	4517	1650.916965018478	94
0	4524	1652.572824416837	95
0	4529	1654.565328315186	96
0	4542	1663.651995027319	93
0	4544	1665.738608604595	94
0	4547	1667.526445663763	94
0	4564	1673.411485944432	89
0	4566	1673.537742523612	90
0	4576	1676.515240205623	89
0	4579	1677.735147317289	89
0	4581	1677.922304795038	90
0	4596	1683.13904611493	87
0	4600	1683.616366776382	88
0	4605	1689.201314679828	89
0	4609	1690.550123734978	89
0	4611	1691.65258242797	90
0	4613	1691.981147543483	91
0	4616	1693.352062016646	91
0	4619	1695.341557736773	91
0	4626	1697.798809540095	90
0	4628	1698.050486677326	91
0	4632	1698.708218846491	90
0	4637	1700.36262948541	91
0	4639	1700.81840236099	92
0	4642	1701.367070105887	92
0	4644	1701.918585649063	93
0	4647	1702.546823361021	93
0	4649	1702.768483438365	94
0	4658	1710.003060727594	91
0	4663	1712.661051419655	89
0	4665	1713.109446261963	90
0	4667	1713.733417698989	91
0	4673	1714.668513732937	91
0	4677	1715.141391330824	92
0	4690	1723.150939458403	92
0	4692	1723.369873548076	93
0	4698	1725.307792668424	92
0	4702	1727.351832524723	92
0	4706	1728.250079386405	93
0	4708	1728.635895258425	94
0	4712	1730.387552030502	94
0	4716	1731.08763113782	95
0	4718	1731.169618854764	96
0	4731	1738.704610053803	95
0	4733	1739.095037727774	96
0	4735	1739.507047057258	97
0	4739	1742.1183573972	97
0	4744	1743.106899490928	98
0	4751	1745.125872361336	99
0	4753	1745.147623228932	100
0	4769	1754.584016820695	100
0	4774	1755.555431067249	100
0	4785	1761.522769108267	96
0	4788	1763.098934690036	96
0	4794	1768.936550868549	96
0	4805	1772.186041995453	97
0	4810	1772.459472140809	98
0	4812	1772.976067714215	99
0	4822	1778.9395011544	97
0	4831	1784.857204048561	98
0	4839	1790.869407825285	96
0	4844	1793.804673826462	97
0	4846	1793.839242716777	98
0	4850	1795.821456851408	97
0	4859	1801.466996392233	96
0	4868	1802.777749989145	94
0	4873	1803.678320346875	95
0	4890	1814.518497279832	92
0	4895	1815.654298567111	93
0	4904	1817.920341654414	94
0	4912	1821.800805093486	92
0	4916	1822.204468239519	93
0	4931	1825.669006100344	91
0	4936	1827.056195072052	92
0	4938	1827.56322258996	93
0	4941	1829.968243938479	93
0	4946	1831.628848233021	94
0	4951	1832.293217926977	94
0	4960	1837.68571177611	91
0	4964	1838.198106259703	91
0	4966	1839.441905476645	92
0	4969	1840.890584332173	92
0	4971	1841.021620846284	93
0	4978	1844.124150654504	92
0	4980	1845.213947688133	93
0	4985	1847.501768037152	94
0	4997	1853.050068281091	91
0	5001	1854.916535208999	90
0	5003	1855.142543980325	91
0	5009	1857.395445610642	91
0	5015	1860.478177600318	91
0	5023	1866.506017587015	86
0	5034	1871.885670205082	81
0	5048	1876.786592127759	81
0	5057	1878.401320252341	82
0	5064	1880.159466249377	83
0	5067	1880.525601605107	84
0	5069	1880.848593154539	85
0	5081	1885.137507217716	85
0	5086	1885.575124073384	85
0	5092	1886.807769543184	86
0	5103	1891.316423831304	87
0	5108	1892.410727270992	88
0	5115	1895.684536512551	87
0	5117	1895.803480823831	88
0	5119	1896.33610681479	89
0	5121	1896.713582657402	90
0	5123	1896.908072177738	91
0	5127	1897.496420391113	92
0	5134	1899.583606932788	92
0	5141	1900.959646795861	93
0	5143	1901.411879149676	94
0	5145	1901.482530944933	95
0	5159	1907.791379691423	94
0	5165	1910.870743590869	93
0	5174	1913.957307848794	92
0	5181	1915.628009494253	92
0	5184	1916.451928602591	93
0	5196	1922.648956016459	87
0	5204	1932.395423325905	85
0	5208	1934.689295987907	84
0	5210	1935.30456593474	85
0	5214	1936.172039374745	86
0	5230	1944.11031403355	83
0	5239	1948.026502489245	83
0	5241	1948.795060922725	84
0	5243	1950.837012603345	85
0	5246	1951.768213128476	85
0	5253	1953.054052148303	83
0	5256	1953.55528459389	84
0	5263	1958.222148592989	83
0	5268	1958.834338101083	84
0	5270	1960.067431229179	85
0	5272	1961.040231633307	86
0	5277	1962.342397590469	87
0	5296	1972.314799917219	83
0	5298	1973.091368353556	84
0	5301	1975.121337482253	84
0	5303	1975.503721408329	85
0	5316	1980.441018993514	82
0	5322	1981.198976698151	83
0	5332	1984.287462462842	77
0	5334	1984.673178158041	78
0	5348	1988.117169157289	76
0	5350	1989.263346876069	77
0	5353	1992.425975681	77
0	5357	1993.213115455009	78
0	5359	1993.792014000734	79
0	5364	1995.615875456651	80
0	5370	1997.279444593231	81
0	5372	1997.290666106285	82
0	5379	1997.896738224501	82
1	0	0	0
1	2	0.235105656894	0
1	10	2.674776810704	1
1	15	5.975004983858	2
1	17	6.02224901204	3
1	19	6.164139159569	4
1	20	6.429484622008	4
1	24	9.490790645384	3
1	25	10.056441432739	2
1	27	10.067001960876	2
1	42	16.521585107989	3
1	44	16.780211556052	4
1	53	20.134208605151	4
1	58	24.593093076506	4
1	60	24.716226929971	5
1	64	25.614245629023	6
1	66	26.699240563038	7
1	69	27.135417306814	8
1	70	28.320461431796	8
1	74	30.428824964106	7
1	76	30.704556348801	7
1	78	31.007637856267	8
1	79	31.073116870127	8
1	81	31.7358189062	8
1	82	31.911585454798	8
1	84	32.239606110816	8
1	85	32.449550953054	8
1	87	33.718351393717	8
1	88	34.299407900001	8
1	93	35.497617770208	8
1	95	35.592787193133	9
1	96	35.738180644124	9
1	106	38.432423746859	8
1	107	38.540424389941	7
1	109	38.808984773483	7
1	111	39.559926736776	8
1	113	40.389881897361	9
1	114	41.339579496849	9
1	118	41.561890552489	9
1	126	43.161054366323	10
1	129	43.884137820138	11
1	133	44.392689527025	12
1	135	49.309176208487	12
1	136	50.154117339332	11
1	137	50.986088524376	10
1	142	52.506218577458	10
1	144	52.862878869052	11
1	146	53.021681687029	12
1	148	54.885948109298	13
1	149	55.169033115387	13
1	155	56.936756003963	13
1	158	58.080734686483	13
1	159	60.06315155299	12
1	163	60.758202688319	11
1	164	61.182901888761	10
1	165	61.811243587339	9
1	166	61.861839537766	8
1	167	62.124562895474	7
1	168	62.480306050099	6
1	170	62.80459095447	6
1	177	66.599862555918	6
1	179	66.657739270776	6
1	183	68.99779867412	6
1	184	69.626004456295	5
1	185	70.064535036311	4
1	186	70.211896013096	3
1	188	70.900055948538	3
1	192	72.389954841685	3
1	193	73.975756739913	2
1	195	74.265414172434	2
1	197	75.184162735487	3
1	198	75.509358194857	3
1	202	78.008712006547	2
1	203	78.685632371739	1
1	208	81.132227870087	1
1	210	82.259059408305	2
1	212	83.901285128472	3
1	213	84.730935367873	3
1	214	84.905018179627	2
1	216	85.040548451742	2
1	221	85.694978386418	3
1	222	86.600830960905	3
1	238	90.066799475934	2
1	246	92.275240932066	2
1	247	92.281638934263	2
1	248	92.773587751377	1
1	250	93.151858470918	1
1	252	93.717546599816	2
1	256	94.205742615192	3
1	258	95.377063959786	3
1	266	97.475896759252	3
1	267	98.531875905907	3
1	268	99.258203672427	2
1	270	100.583733903625	2
1	272	101.141720622976	3
1	273	101.499640240963	3
1	274	101.603917542125	2
1	276	103.165560803348	2
1	280	105.984639223267	2
1	281	106.504178319136	1
1	288	108.693167385936	1
1	291	109.363444638512	2
1	293	109.653268799964	3
1	295	110.802446994663	4
1	299	113.952442073062	4
1	303	114.337488239326	3
1	316	118.000061297203	3
1	318	119.431209496393	3
1	320	119.781955856193	3
1	321	120.07188005256	3
1	325	120.612743841266	3
1	330	124.072794666234	3
1	332	125.341029128864	3
1	333	126.74019519631	3
1	334	127.08554094529	2
1	336	127.298268865537	2
1	341	128.7374023663	3
1	342	128.990084827925	3
1	346	130.036033105602	2
1	350	130.502875742724	2
1	355	132.179355873182	2
1	357	132.957120103439	2
1	358	133.776041416288	2
1	365	136.665640730338	2
1	368	137.671896682369	3
1	376	139.950272409504	4
1	377	140.046880469355	4
1	385	143.079798705621	4
1	386	143.331210585819	4
1	388	144.918039147298	4
1	390	145.599321616051	5
1	391	147.26515119644	5
1	393	147.603504381409	5
1	397	148.431169211304	5
1	398	148.915613966594	4
1	399	149.067976520747	3
1	407	149.961305359512	3
1	411	153.276245176366	4
1	414	155.27253901576	5
1	415	156.414709772545	5
1	416	156.660134177936	4
1	421	158.569027070021	4
1	431	161.506314802433	4
1	435	162.171089262631	4
1	439	162.768369660861	5
1	441	163.587295708272	6
1	444	164.717153894641	6
1	445	167.3325959159	5
1	447	168.369199884341	5
1	448	168.456539865419	5
1	449	169.504398487313	4
1	450	169.516624662654	3
1	451	169.71437988155	2
1	452	171.451845020862	1
1	454	172.877932863852	1
1	455	173.655664949559	1
1	456	173.906828430551	0
1	458	174.773455503021	0
1	459	174.782415481621	0
1	461	175.075405200772	0
1	463	175.101010704073	1
1	465	176.082777086311	2
1	467	176.428304697893	3
1	468	176.580937141228	3
1	470	177.53556169415	3
1	472	178.153760476339	4
1	473	178.163382895563	4
1	475	178.17615971524	4
1	477	178.498457253425	5
1	479	179.682445602712	6
1	486	184.309243567068	7
1	488	184.715501742078	7
1	490	185.116945680034	7
1	496	185.512595819987	8
1	503	188.367244078258	9
1	504	189.03089992936	9
1	505	189.357133589839	8
1	507	189.917677392362	8
1	509	190.430728036012	9
1	511	190.706961886004	10
1	512	194.334038173516	10
1	514	195.793258269941	10
1	516	196.009121523322	11
1	518	196.402829947158	12
1	524	197.283689861129	13
1	528	200.560465027382	14
1	529	200.571845871199	14
1	530	200.610241361607	13
1	531	201.565794768181	12
1	532	201.645275153482	11
1	533	205.142306979757	10
1	534	205.144592411018	9
1	536	206.173628825242	9
1	540	207.198256116613	9
1	542	207.40450820447	9
1	543	209.785498383679	9
1	547	210.668416011408	9
1	550	211.316960351654	10
1	557	212.961052466408	11
1	559	213.607010033961	11
1	560	217.709718217243	10
1	565	219.606071135491	10
1	567	219.939009344091	11
1	569	220.253804706694	12
1	570	220.957722448041	12
1	572	221.156026179541	12
1	576	222.431829655784	12
1	578	223.512194491312	12
1	579	224.683671773724	12
1	581	224.972861847437	12
1	583	225.060977952089	13
1	585	225.18470824192	14
1	586	225.447147751998	14
1	593	227.3735558738	14
1	602	229.017003853853	15
1	607	230.224961489322	16
1	611	231.01972781533	16
1	612	232.58902158226	15
1	613	233.653321905806	14
1	614	234.25898380358	13
1	621	235.817518303958	12
1	623	237.236394205837	12
1	627	237.810493923814	13
1	630	237.88587650627	14
1	635	238.740889942006	15
1	640	240.483992808602	16
1	642	241.403882044371	17
1	647	243.870336153747	18
1	654	247.936903611034	18
1	655	248.625355460363	17
1	659	251.25206545479	17
1	661	251.394581857792	18
1	669	253.14551032216	19
1	671	253.162289738182	20
1	675	253.755813223295	21
1	678	254.891011057139	22
1	681	255.417505208953	23
1	682	255.893084879706	23
1	684	257.097418733327	23
1	686	257.380770728353	24
1	688	257.424809794775	25
1	689	257.911247577623	25
1	691	257.919964966742	25
1	693	260.110682411539	26
1	701	263.277707942869	27
1	703	263.546242174071	28
1	707	264.158796216177	29
1	709	265.241820054199	29
1	717	270.988374890082	29
1	719	271.388506723151	30
1	721	271.975118684021	31
1	722	272.024394612585	31
1	724	272.596154828338	31
1	726	272.649923901762	32
1	727	273.083458375984	32
1	729	274.049550394586	32
1	741	275.40373790757	33
1	745	276.717996494119	34
1	749	277.232781998395	35
1	751	277.974443995514	35
1	752	278.301163470208	34
1	754	278.403209408878	34
1	761	282.365060459976	34
1	766	283.502517044654	34
1	768	283.992377387162	35
1	775	288.052847416399	35
1	780	291.421337735754	35
1	781	291.689816811647	35
1	782	291.98377541183	34
1	789	295.005729966707	33
1	791	295.31007064694	33
1	792	297.082541219346	33
1	796	298.77646683904	33
1	805	302.83874974378	34
1	806	303.253795517155	34
1	808	303.775056539235	34
1	809	304.474934075379	34
1	813	307.200248291093	34
1	818	313.259983002875	34
1	820	314.31140499261	34
1	821	314.581753750711	34
1	822	315.481940364825	33
1	823	315.633369850731	32
1	824	315.991200333545	31
1	834	317.784587417004	30
1	838	318.873807021544	30
1	840	319.004872672824	31
1	842	319.268293391299	32
1	850	321.517860914763	33
1	855	324.98250931244	33
1	856	326.163732072704	32
1	858	326.393249408641	32
1	863	327.334583014393	33
1	865	328.515386917669	34
1	878	332.385220553015	34
1	880	332.730582270465	34
1	881	333.070857796891	34
1	889	334.536610547983	34
1	892	335.041078685243	35
1	896	335.713853930829	36
1	898	336.430088315345	37
1	903	337.061445396285	38
1	904	337.505976729565	38
1	917	340.800412205029	38
1	920	342.267952591251	39
1	921	342.533646189598	39
1	922	343.097674302647	38
1	924	344.207631695708	38
1	926	344.835577806102	39
1	930	345.075511407828	39
1	931	345.301990231914	38
1	932	345.620067950715	37
1	939	347.198164669922	37
1	947	348.876608710677	38
1	949	349.828329949859	39
1	951	351.176853443221	40
1	953	352.17889651713	40
1	954	353.554900917986	39
1	956	354.430872767349	39
1	957	354.663766204096	39
1	962	357.456016785832	39
1	963	358.380821298118	39
1	965	358.463646005545	39
1	967	358.82275721506	40
1	969	359.683812379015	41
1	974	362.220216296992	42
1	975	362.44458892698	42
1	976	362.6965339171	41
1	980	362.983511498503	41
1	982	363.145580365381	42
1	984	364.156130165071	42
1	989	365.304185613656	42
1	993	366.404392516394	42
1	998	366.785624512735	42
1	999	367.264235828024	42
1	1004	368.677220778833	42
1	1005	369.305271846606	42
1	1006	370.280654196999	41
1	1008	370.43431992562	41
1	1009	370.561649830261	41
1	1010	371.183400330447	40
1	1011	372.933116756071	39
1	1013	373.739757614606	39
1	1015	374.109762378614	40
1	1016	374.145246267334	40
1	1018	374.896758928999	40
1	1027	375.824529427279	41
1	1030	376.394825299737	42
1	1038	378.685886794782	43
1	1040	379.477293406378	43
1	1041	380.277347924404	42
1	1042	381.748466437913	41
1	1043	382.130928833769	40
1	1045	382.711381236585	40
1	1046	383.120582462349	40
1	1048	383.250741370308	40
1	1060	386.847851533688	41
1	1069	391.061449840234	42
1	1071	391.118174960192	43
1	1073	392.443021582298	43
1	1083	393.558213948987	43
1	1085	394.133937429798	44
1	1088	395.970474725412	45
1	1092	398.574498390462	46
1	1094	402.214514736007	47
1	1100	403.538483976573	48
1	1104	404.58848702627	48
1	1105	405.423591944958	47
1	1106	406.63124651698	46
1	1107	407.567010745222	45
1	1111	412.270550213711	44
1	1112	412.48790663906	43
1	1114	412.646990168248	43
1	1118	413.655261327845	44
1	1121	414.421882254414	45
1	1123	414.475441746819	46
1	1125	414.477731072131	47
1	1126	415.758154887867	47
1	1128	415.886449976908	47
1	1130	416.589703328104	48
1	1131	416.950445611385	48
1	1132	416.982814976139	47
1	1134	417.867709966175	47
1	1135	418.052391810136	47
1	1136	418.881302568184	46
1	1137	419.055850498028	45
1	1139	420.249924697812	45
1	1140	421.463367148094	45
1	1142	421.630286410534	45
1	1146	422.396184658989	46
1	1148	423.031452764613	47
1	1151	424.469925458478	48
1	1153	425.334316532581	49
1	1157	426.345505325324	50
1	1160	426.832923255876	51
1	1162	427.343926963791	52
1	1169	430.40492008174	52
1	1170	430.416988653298	51
1	1174	431.519386520934	51
1	1185	433.566283700591	52
1	1187	434.151230887234	52
1	1188	434.300242947904	51
1	1195	436.141372386915	50
1	1197	436.928018561021	50
1	1201	438.499814595938	50
1	1211	441.430072907872	49
1	1213	441.928363734305	49
1	1214	442.249892506491	49
1	1221	447.20775933121	49
1	1223	447.791817373566	49
1	1225	448.162267188172	49
1	1227	448.5383767447	50
1	1228	449.540034874144	50
1	1229	449.93756726027	49
1	1233	450.72056133549	49
1	1235	450.852555756487	49
1	1239	451.345887821795	48
1	1240	451.566117077617	47
1	1242	451.60917938191	47
1	1247	453.360401514758	48
1	1249	453.625069388277	49
1	1250	454.100652037056	49
1	1254	454.547674106948	49
1	1260	458.024101284363	50
1	1261	458.847817642197	50
1	1262	459.020136375039	49
1	1267	460.983173471146	49
1	1271	461.566669309646	49
1	1275	462.223277266616	48
1	1277	462.654276228731	48
1	1278	464.721533452808	48
1	1285	465.063048814473	48
1	1288	466.032720304342	49
1	1289	466.31409245431	49
1	1290	466.860268011882	48
1	1292	467.787306071989	48
1	1299	472.877099324584	48
1	1313	476.133120987835	48
1	1314	476.715225831655	48
1	1316	476.93082560366	48
1	1317	479.039060880687	48
1	1318	479.582537146468	47
1	1319	480.222075515382	46
1	1321	480.493565363603	46
1	1322	480.759317256082	46
1	1324	482.257810035424	46
1	1326	483.396865601637	47
1	1327	484.196034862069	47
1	1343	488.2535698793	46
1	1345	488.445360084735	46
1	1356	491.053983052021	47
1	1357	491.489253531823	47
1	1364	493.561810240413	46
1	1366	493.64754366967	46
1	1368	495.956246717521	47
1	1372	496.877226381257	47
1	1377	497.268645166249	47
1	1379	497.795721322433	48
1	1381	498.129246425869	49
1	1386	499.765887340628	50
1	1391	501.712526910178	51
1	1396	503.709824146726	52
1	1397	503.865621104509	52
1	1399	503.986029229004	52
1	1400	504.473657023345	52
1	1408	505.637041025741	52
1	1413	507.365201447219	53
1	1414	508.717324092108	53
1	1416	508.964793774889	53
1	1417	509.963231337525	53
1	1422	510.780017439654	53
1	1423	511.810028774369	53
1	1428	513.100261524757	53
1	1429	513.320165250073	53
1	1430	513.849404725295	52
1	1431	514.258683555013	51
1	1433	514.764426897287	51
1	1440	516.920158037605	51
1	1442	518.261832464848	51
1	1443	518.564364114153	51
1	1447	519.027459234223	51
1	1449	519.495873323816	51
1	1453	520.293862503594	50
1	1455	522.267895541503	50
1	1456	522.354897244794	50
1	1457	522.949670119292	49
1	1464	528.106964362886	48
1	1465	528.760429220482	47
1	1469	528.974054211653	47
1	1472	530.428750527249	48
1	1474	532.065620561937	49
1	1476	532.269860756251	50
1	1482	532.942534798221	51
1	1485	533.985096618372	51
1	1490	539.373280412703	51
1	1491	539.536547169017	51
1	1492	541.033495793553	50
1	1493	541.221651153598	49
1	1495	541.259290644875	49
1	1496	542.581657183503	49
1	1506	545.857928778164	48
1	1513	548.895801781282	47
1	1514	548.967093120396	46
1	1519	550.797074888688	46
1	1521	551.626837534271	47
1	1525	553.04145686269	47
1	1526	554.048782859603	46
1	1530	555.758742615556	45
1	1531	556.92107496091	44
1	1533	558.105420593453	44
1	1540	560.051884626101	44
1	1541	560.137275820164	43
1	1545	562.593986113816	42
1	1546	564.43622673831	41
1	1551	566.730055732255	41
1	1553	566.916593363043	42
1	1555	567.321283506964	43
1	1559	568.122493325494	43
1	1561	568.376774562789	43
1	1562	569.271877026362	43
1	1564	569.506100915007	43
1	1566	570.294508941738	44
1	1567	572.564239453304	44
1	1577	573.873178882868	44
1	1580	574.64559755199	45
1	1584	578.637330657382	46
1	1586	580.174358317247	46
1	1588	581.300329714547	46
1	1592	582.231189849111	46
1	1594	582.882500012887	46
1	1601	584.379555565778	47
1	1604	585.104271855262	48
1	1605	585.798269041088	48
1	1618	590.825702103238	47
1	1620	591.463472612259	47
1	1621	591.673411951195	47
1	1623	593.202051757399	47
1	1625	593.763395590017	48
1	1626	593.7978888442	48
1	1627	594.923606771506	47
1	1629	596.104212170828	47
1	1630	596.756580041636	47
1	1631	596.862685729396	46
1	1632	597.437053473252	45
1	1636	598.006428979856	44
1	1637	598.550392430772	43
1	1638	598.899236602111	42
1	1639	599.893746779757	41
1	1641	600.742697319263	41
1	1645	602.126305837621	42
1	1647	602.29842130886	42
1	1649	602.664189204054	42
1	1651	603.7168795876	43
1	1653	603.809186209949	44
1	1654	603.925863979945	44
1	1655	604.019434605345	43
1	1657	606.06359293884	43
1	1659	607.268801060486	44
1	1660	607.938326853984	44
1	1665	609.771836715553	44
1	1669	610.753558231449	44
1	1671	611.542662570747	44
1	1679	614.316131567886	45
1	1684	615.537046148754	46
1	1688	617.130020017433	46
1	1689	617.296451808949	45
1	1693	617.926912724732	45
1	1695	620.368582216215	45
1	1699	622.334090043744	44
1	1700	622.745117068571	43
1	1704	622.799846500074	43
1	1707	623.200400517	44
1	1709	624.364054189583	45
1	1717	628.160796979009	46
1	1719	628.204569874584	47
1	1721	628.228465317952	48
1	1723	629.228309661646	49
1	1724	629.370139755865	49
1	1725	629.979743831106	48
1	1734	630.873640549253	48
1	1737	633.008764413323	48
1	1738	633.771635516887	47
1	1739	633.864003385914	46
1	1746	635.065244193631	45
1	1747	635.256779953196	44
1	1748	636.231563677892	43
1	1752	637.319936833365	43
1	1754	638.702857712405	43
1	1755	639.094494893939	42
1	1757	640.053945585576	42
1	1761	640.723668477784	42
1	1765	641.076773085908	42
1	1767	641.450030766267	42
1	1768	641.541358841751	41
1	1770	642.130240474306	41
1	1774	643.355977436791	42
1	1776	643.491296194169	42
1	1777	643.752355178495	41
1	1785	644.408180914651	41
1	1792	644.980244800661	42
1	1794	645.541506537915	42
1	1796	645.710191640136	42
1	1797	646.132518291882	42
1	1798	647.428336422367	41
1	1799	648.834327809718	40
1	1804	652.437719082469	40
1	1806	652.439750008136	41
1	1808	652.779778044148	42
1	1812	653.270775726968	43
1	1815	654.304004288771	44
1	1820	655.346205409792	45
1	1824	656.262692233539	45
1	1825	656.948863295792	44
1	1827	657.75152028356	44
1	1828	658.851929074305	44
1	1839	662.463616476626	44
1	1841	662.862004852945	45
1	1843	663.151323853847	46
1	1845	663.420963891211	47
1	1846	665.019989217581	47
1	1848	666.58902677583	47
1	1849	666.857702548704	47
1	1850	667.865399077391	46
1	1851	668.002253274515	45
1	1852	669.189791458196	44
1	1854	670.096243684805	44
1	1855	670.215785233788	44
1	1856	672.360761409537	43
1	1857	672.581739396842	42
1	1858	672.782350285965	41
1	1860	673.607923951144	41
1	1865	675.40969997269	42
1	1869	676.420534972807	42
1	1870	676.529566497544	41
1	1872	676.911218359038	41
1	1874	676.990508376034	42
1	1875	677.358580625302	42
1	1876	677.83410393241	41
1	1877	679.525532711091	40
1	1878	681.883624694212	39
1	1880	682.86664167134	39
1	1881	683.290500696977	39
1	1883	683.646136944547	39
1	1885	683.869946953973	40
1	1892	685.658749793701	40
1	1897	686.817721401552	40
1	1898	687.638119894613	40
1	1900	687.638662936618	40
1	1905	689.941880011278	41
1	1909	691.941364467495	41
1	1913	694.093673063738	40
1	1915	694.100937457	40
1	1919	696.627186210438	40
1	1921	696.796013753309	40
1	1923	696.967944450972	41
1	1924	699.50676098917	41
1	1925	699.73195284073	40
1	1927	700.600689031961	40
1	1929	700.901288094471	41
1	1930	701.45262130933	41
1	1935	702.393860154975	41
1	1942	704.460952540157	42
1	1956	708.988853532696	43
1	1959	710.034974998072	44
1	1964	711.406225051799	45
1	1966	711.628131605534	46
1	1967	711.823135830435	46
1	1969	714.395328997761	46
1	1974	714.593081782849	47
1	1976	714.733818312665	48
1	1978	714.795034151348	49
1	1979	715.444004029156	49
1	1980	716.261653799412	48
1	1982	717.665679494253	48
1	1984	717.788918526771	49
1	1988	718.091717018776	50
1	1991	719.109318583129	51
1	1993	720.663924098955	52
1	2000	723.898353272185	52
1	2004	725.485579122036	51
1	2008	726.832410088267	51
1	2013	727.494726769064	52
1	2016	727.851745338067	53
1	2017	727.878971898728	53
1	2019	728.552980955007	53
1	2023	729.84749594602	54
1	2028	730.936196701618	55
1	2031	731.170166923123	56
1	2032	731.807648035401	56
1	2042	735.392829972161	56
1	2050	738.038912187735	57
1	2052	738.346155024921	57
1	2059	741.084974131307	56
1	2061	741.344433359245	56
1	2062	742.462885487685	56
1	2063	742.664618959617	55
1	2064	745.254619792623	54
1	2066	746.25480358398	54
1	2067	746.579451674764	54
1	2071	747.454349220472	54
1	2080	752.751919746015	55
1	2081	753.466560522476	55
1	2083	753.46924717616	55
1	2085	753.593229069094	56
1	2086	753.911863693862	56
1	2087	754.199095945105	55
1	2088	754.668797403102	54
1	2089	754.674237911486	53
1	2091	754.999166185897	53
1	2093	755.445756915047	54
1	2094	756.062910490507	54
1	2099	757.951769530086	54
1	2100	758.121502648106	54
1	2101	758.814511114483	53
1	2102	761.639008379418	52
1	2104	762.368650966924	52
1	2105	762.44773129953	52
1	2107	762.67038079112	52
1	2117	767.483507336231	52
1	2118	767.596796716336	51
1	2119	767.974529648378	50
1	2121	769.68136254166	50
1	2123	770.312057169835	51
1	2124	770.692899099458	51
1	2126	770.853225228231	51
1	2131	772.341226193095	52
1	2132	777.19537681248	52
1	2134	777.800707245875	52
1	2135	778.261421876669	52
1	2142	780.640248236622	52
1	2146	780.876055466452	53
1	2148	780.930293482782	54
1	2154	782.582037582092	54
1	2159	784.146256997562	54
1	2160	784.186931435968	54
1	2161	784.712940324682	53
1	2162	785.489045956442	52
1	2164	786.320596012592	52
1	2166	786.400903784431	53
1	2167	787.912882905722	53
1	2172	789.997488024589	53
1	2173	790.171009493926	53
1	2181	792.460119067813	53
1	2182	793.209022055878	53
1	2184	793.332136463747	53
1	2186	793.635789757041	54
1	2187	793.670853989331	54
1	2188	795.215767424627	53
1	2190	795.689503897231	53
1	2191	797.369376856246	53
1	2198	798.805413963238	53
1	2201	801.060103983381	54
1	2202	801.75616292683	54
1	2207	803.24790662518	54
1	2208	803.397966047896	54
1	2210	804.118876408731	54
1	2211	804.960081672642	54
1	2212	805.237205874758	53
1	2214	805.323719786623	53
1	2216	805.449308647674	54
1	2223	807.519093872829	55
1	2229	808.320849469969	56
1	2230	808.674393882348	56
1	2237	809.784787878805	56
1	2242	811.557620320586	56
1	2243	811.964591346812	55
1	2247	813.90270672445	54
1	2254	817.398409355364	53
1	2256	817.750513370376	53
1	2258	818.184820645941	54
1	2260	818.424567020214	55
1	2262	818.96953999158	56
1	2266	820.478795193114	57
1	2269	820.698921552813	58
1	2270	820.825333377351	58
1	2271	821.005401951405	57
1	2273	821.48784185865	57
1	2274	822.239525676521	57
1	2275	822.615450548274	56
1	2276	823.103757010934	55
1	2278	823.262464912876	55
1	2284	825.364284128919	56
1	2287	826.109405850682	56
1	2292	826.62660310668	56
1	2299	832.94147629718	57
1	2303	833.024947898189	58
1	2310	834.526370601973	59
1	2311	835.159544070944	59
1	2313	835.310366547181	59
1	2314	835.827662043997	59
1	2315	836.496896629576	58
1	2316	836.915631460631	57
1	2317	838.551336621774	56
1	2319	838.581818950217	56
1	2324	838.859661263991	57
1	2326	839.306643616024	58
1	2327	839.644290343235	58
1	2328	840.05834769803	57
1	2332	841.26191781144	56
1	2334	841.588866315057	56
1	2347	845.063282560689	57
1	2349	845.829152597074	58
1	2355	847.553315152406	59
1	2357	847.821693752312	60
1	2359	847.886241261374	61
1	2361	848.109968406679	62
1	2363	848.899547603948	63
1	2364	849.666226934398	63
1	2366	850.77093318579	63
1	2367	850.847869807441	63
1	2368	851.007309840214	62
1	2370	851.027786211632	62
1	2372	852.488738005381	63
1	2374	852.490991281587	64
1	2378	854.551920151567	64
1	2380	854.649248846524	64
1	2381	859.055589403501	64
1	2382	859.65689523289	63
1	2383	860.137101905521	62
1	2385	860.435509139393	62
1	2386	860.459483893795	62
1	2387	860.810449126605	61
1	2388	861.025074670297	60
1	2389	861.056822511311	59
1	2394	863.473419350821	59
1	2396	863.583244242796	60
1	2400	866.927625760516	60
1	2401	868.873706996399	59
1	2403	869.061825847408	59
1	2404	869.562074949461	59
1	2409	870.401653415336	59
1	2410	871.475115803594	59
1	2412	871.562867732473	59
1	2416	873.834223694995	59
1	2417	874.031851429458	58
1	2418	874.422738464594	57
1	2420	874.544199566592	57
1	2421	874.596035083526	57
1	2423	874.72451770812	57
1	2425	874.805352375316	58
1	2426	874.812830063199	58
1	2427	874.855697563247	57
1	2428	876.148092494674	56
1	2430	877.302943882643	56
1	2431	877.654049095073	56
1	2454	887.496803546734	56
1	2456	888.079575720667	57
1	2464	890.18480751616	58
1	2468	891.06646163645	59
1	2472	891.72170272192	60
1	2474	891.849086035272	61
1	2477	893.068239120552	61
1	2487	894.938276543578	60
1	2488	895.531015532599	59
1	2493	899.341619732785	59
1	2501	902.0295766539	60
1	2502	902.425837598126	60
1	2503	903.89009573093	59
1	2507	904.608300118518	58
1	2511	908.032602988281	57
1	2512	908.899851566672	56
1	2514	910.191099798088	56
1	2516	910.702048619609	57
1	2517	910.720632643407	57
1	2519	915.189444243216	57
1	2521	915.594161351688	58
1	2523	915.769374210219	59
1	2525	916.560015440898	60
1	2527	917.421203250877	61
1	2529	917.662396046194	62
1	2531	918.356689963536	63
1	2535	918.84179871309	63
1	2537	919.875940051321	63
1	2539	920.480803816718	64
1	2541	920.534948994847	65
1	2542	922.546309395198	65
1	2546	923.072223913507	65
1	2549	923.68797248264	66
1	2551	924.753762650381	67
1	2553	924.824220591822	68
1	2557	928.235369255213	68
1	2558	928.784840085015	67
1	2559	930.079232445363	66
1	2563	932.069270529777	65
1	2567	933.192149015106	64
1	2569	933.665441709346	64
1	2574	936.884140844981	65
1	2575	937.111550428443	65
1	2576	937.280330960361	64
1	2578	937.36382310903	64
1	2582	937.755614919603	65
1	2587	938.392660371249	65
1	2595	943.801593722739	65
1	2597	943.871422576708	66
1	2598	944.513928228803	66
1	2602	947.374209551681	65
1	2603	947.511332692823	64
1	2604	947.810407744645	63
1	2605	948.419785307615	62
1	2609	951.122725907093	61
1	2613	952.394541478166	60
1	2615	952.978126034506	60
1	2616	953.426702954493	60
1	2618	955.188637148121	60
1	2619	955.479048054759	60
1	2623	957.791206016078	59
1	2624	957.994600929441	58
1	2631	960.626058882872	57
1	2635	963.056359555922	56
1	2637	963.357275023033	56
1	2638	963.388870949824	56
1	2642	963.671330591463	56
1	2651	966.020266634175	57
1	2653	966.839345793788	58
1	2654	967.511223426017	58
1	2656	967.634340890927	58
1	2657	969.411229428409	58
1	2658	969.602575886442	57
1	2665	970.946758648385	56
1	2667	972.059524663524	56
1	2669	972.301839878306	57
1	2670	973.191595344299	57
1	2672	973.643687772305	57
1	2674	974.584947618943	58
1	2675	976.898288575956	58
1	2676	977.559426596515	57
1	2683	978.929335105531	56
1	2693	983.955171939833	55
1	2695	984.331864713995	55
1	2696	984.367524370177	55
1	2704	987.277830992736	55
1	2706	987.449239691721	56
1	2707	988.039417244391	56
1	2708	989.158225573634	55
1	2710	989.299038616403	55
1	2712	990.077608943572	56
1	2713	990.236815350293	56
1	2715	990.774793759061	56
1	2717	991.087779924459	57
1	2718	992.481247986816	57
1	2720	992.780239117465	57
1	2721	993.658110538356	57
1	2723	994.117953275452	57
1	2727	997.465019403213	57
1	2729	998.323901644195	57
1	2731	998.912254468276	58
1	2738	999.757756946939	59
1	2740	999.815938081407	60
1	2754	1004.516012849424	60
1	2758	1006.893891338536	59
1	2762	1008.3930171495	59
1	2770	1014.893283049718	59
1	2772	1015.734944794578	59
1	2777	1016.405207729161	60
1	2782	1019.09809450112	61
1	2783	1019.638397126983	61
1	2788	1022.507503815576	61
1	2789	1023.003556512357	61
1	2791	1023.808786542181	61
1	2793	1024.002167587639	62
1	2800	1026.002245916414	63
1	2802	1026.182293396368	64
1	2804	1026.916808751039	64
1	2808	1028.617831257808	63
1	2809	1029.24544292841	62
1	2814	1031.205374199828	62
1	2815	1031.563260945683	62
1	2816	1032.243112677737	61
1	2817	1033.434625703219	60
1	2822	1035.04423129244	60
1	2823	1035.461024573899	60
1	2825	1036.376622933792	60
1	2826	1037.992467498967	60
1	2828	1038.746191634457	60
1	2838	1041.601345626297	61
1	2840	1041.848406108293	62
1	2842	1041.975117680334	63
1	2844	1042.631746808535	63
1	2846	1043.196588459577	63
1	2850	1044.556201464003	63
1	2854	1046.361199561827	62
1	2860	1048.15812176215	62
1	2873	1054.478393988276	63
1	2881	1056.736893567833	64
1	2883	1057.020108168639	65
1	2884	1057.329022734048	65
1	2885	1057.648760159382	64
1	2889	1058.332239470393	63
1	2891	1058.515076264578	63
1	2893	1059.420291051701	64
1	2894	1059.508814532678	64
1	2901	1061.602485046891	63
1	2902	1062.737899328973	62
1	2904	1063.467034525768	62
1	2908	1064.092656863221	62
1	2909	1065.975406158387	61
1	2910	1066.464777686647	60
1	2914	1066.866677007017	60
1	2916	1067.698714319541	60
1	2921	1069.756961955469	60
1	2923	1069.810674945513	61
1	2925	1070.195064439219	62
1	2929	1070.827651946877	63
1	2935	1071.604807602481	64
1	2937	1071.685483454209	65
1	2938	1072.388516677633	65
1	2940	1072.676866597158	65
1	2942	1073.534506406622	66
1	2944	1074.430656562819	67
1	2946	1075.786160749698	68
1	2947	1076.325830403681	68
1	2958	1080.409332244675	68
1	2968	1084.55089682983	68
1	2976	1085.977293544409	68
1	2977	1086.273903037531	68
1	2978	1087.207147467124	67
1	2979	1087.875277860586	66
1	2981	1088.507143365608	66
1	2983	1089.124768629091	67
1	2984	1089.868493885701	67
1	2988	1090.025573206606	67
1	2991	1091.027541519665	68
1	2992	1091.910381021118	68
1	2996	1093.509248680375	67
1	2997	1094.392784385667	66
1	2998	1094.571382616853	65
1	2999	1095.093638245984	64
1	3000	1095.912287487211	63
1	3002	1097.015334680008	63
1	3004	1097.775959791524	64
1	3006	1097.943047391226	65
1	3008	1098.347238802689	66
1	3015	1101.890123240946	67
1	3018	1103.730715403293	68
1	3022	1105.030820832789	68
1	3032	1107.018321399115	68
1	3034	1108.066943499943	68
1	3036	1108.636235463144	68
1	3041	1109.822918689202	69
1	3043	1110.117979444346	70
1	3044	1110.190663572683	70
1	3045	1110.534769327577	69
1	3053	1114.230653788485	69
1	3059	1114.843199579189	70
1	3063	1115.667536423064	71
1	3065	1117.360557851802	72
1	3073	1119.622848694907	73
1	3074	1119.641368847159	73
1	3081	1123.679223675124	72
1	3083	1124.766095490288	72
1	3084	1124.8267656452	72
1	3086	1125.31086915084	72
1	3087	1125.920034156491	72
1	3101	1132.026987699126	72
1	3102	1132.484144137127	72
1	3107	1133.846941793502	72
1	3112	1136.259649158021	73
1	3116	1139.612355844635	73
1	3122	1141.848382678598	73
1	3124	1142.513251921628	74
1	3130	1144.334656239602	74
1	3132	1145.978323473893	74
1	3133	1146.090534789266	74
1	3134	1146.59951034928	73
1	3138	1146.950372006421	73
1	3142	1148.802606966792	74
1	3145	1151.474600483422	74
1	3146	1152.016493714795	73
1	3148	1152.71183427198	73
1	3150	1152.766026186123	74
1	3151	1153.692103317019	74
1	3158	1154.579814616579	73
1	3160	1154.88490038086	73
1	3161	1155.849374323519	73
1	3162	1156.804592657505	72
1	3163	1157.689655318517	71
1	3165	1158.001504883316	71
1	3166	1158.305774584782	71
1	3167	1159.443579959898	70
1	3168	1160.190813148534	69
1	3170	1163.592157065801	69
1	3172	1164.55474890374	70
1	3176	1164.613537766411	71
1	3178	1164.68268370705	72
1	3180	1165.527461364725	72
1	3181	1166.644963232973	71
1	3183	1167.35573012158	71
1	3187	1169.147152015779	71
1	3188	1169.264497861705	70
1	3190	1170.580561848099	70
1	3192	1171.293114786565	71
1	3199	1173.629217121772	72
1	3206	1174.273708125286	73
1	3208	1174.963128541743	74
1	3211	1176.501712514481	74
1	3212	1178.368808982694	73
1	3213	1178.487763208268	72
1	3214	1178.849645441969	71
1	3216	1178.968934893109	71
1	3217	1179.463596210203	71
1	3219	1180.52095175728	71
1	3220	1182.569560364482	71
1	3221	1183.988633115955	70
1	3222	1184.730381999459	69
1	3226	1187.04420014883	69
1	3228	1187.104838151727	70
1	3231	1188.669993977843	71
1	3233	1190.2896883669	72
1	3235	1190.367449212649	73
1	3236	1190.508369081446	73
1	3238	1191.745664416693	73
1	3240	1191.853451626741	74
1	3241	1192.475719160602	74
1	3243	1192.639178718585	74
1	3245	1193.320891103147	75
1	3247	1195.069822304929	76
1	3249	1197.618966104707	77
1	3250	1198.811104312334	77
1	3251	1199.85525637812	76
1	3252	1200.43838649685	75
1	3253	1200.814459104825	74
1	3254	1200.999449305295	73
1	3255	1201.609020120202	72
1	3257	1201.636541593314	72
1	3259	1203.321550904249	73
1	3261	1204.101854617162	74
1	3262	1204.431877052294	74
1	3267	1205.671311043717	74
1	3272	1207.000067199529	75
1	3273	1207.109917530466	75
1	3274	1207.109984702654	74
1	3276	1208.403141669778	74
1	3280	1209.268085083843	74
1	3282	1211.076267268146	74
1	3289	1211.960191348143	74
1	3290	1215.206801324576	73
1	3294	1216.365988240812	73
1	3308	1220.39385033879	73
1	3310	1220.951430357199	73
1	3312	1220.957145768678	74
1	3314	1221.173535523315	75
1	3318	1222.964527060426	75
1	3322	1223.494350007251	74
1	3323	1224.599296030023	73
1	3324	1225.296353355201	72
1	3325	1225.884683096433	71
1	3327	1226.110625092725	71
1	3329	1226.116216505286	72
1	3339	1228.10558622697	73
1	3345	1230.020234004753	74
1	3347	1230.266485671664	75
1	3349	1230.95208529455	76
1	3351	1231.405985706568	77
1	3352	1231.507367992055	77
1	3354	1231.572097727907	77
1	3356	1233.169800092022	78
1	3357	1233.466541804026	78
1	3359	1234.606058741965	78
1	3361	1234.980327140348	79
1	3363	1235.122918219855	80
1	3365	1237.167909779394	81
1	3366	1237.267120778184	81
1	3367	1237.501858273606	80
1	3369	1238.298104535358	80
1	3373	1241.167302377978	80
1	3375	1241.194847191105	80
1	3377	1241.875708308421	81
1	3378	1242.88298264367	81
1	3379	1244.113169824114	80
1	3381	1245.215847319917	80
1	3383	1245.437136801802	81
1	3384	1245.557869343351	81
1	3386	1246.490830421404	81
1	3390	1247.898321301615	82
1	3392	1248.010336557168	83
1	3394	1248.111166768143	84
1	3396	1248.476683936482	84
1	3397	1250.61968244653	83
1	3398	1251.140207423223	82
1	3400	1251.865438882582	82
1	3401	1251.8882840014	82
1	3408	1252.876678326489	82
1	3410	1254.668967573958	82
1	3411	1254.717194515796	81
1	3415	1255.697133822847	81
1	3417	1256.160457772641	81
1	3425	1257.729259765881	81
1	3427	1258.095639851069	82
1	3428	1259.257305732748	82
1	3436	1265.161130349586	82
1	3440	1268.061975397416	83
1	3445	1268.719054139223	84
1	3447	1269.768423001587	84
1	3448	1270.534180898485	83
1	3449	1270.777244759263	82
1	3451	1270.783068334513	82
1	3452	1271.233093808964	82
1	3454	1272.2308009988	82
1	3455	1272.296679025356	82
1	3456	1272.413259152738	81
1	3457	1272.71718542376	80
1	3458	1272.849439045857	79
1	3459	1274.180605369951	78
1	3463	1275.210177125715	77
1	3465	1275.900813967095	77
1	3467	1276.533548106396	78
1	3472	1277.826885403907	79
1	3473	1279.311372630988	79
1	3475	1279.666308166426	79
1	3482	1281.756423674422	79
1	3484	1281.782399552625	79
1	3486	1281.846486426552	80
1	3487	1282.299724422672	80
1	3489	1282.940505775275	80
1	3491	1283.261186659483	81
1	3496	1284.517470712748	82
1	3497	1284.595381577292	82
1	3501	1287.82166851188	81
1	3502	1288.36465578651	80
1	3503	1293.058671512632	79
1	3504	1293.132842146248	78
1	3508	1294.186718832733	78
1	3515	1295.325415645819	79
1	3521	1296.695684327919	79
1	3522	1296.769933000043	78
1	3523	1297.940041976491	77
1	3524	1298.644299731426	76
1	3526	1298.896914887178	76
1	3531	1300.808505415721	77
1	3533	1300.810134408457	78
1	3538	1304.649259975276	79
1	3539	1304.734904467538	79
1	3541	1305.008391959182	79
1	3542	1305.428889529097	79
1	3547	1306.185587104708	79
1	3555	1310.88244644422	80
1	3556	1311.536792031586	80
1	3563	1314.752024427876	80
1	3565	1314.854783511991	81
1	3577	1318.881458249977	82
1	3587	1320.509683598042	83
1	3589	1323.018749723587	83
1	3593	1323.701675749614	82
1	3595	1323.879340206705	82
1	3600	1324.631210738219	83
1	3602	1325.407296267045	84
1	3603	1326.92727002094	84
1	3614	1332.394336714748	84
1	3619	1334.154256241227	85
1	3620	1334.444939218658	85
1	3621	1334.939683948214	84
1	3622	1335.052143248802	83
1	3623	1335.29708879326	82
1	3625	1335.86274318525	82
1	3626	1336.067203720998	82
1	3627	1336.127693312403	81
1	3629	1336.52450799504	81
1	3630	1336.592613897007	81
1	3635	1337.667400451701	81
1	3640	1338.462268982288	82
1	3641	1338.496131767369	82
1	3643	1339.138741748332	82
1	3644	1340.268091467028	82
1	3648	1341.119915662112	81
1	3652	1341.79414641643	80
1	3653	1343.153849189537	79
1	3655	1343.444852891924	79
1	3659	1345.344094393929	80
1	3664	1346.701063845458	80
1	3665	1347.134600084125	79
1	3666	1347.581548663913	78
1	3668	1350.070247465161	78
1	3670	1350.879772198858	79
1	3677	1352.646485024426	80
1	3682	1354.507684684602	80
1	3683	1354.674188475677	79
1	3684	1354.894064211191	78
1	3685	1354.895644117723	77
1	3692	1356.568417717146	76
1	3693	1357.821333504772	75
1	3694	1358.465980777333	74
1	3696	1358.670091402586	74
1	3698	1359.11488688887	75
1	3700	1359.608852393095	76
1	3701	1359.807879658936	76
1	3703	1360.037476143857	76
1	3705	1360.191549376852	77
1	3706	1360.541327882964	77
1	3707	1360.894950807815	76
1	3712	1362.965539032425	76
1	3713	1363.502312529117	76
1	3721	1364.514432559131	76
1	3722	1364.850335666138	76
1	3726	1365.616565605587	76
1	3728	1366.362109901964	76
1	3732	1369.329759934679	75
1	3734	1370.88456347681	75
1	3736	1371.259688131437	76
1	3740	1371.565610997268	77
1	3742	1372.949293321922	77
1	3744	1373.234226318883	77
1	3745	1373.534222802197	77
1	3749	1375.263392170812	77
1	3754	1379.387824204198	77
1	3755	1379.462483551067	76
1	3756	1380.560315680079	75
1	3760	1381.458910487033	74
1	3762	1381.491229473054	74
1	3764	1382.478744191834	75
1	3766	1382.549037990057	76
1	3767	1382.91041466517	76
1	3768	1383.076854649153	75
1	3769	1384.018426990594	74
1	3776	1385.317786479337	74
1	3784	1387.02737055033	75
1	3790	1388.974842963367	76
1	3803	1392.086613358916	76
1	3804	1393.269888649055	75
1	3806	1393.561333348732	75
1	3808	1394.03876780119	76
1	3810	1394.216000551249	77
1	3811	1394.310902508202	77
1	3815	1397.354634613003	76
1	3823	1398.756065970401	76
1	3824	1399.116959708793	76
1	3825	1399.693398235707	75
1	3827	1400.31504609908	75
1	3829	1400.673761499594	76
1	3830	1401.103704472673	76
1	3832	1401.286810355328	76
1	3834	1401.495948041023	77
1	3835	1401.838978813409	77
1	3839	1403.692826985001	76
1	3841	1404.21591590843	76
1	3843	1404.897552442237	77
1	3844	1406.47455785806	77
1	3845	1407.605933168501	76
1	3847	1408.127720399638	76
1	3851	1408.991397140938	77
1	3859	1413.196226260391	77
1	3860	1413.892794547012	76
1	3861	1414.390548897555	75
1	3866	1415.70346997315	75
1	3867	1415.80399222386	75
1	3869	1416.09187298537	75
1	3880	1417.970660925285	76
1	3884	1420.432076235813	77
1	3886	1420.446763177663	78
1	3891	1421.635259989396	78
1	3893	1422.110299658339	78
1	3894	1422.592835198909	78
1	3898	1424.594236102262	77
1	3900	1424.924831194642	77
1	3901	1425.53253431876	77
1	3905	1426.002134757614	76
1	3912	1429.103989409577	76
1	3915	1429.354736452576	77
1	3917	1429.504092209543	78
1	3921	1431.616158092525	78
1	3922	1431.752792558473	77
1	3924	1431.906817520446	77
1	3926	1432.105546850438	78
1	3934	1433.401666011054	79
1	3936	1433.431234942208	80
1	3938	1433.800868755111	81
1	3946	1435.422646369536	82
1	3951	1436.022582801367	83
1	3952	1436.992520124554	83
1	3953	1437.458668883984	82
1	3955	1438.394749622727	82
1	3960	1439.657952609713	83
1	3961	1441.647187799184	83
1	3963	1441.750281626094	83
1	3965	1442.735366739411	84
1	3969	1444.377305516612	84
1	3970	1444.39372797524	83
1	3972	1445.158799375587	83
1	3974	1445.288381135194	84
1	3979	1448.108061186858	85
1	3981	1448.421383748512	86
1	3982	1448.668326761167	86
1	3989	1451.215052936338	85
1	3994	1452.046343845586	85
1	4004	1456.5233610227	85
1	4008	1458.204808581702	84
1	4010	1458.297126044003	84
1	4011	1458.521183065157	84
1	4013	1458.53765261864	84
1	4015	1458.566738415544	85
1	4016	1458.99391613359	85
1	4018	1462.080304544081	85
1	4020	1462.646341614506	86
1	4021	1464.396734150297	86
1	4023	1464.619974660901	86
1	4024	1465.062925146315	86
1	4026	1465.364000038382	86
1	4028	1465.850689603726	87
1	4030	1466.792669003795	88
1	4032	1467.329159113815	89
1	4033	1467.390062171819	89
1	4037	1468.379635460977	88
1	4039	1468.710484729991	88
1	4043	1469.957678310239	88
1	4044	1470.395108907787	87
1	4048	1471.848017812498	87
1	4051	1473.449143713438	88
1	4053	1474.123385907918	89
1	4057	1475.953346313782	89
1	4062	1478.500452171466	89
1	4063	1478.819186273734	89
1	4065	1479.006583128139	89
1	4066	1480.763304967402	89
1	4068	1481.007004518536	89
1	4069	1483.010212268394	89
1	4071	1483.139767189405	89
1	4073	1483.240775665668	90
1	4075	1484.489287370005	91
1	4083	1486.218470042615	92
1	4090	1487.812448722219	92
1	4091	1488.29753582773	91
1	4095	1488.853434716249	90
1	4097	1489.314823458482	90
1	4099	1489.421775539472	91
1	4101	1489.42726245034	92
1	4102	1489.702413619884	92
1	4104	1490.475988916983	92
1	4105	1490.65979647182	92
1	4111	1491.534972837234	92
1	4113	1492.067451739923	93
1	4116	1494.221819446293	93
1	4117	1495.399930882077	92
1	4121	1496.288220431298	91
1	4131	1500.063411396599	90
1	4138	1503.75101963384	89
1	4142	1505.009872804856	89
1	4147	1506.554107893198	90
1	4150	1508.235273993646	91
1	4152	1508.604516515931	92
1	4154	1508.764883602927	93
1	4155	1509.74416100392	93
1	4157	1510.928310877926	93
1	4159	1512.729183506308	94
1	4160	1513.364989185271	94
1	4162	1513.897903089453	94
1	4163	1514.869217797441	94
1	4167	1518.546212014148	93
1	4168	1519.426073653894	92
1	4169	1520.063881283024	91
1	4182	1523.883479019754	90
1	4184	1524.040788047199	90
1	4186	1524.170188478266	91
1	4190	1525.009601697919	92
1	4195	1526.343981735957	92
1	4197	1526.781825808589	92
1	4198	1527.291511920832	92
1	4199	1527.579151738927	91
1	4201	1527.707612078656	91
1	4205	1528.827662589869	92
1	4207	1528.916729849407	93
1	4210	1531.526061495332	94
1	4212	1532.390749855179	95
1	4213	1532.700174938341	95
1	4214	1533.416497115484	94
1	4218	1535.356500196916	93
1	4220	1535.415471197235	93
1	4221	1535.915142390258	93
1	4222	1536.39583690248	92
1	4226	1538.011789622813	91
1	4228	1538.696357123622	91
1	4230	1539.159351252674	92
1	4234	1540.543159119733	93
1	4242	1543.55213435795	93
1	4246	1544.980883390646	92
1	4248	1545.301100779977	92
1	4250	1545.877892384888	93
1	4255	1549.503013935105	94
1	4259	1553.19349081569	94
1	4261	1553.862574516097	94
1	4262	1553.880934172465	94
1	4264	1554.056556823488	94
1	4269	1554.287117853002	95
1	4271	1555.468156265256	96
1	4272	1556.567071267892	96
1	4274	1557.531361732122	96
1	4276	1558.068753368491	97
1	4277	1558.711165865724	97
1	4278	1559.515951377249	96
1	4280	1560.352340713716	96
1	4281	1560.442066717438	96
1	4285	1561.375848317347	95
1	4286	1561.861081336083	94
1	4287	1563.152658298554	93
1	4288	1563.271904539829	92
1	4289	1564.496424704107	91
1	4290	1565.97821875558	90
1	4292	1567.604791667979	90
1	4294	1567.880894328815	91
1	4298	1568.783891871693	92
1	4306	1575.172177796799	93
1	4309	1575.587187171618	94
1	4316	1578.164726668326	94
1	4317	1578.598519424826	93
1	4321	1579.511728725249	92
1	4323	1580.022247004063	92
1	4325	1580.50286911867	93
1	4327	1581.432887877802	94
1	4328	1581.675283472346	94
1	4333	1582.949234294175	94
1	4338	1585.225293357807	95
1	4339	1585.661911409543	95
1	4344	1588.157002837373	95
1	4345	1588.450392004519	95
1	4346	1588.648651767297	94
1	4348	1589.050548337527	94
1	4349	1590.043020940696	94
1	4350	1590.561519795277	93
1	4355	1593.261433241415	93
1	4356	1593.788161262973	93
1	4358	1593.932118401941	93
1	4360	1594.88327119853	94
1	4361	1595.069974454464	94
1	4362	1596.71280687987	93
1	4370	1598.159262475512	93
1	4372	1598.784889034817	94
1	4374	1599.697264167543	95
1	4376	1600.715555433133	96
1	4377	1601.081362384911	96
1	4381	1601.242450805395	96
1	4387	1602.896347848996	97
1	4388	1603.057722374137	97
1	4390	1603.082266164189	97
1	4391	1603.116102416234	97
1	4395	1605.489500665313	96
1	4397	1606.348556405198	96
1	4410	1609.827224873607	97
1	4412	1611.525290256732	97
1	4417	1613.09398226973	97
1	4421	1614.603050518078	97
1	4423	1615.153959138674	97
1	4424	1617.087647853216	97
1	4425	1617.268585507586	96
1	4426	1618.664267734168	95
1	4428	1619.263492592046	95
1	4432	1620.039490563411	96
1	4434	1621.399597751365	96
1	4438	1624.074234211671	95
1	4439	1624.1903232223	94
1	4440	1626.29800526984	93
1	4447	1628.682347957324	92
1	4448	1628.802694551405	91
1	4452	1629.486621750523	90
1	4453	1629.843957110878	89
1	4454	1630.634277804475	88
1	4455	1631.388098103913	87
1	4456	1631.818490774637	86
1	4458	1632.487789879011	86
1	4463	1633.187788434639	87
1	4464	1634.208691934968	87
1	4465	1634.314151338151	86
1	4467	1635.413521044417	86
1	4468	1636.215680483352	86
1	4469	1636.913169373455	85
1	4471	1636.943559731241	85
1	4473	1638.346329642687	86
1	4478	1638.789082947975	87
1	4483	1639.920335407595	88
1	4485	1640.805158232385	89
1	4487	1640.9036537247	90
1	4489	1641.049499299311	91
1	4493	1642.569460842509	91
1	4494	1642.575533944737	90
1	4496	1642.72256746104	90
1	4497	1642.804554074987	90
1	4499	1643.173228060301	90
1	4506	1648.016480129065	90
1	4510	1648.264225592896	90
1	4512	1648.74653918693	91
1	4515	1650.095269180076	92
1	4517	1650.916965018478	93
1	4524	1652.572824416837	94
1	4529	1654.565328315186	95
1	4537	1658.394701031745	95
1	4538	1659.36436389608	94
1	4539	1662.936500022669	93
1	4540	1663.585407897758	92
1	4542	1663.651995027319	92
1	4544	1665.738608604595	93
1	4545	1666.172022502872	93
1	4547	1667.526445663763	93
1	4548	1667.642476774693	93
1	4552	1670.28104705471	92
1	4553	1670.311000717897	91
1	4554	1670.381408449975	90
1	4561	1672.241451817954	89
1	4562	1673.08171418329	88
1	4564	1673.411485944432	88
1	4566	1673.537742523612	89
1	4567	1674.355252636093	89
1	4574	1675.201590532543	88
1	4576	1676.515240205623	88
1	4577	1676.658393100334	88
1	4579	1677.735147317289	88
1	4581	1677.922304795038	89
1	4582	1678.415292947898	89
1	4583	1678.438800502617	88
1	4584	1678.510609104415	87
1	4585	1680.43583202037	86
1	4596	1683.13904611493	86
1	4600	1683.616366776382	87
1	4605	1689.201314679828	88
1	4607	1689.964172887465	88
1	4609	1690.550123734978	88
1	4611	1691.65258242797	89
1	4613	1691.981147543483	90
1	4614	1692.94607670496	90
1	4616	1693.352062016646	90
1	4617	1693.828025990653	90
1	4619	1695.341557736773	90
1	4623	1697.057660919185	90
1	4624	1697.159549085154	89
1	4626	1697.798809540095	89
1	4628	1698.050486677326	90
1	4629	1698.512641075012	90
1	4630	1698.534869817842	89
1	4632	1698.708218846491	89
1	4637	1700.36262948541	90
1	4639	1700.81840236099	91
1	4640	1700.898352355905	91
1	4642	1701.367070105887	91
1	4644	1701.918585649063	92
1	4645	1702.485396324134	92
1	4647	1702.546823361021	92
1	4649	1702.768483438365	93
1	4650	1703.124214846665	93
1	4651	1704.404416052945	92
1	4652	1706.236064066506	91
1	4656	1707.718304010745	90
1	4658	1710.003060727594	90
1	4659	1710.455413258918	90
1	4660	1711.093102781773	89
1	4661	1712.025501616046	88
1	4663	1712.661051419655	88
1	4665	1713.109446261963	89
1	4667	1713.733417698989	90
1	4671	1714.440119852435	90
1	4673	1714.668513732937	90
1	4677	1715.141391330824	91
1	4685	1720.12110972802	91
1	4690	1723.150939458403	91
1	4692	1723.369873548076	92
1	4693	1724.058204829798	92
1	4694	1724.833945209404	91
1	4698	1725.307792668424	91
1	4700	1726.647864377188	91
1	4702	1727.351832524723	91
1	4706	1728.250079386405	92
1	4708	1728.635895258425	93
1	4710	1729.33094958624	93
1	4712	1730.387552030502	93
1	4716	1731.08763113782	94
1	4718	1731.169618854764	95
1	4720	1733.020721462818	95
1	4721	1734.526425436149	94
1	4731	1738.704610053803	94
1	4733	1739.095037727774	95
1	4735	1739.507047057258	96
1	4737	1740.699201742433	96
1	4739	1742.1183573972	96
1	4744	1743.106899490928	97
1	4751	1745.125872361336	98
1	4753	1745.147623228932	99
1	4758	1749.58652744664	99
1	4769	1754.584016820695	99
1	4770	1754.719169267835	99
1	4774	1755.555431067249	99
1	4776	1755.869420781907	99
1	4777	1756.941587297717	98
1	4778	1758.876567700062	97
1	4779	1759.272205286815	96
1	4780	1759.966504846528	95
1	4785	1761.522769108267	95
1	4786	1762.693352317887	95
1	4788	1763.098934690036	95
1	4789	1764.411444137161	95
1	4794	1768.936550868549	95
1	4805	1772.186041995453	96
1	4810	1772.459472140809	97
1	4812	1772.976067714215	98
1	4816	1776.500671728982	98
1	4817	1778.408993581694	97
1	4818	1778.887141908793	96
1	4822	1778.9395011544	96
1	4831	1784.857204048561	97
1	4832	1785.539414296632	97
1	4836	1787.454028184955	96
1	4837	1790.631463926768	95
1	4839	1790.869407825285	95
1	4844	1793.804673826462	96
1	4846	1793.839242716777	97
1	4847	1795.361547354661	97
1	4848	1795.406468384984	96
1	4850	1795.821456851408	96
1	4851	1796.927993450747	96
1	4852	1798.788783415946	95
1	4859	1801.466996392233	95
1	4864	1802.623758568251	95
1	4865	1802.643164901166	94
1	4866	1802.661601078511	93
1	4868	1802.777749989145	93
1	4873	1803.678320346875	94
1	4877	1808.237618542186	94
1	4878	1809.228063846984	93
1	4882	1811.424190585178	92
1	4883	1811.605171138296	91
1	4890	1814.518497279832	91
1	4895	1815.654298567111	92
1	4904	1817.920341654414	93
1	4905	1819.432730986668	93
1	4906	1819.727867473455	92
1	4910	1821.602619705146	91
1	4912	1821.800805093486	91
1	4916	1822.204468239519	92
1	4924	1823.944579991599	92
1	4925	1825.291216242206	91
1	4929	1825.579939325414	90
1	4931	1825.669006100344	90
1	4936	1827.056195072052	91
1	4938	1827.56322258996	92
1	4939	1829.199060028822	92
1	4941	1829.968243938479	92
1	4946	1831.628848233021	93
1	4947	1832.111885049504	93
1	4951	1832.293217926977	93
1	4953	1833.206241174475	93
1	4954	1835.083486628419	92
1	4955	1835.518720755814	91
1	4956	1836.82304154984	90
1	4960	1837.68571177611	90
1	4962	1837.988360760103	90
1	4964	1838.198106259703	90
1	4966	1839.441905476645	91
1	4967	1839.857914048763	91
1	4969	1840.890584332173	91
1	4971	1841.021620846284	92
1	4975	1841.622280242424	92
1	4976	1843.251570520243	91
1	4978	1844.124150654504	91
1	4980	1845.213947688133	92
1	4985	1847.501768037152	93
1	4989	1848.67093789512	93
1	4990	1851.023952010004	92
1	4991	1851.333722611585	91
1	4992	1851.351535941751	90
1	4997	1853.050068281091	90
1	4998	1853.282307038307	90
1	4999	1853.853973202498	89
1	5001	1854.916535208999	89
1	5003	1855.142543980325	90
1	5007	1857.341053800988	90
1	5009	1857.395445610642	90
1	5013	1860.280733766301	90
1	5015	1860.478177600318	90
1	5016	1861.69029540031	90
1	5017	1862.904031759386	89
1	5018	1863.951808537384	88
1	5019	1864.727636656495	87
1	5020	1865.291125862747	86
1	5021	1866.130963633941	85
1	5023	1866.506017587015	85
1	5024	1866.512546977878	85
1	5025	1867.413375192534	84
1	5026	1867.45648180428	83
1	5027	1869.304849338079	82
1	5028	1871.113395524639	81
1	5032	1871.803544323403	80
1	5034	1871.885670205082	80
1	5035	1874.081961468106	80
1	5048	1876.786592127759	80
1	5057	1878.401320252341	81
1	5064	1880.159466249377	82
1	5067	1880.525601605107	83
1	5069	1880.848593154539	84
1	5073	1882.714145306366	84
1	5081	1885.137507217716	84
1	5082	1885.243327244104	84
1	5086	1885.575124073384	84
1	5092	1886.807769543184	85
1	5103	1891.316423831304	86
1	5108	1892.410727270992	87
1	5109	1893.849374427951	87
1	5113	1894.864967936539	86
1	5115	1895.684536512551	86
1	5117	1895.803480823831	87
1	5119	1896.33610681479	88
1	5121	1896.713582657402	89
1	5123	1896.908072177738	90
1	5127	1897.496420391113	91
1	5129	1897.950052739682	91
1	5134	1899.583606932788	91
1	5141	1900.959646795861	92
1	5143	1901.411879149676	93
1	5145	1901.482530944933	94
1	5147	1902.500884938315	94
1	5148	1903.686308435265	93
1	5159	1907.791379691423	93
1	5160	1908.18884386953	93
1	5161	1908.413938570676	92
1	5165	1910.870743590869	92
1	5167	1911.379000509947	92
1	5168	1912.495683407077	91
1	5174	1913.957307848794	91
1	5177	1914.095803581165	91
1	5181	1915.628009494253	91
1	5184	1916.451928602591	92
1	5185	1917.455557345699	92
1	5189	1918.103702473724	91
1	5190	1920.534524140672	90
1	5191	1921.688679593686	89
1	5192	1922.30831918918	88
1	5193	1922.505913421906	87
1	5194	1922.530135577514	86
1	5196	1922.648956016459	86
1	5197	1923.799067834755	86
1	5198	1924.016819201143	85
1	5199	1926.365112328358	84
1	5204	1932.395423325905	84
1	5205	1932.953936086905	84
1	5206	1934.011528793716	83
1	5208	1934.689295987907	83
1	5210	1935.30456593474	84
1	5214	1936.172039374745	85
1	5225	1940.734958858487	85
1	5226	1941.471169132844	84
1	5227	1942.120409534824	83
1	5228	1944.079474507442	82
1	5230	1944.11031403355	82
1	5231	1945.340037355759	82
1	5239	1948.026502489245	82
1	5241	1948.795060922725	83
1	5243	1950.837012603345	84
1	5244	1951.363015364809	84
1	5246	1951.768213128476	84
1	5247	1952.085228592309	84
1	5248	1952.134433633774	83
1	5249	1952.347644066054	82
1	5253	1953.054052148303	82
1	5256	1953.55528459389	83
1	5260	1955.374490438933	83
1	5261	1957.938847097812	82
1	5263	1958.222148592989	82
1	5268	1958.834338101083	83
1	5270	1960.067431229179	84
1	5272	1961.040231633307	85
1	5277	1962.342397590469	86
1	5281	1962.667437662623	86
1	5291	1966.174597672825	85
1	5292	1969.182383873401	84
1	5293	1971.022703713102	83
1	5294	1971.777258683929	82
1	5296	1972.314799917219	82
1	5298	1973.091368353556	83
1	5299	1973.278000447146	83
1	5301	1975.121337482253	83
1	5303	1975.503721408329	84
1	5304	1976.25222052499	84
1	5305	1977.325951218944	83
1	5306	1977.472525462723	82
1	5307	1978.68178560095	81
1	5316	1980.441018993514	81
1	5322	1981.198976698151	82
1	5324	1981.864124364503	82
1	5325	1983.125631808665	81
1	5326	1983.212664344873	80
1	5327	1983.524759165707	79
1	5328	1983.620942249101	78
1	5329	1984.097869505033	77
1	5330	1984.222639621599	76
1	5332	1984.287462462842	76
1	5334	1984.673178158041	77
1	5341	1987.387143699789	77
1	5342	1987.654742372041	76
1	5343	1987.784333761286	75
1	5348	1988.117169157289	75
1	5350	1989.263346876069	76
1	5351	1991.262910220854	76
1	5353	1992.425975681	76
1	5357	1993.213115455009	77
1	5359	1993.792014000734	78
1	5364	1995.615875456651	79
1	5370	1997.279444593231	80
1	5372	1997.290666106285	81
1	5373	1997.363596166334	81
1	5379	1997.896738224501	81
1	5382	1998.153839888708	81
2	0	0	0
2	4	0.263190767625	1
2	7	1.840463685596	2
2	12	2.742343566179	3
2	22	8.458386285015	4
[...]
10	2657	969.411229428409	78.344767791959
10	2658	969.602575886442	77.880873164522
10	2665	970.946758648385	76.950681621529
10	2670	973.191595344299	75.707408140729
10	2675	976.898288575956	77.556668843171
10	2676	977.559426596515	76.833202729205
10	2683	978.929335105531	76.899758451631
10	2693	983.955171939833	73.764072141745
10	2696	984.367524370177	73.665475750568
10	2707	988.039417244391	72.270043034172
10	2708	989.158225573634	72.598210132736
10	2713	990.236815350293	72.815612099416
10	2718	992.481247986816	74.818851940622
10	2721	993.658110538356	75.30142057482
10	2727	997.465019403213	77.589079351892
10	2754	1004.516012849424	81.443788935917
10	2758	1006.893891338536	82.140128688155
10	2770	1014.893283049718	82.68991232136
10	2783	1019.638397126983	82.754256282002
10	2789	1023.003556512357	85.472792174842
10	2804	1026.916808751039	83.764758259226
10	2808	1028.617831257808	84.7464086811
10	2809	1029.24544292841	84.074557132431
10	2815	1031.563260945683	79.84560929334
10	2816	1032.243112677737	79.264986643231
10	2817	1033.434625703219	78.245988555098
10	2823	1035.461024573899	76.870107212832
10	2826	1037.992467498967	78.322805941113
10	2844	1042.631746808535	79.274471785502
10	2850	1044.556201464003	80.88487087254
10	2854	1046.361199561827	80.340932927652
10	2884	1057.329022734048	85.269498070524
10	2885	1057.648760159382	85.346920281076
10	2889	1058.332239470393	83.74729185145
10	2894	1059.508814532678	81.80405734952
10	2901	1061.602485046891	77.270620332896
10	2902	1062.737899328973	76.870491557129
10	2908	1064.092656863221	76.814825870485
10	2909	1065.975406158387	78.526166466666
10	2910	1066.464777686647	77.165739070244
10	2916	1067.698714319541	76.92392056048
10	2938	1072.388516677633	78.270563402181
10	2947	1076.325830403681	79.646822651243
10	2968	1084.55089682983	83.826413457852
10	2977	1086.273903037531	80.816212638188
10	2978	1087.207147467124	79.47163257106
10	2979	1087.875277860586	79.482260711086
10	2984	1089.868493885701	78.989474198296
10	2992	1091.910381021118	76.17543622654
10	2996	1093.509248680375	77.104040951214
10	2997	1094.392784385667	77.667654558299
10	2998	1094.571382616853	75.473288115733
10	2999	1095.093638245984	73.015382631079
10	3000	1095.912287487211	73.404783671635
10	3022	1105.030820832789	80.666591089555
10	3034	1108.066943499943	78.537959989471
10	3044	1110.190663572683	75.975611179526
10	3045	1110.534769327577	75.490538035137
10	3074	1119.641368847159	77.792962738866
10	3081	1123.679223675124	80.482635215547
10	3084	1124.8267656452	81.62834045611
10	3087	1125.920034156491	80.10643500678
10	3102	1132.484144137127	81.29728650267
10	3116	1139.612355844635	82.875462276802
10	3130	1144.334656239602	86.608288341847
10	3133	1146.090534789266	87.575458524688
10	3134	1146.59951034928	87.179219297579
10	3145	1151.474600483422	91.022009499855
10	3146	1152.016493714795	88.549459189027
10	3151	1153.692103317019	89.932519683487
10	3158	1154.579814616579	87.713137609562
10	3161	1155.849374323519	88.077150704623
10	3162	1156.804592657505	87.047630702036
10	3163	1157.689655318517	87.878980373004
10	3166	1158.305774584782	88.110710145563
10	3167	1159.443579959898	88.722779875277
10	3168	1160.190813148534	89.363161201657
10	3180	1165.527461364725	93.841977910516
10	3181	1166.644963232973	93.968096635815
10	3187	1169.147152015779	94.71649545296
10	3188	1169.264497861705	93.478337112007
10	3211	1176.501712514481	97.561725184829
10	3212	1178.368808982694	97.959476738019
10	3213	1178.487763208268	96.495064166968
10	3214	1178.849645441969	95.649025498325
10	3217	1179.463596210203	95.790261706574
10	3220	1182.569560364482	98.014141527927
10	3221	1183.988633115955	98.011339571546
10	3222	1184.730381999459	96.223238633851
10	3236	1190.508369081446	100.59256213696
10	3241	1192.475719160602	102.450145954
10	3250	1198.811104312334	107.78356279267
10	3251	1199.85525637812	106.54022145332
10	3252	1200.43838649685	103.42305181684
10	3253	1200.814459104825	103.0384993133
10	3254	1200.999449305295	103.05640191407
10	3255	1201.609020120202	103.26178131751
10	3262	1204.431877052294	105.64092277817
10	3273	1207.109917530466	103.37920212717
10	3274	1207.109984702654	102.428907926
10	3280	1209.268085083843	103.73402725483
10	3289	1211.960191348143	103.323955885
10	3290	1215.206801324576	106.32809829224
10	3308	1220.39385033879	105.99367150775
10	3318	1222.964527060426	107.29699063736
10	3322	1223.494350007251	104.46349198257
10	3323	1224.599296030023	105.26341760388
10	3324	1225.296353355201	105.67350466029
10	3325	1225.884683096433	104.41811330808
10	3352	1231.507367992055	106.19649884122
10	3357	1233.466541804026	106.87065146862
10	3366	1237.267120778184	108.23592963536
10	3367	1237.501858273606	105.47487057448
10	3373	1241.167302377978	107.32036058448
10	3378	1242.88298264367	106.91239676854
10	3379	1244.113169824114	107.85352066609
10	3384	1245.557869343351	108.79524786558
10	3396	1248.476683936482	106.62830125788
10	3397	1250.61968244653	108.1064305249
10	3398	1251.140207423223	105.16188394933
10	3401	1251.8882840014	105.02519522907
10	3410	1254.668967573958	101.95713330198
10	3411	1254.717194515796	101.95116832967
10	3417	1256.160457772641	101.27555739178
10	3428	1259.257305732748	94.702556829008
10	3447	1269.768423001587	102.41269288001
10	3448	1270.534180898485	103.09079417038
10	3449	1270.777244759263	100.19668291116
10	3452	1271.233093808964	99.939979022399
10	3455	1272.296679025356	100.07729078205
10	3456	1272.413259152738	98.784042030966
10	3457	1272.71718542376	98.443477298474
10	3458	1272.849439045857	97.886310504114
10	3459	1274.180605369951	95.211670476842
10	3463	1275.210177125715	88.365485582462
10	3473	1279.311372630988	92.206534479261
10	3482	1281.756423674422	91.466735307522
10	3487	1282.299724422672	91.932275210023
10	3497	1284.595381577292	92.741929950551
10	3501	1287.82166851188	94.500777408733
10	3502	1288.36465578651	93.294833481581
10	3503	1293.058671512632	95.439705407925
10	3504	1293.132842146248	91.496300552934
10	3521	1296.695684327919	91.024373284202
10	3522	1296.769933000043	91.09038183578
10	3523	1297.940041976491	90.939974776962
10	3524	1298.644299731426	90.241158061648
10	3539	1304.734904467538	93.44060949674
10	3542	1305.428889529097	93.77892705654
10	3556	1311.536792031586	94.221347227319
10	3589	1323.018749723587	101.21724125758
10	3593	1323.701675749614	97.591050656889
10	3603	1326.92727002094	99.356729539661
10	3620	1334.444939218658	103.03895351209
10	3621	1334.939683948214	103.36758622031
10	3622	1335.052143248802	101.88234315678
10	3623	1335.29708879326	100.6910300513
10	3626	1336.067203720998	101.08687658065
10	3627	1336.127693312403	101.00477509255
10	3630	1336.592613897007	99.424704117613
10	3641	1338.496131767369	97.301284576264
10	3644	1340.268091467028	98.392383158607
10	3648	1341.119915662112	95.68277886031
10	3652	1341.79414641643	94.446854329466
10	3653	1343.153849189537	95.255527887922
10	3664	1346.701063845458	98.589897077315
10	3665	1347.134600084125	95.269161201543
10	3666	1347.581548663913	95.591157349936
10	3682	1354.507684684602	98.947444328357
10	3683	1354.674188475677	98.97705465283
10	3684	1354.894064211191	98.563733814169
10	3685	1354.895644117723	97.737009431102
10	3692	1356.568417717146	98.472777866077
10	3693	1357.821333504772	97.39657906438
10	3694	1358.465980777333	97.155108211465
10	3701	1359.807879658936	94.64674930935
10	3706	1360.541327882964	92.556938255929
10	3707	1360.894950807815	92.832975410399
10	3713	1363.502312529117	92.719244194604
10	3722	1364.850335666138	88.949521699043
10	3728	1366.362109901964	88.778534442686
10	3732	1369.329759934679	89.663451768253
10	3742	1372.949293321922	91.166893769297
10	3745	1373.534222802197	91.687736375645
10	3754	1379.387824204198	95.542011064126
10	3755	1379.462483551067	94.945012838319
10	3756	1380.560315680079	94.692002452063
10	3760	1381.458910487033	87.2721916543
10	3767	1382.91041466517	88.162711434485
10	3768	1383.076854649153	87.751439003334
10	3769	1384.018426990594	87.596760235535
10	3803	1392.086613358916	91.278107943195
10	3804	1393.269888649055	92.459754240598
10	3811	1394.310902508202	91.641644147574
10	3815	1397.354634613003	92.346242653821
10	3824	1399.116959708793	92.703214136278
10	3825	1399.693398235707	92.088631073966
10	3830	1401.103704472673	90.221258028453
10	3835	1401.838978813409	89.737434848492
10	3839	1403.692826985001	88.940802557125
10	3844	1406.47455785806	91.619774346069
10	3845	1407.605933168501	88.724474918524
10	3859	1413.196226260391	92.686542662349
10	3860	1413.892794547012	90.744638847285
10	3861	1414.390548897555	90.51120869085
10	3867	1415.80399222386	91.172781485641
10	3891	1421.635259989396	89.240923274648
10	3894	1422.592835198909	88.999081457384
10	3898	1424.594236102262	88.731492917012
10	3901	1425.53253431876	89.00802632372
10	3905	1426.002134757614	88.334734305913
10	3921	1431.616158092525	92.477416344193
10	3922	1431.752792558473	91.327123382575
10	3952	1436.992520124554	86.922272659393
10	3953	1437.458668883984	86.578896685126
10	3961	1441.647187799184	89.030913381115
10	3969	1444.377305516612	89.463863412095
10	3970	1444.39372797524	85.723636572654
10	3982	1448.668326761167	89.059474368072
10	3989	1451.215052936338	89.709178718682
10	4004	1456.5233610227	92.008928463569
10	4008	1458.204808581702	92.588242976115
10	4011	1458.521183065157	91.256307824913
10	4016	1458.99391613359	88.10935265678
10	4021	1464.396734150297	93.13704601886
10	4024	1465.062925146315	93.510123128176
10	4033	1467.390062171819	95.824451174551
10	4037	1468.379635460977	93.462988560505
10	4043	1469.957678310239	92.859777402541
10	4044	1470.395108907787	89.487038997836
10	4057	1475.953346313782	93.404308323725
10	4063	1478.819186273734	93.501399794397
10	4066	1480.763304967402	93.735934417072
10	4069	1483.010212268394	94.035369305027
10	4090	1487.812448722219	94.251115373487
10	4091	1488.29753582773	94.25876802654
10	4095	1488.853434716249	92.6143353099
10	4102	1489.702413619884	91.777316413059
10	4105	1490.65979647182	92.189636258563
10	4116	1494.221819446293	93.906773347213
10	4117	1495.399930882077	94.726169382483
10	4121	1496.288220431298	94.792272390275
10	4131	1500.063411396599	95.847495488169
10	4138	1503.75101963384	95.623299234202
10	4155	1509.74416100392	98.457876550513
10	4160	1513.364989185271	98.577771921189
10	4163	1514.869217797441	99.165747824291
10	4167	1518.546212014148	102.12960091627
10	4168	1519.426073653894	102.84934714675
10	4169	1520.063881283024	102.09322035774
10	4182	1523.883479019754	103.43671584209
10	4195	1526.343981735957	103.70460546543
10	4198	1527.291511920832	102.36668072619
10	4199	1527.579151738927	101.95535515292
10	4213	1532.700174938341	103.59618552876
10	4214	1533.416497115484	104.06176066291
10	4218	1535.356500196916	105.69099091889
10	4221	1535.915142390258	104.00832486981
10	4222	1536.39583690248	104.29029005204
10	4226	1538.011789622813	104.61012361176
10	4242	1543.55213435795	109.75126560284
10	4246	1544.980883390646	110.67080744745
10	4259	1553.19349081569	117.17090801432
10	4262	1553.880934172465	115.48618454974
10	4272	1556.567071267892	116.90911865818
10	4277	1558.711165865724	116.96088423963
10	4278	1559.515951377249	116.78058463784
10	4281	1560.442066717438	116.51130199283
10	4285	1561.375848317347	116.08746718215
10	4286	1561.861081336083	114.8335669847
10	4287	1563.152658298554	115.0445971117
10	4288	1563.271904539829	114.85052079132
10	4289	1564.496424704107	115.82565944962
10	4290	1565.97821875558	116.60285294502
10	4316	1578.164726668326	121.57689019403
10	4317	1578.598519424826	120.30139338082
10	4321	1579.511728725249	120.9449903097
10	4328	1581.675283472346	119.59497892826
10	4339	1585.661911409543	120.29791137116
10	4345	1588.450392004519	121.65772300072
10	4346	1588.648651767297	121.31949265348
10	4349	1590.043020940696	122.06203132875
10	4350	1590.561519795277	121.85103506529
10	4356	1593.788161262973	122.09031013745
10	4361	1595.069974454464	123.22195664197
10	4362	1596.71280687987	123.26366316643
10	4377	1601.081362384911	123.36550475144
10	4388	1603.057722374137	122.0507178556
10	4391	1603.116102416234	119.97633522683
10	4395	1605.489500665313	121.00021329531
10	4412	1611.525290256732	122.10351471726
10	4421	1614.603050518078	123.74331386554
10	4424	1617.087647853216	125.55267501598
10	4425	1617.268585507586	125.20113376766
10	4426	1618.664267734168	122.78200122217
10	4434	1621.399597751365	120.21552774296
10	4438	1624.074234211671	119.06436140681
10	4439	1624.1903232223	118.09423838432
10	4440	1626.29800526984	119.74389737664
10	4447	1628.682347957324	119.9174643544
10	4448	1628.802694551405	117.87438367348
10	4452	1629.486621750523	115.58871866107
10	4453	1629.843957110878	114.77576958212
10	4454	1630.634277804475	110.51868991058
10	4455	1631.388098103913	109.11972182275
10	4456	1631.818490774637	107.77770272744
10	4464	1634.208691934968	109.44048709291
10	4465	1634.314151338151	109.30454964023
10	4468	1636.215680483352	110.3775670577
10	4469	1636.913169373455	110.13134356487
10	4493	1642.569460842509	113.6527309931
10	4494	1642.575533944737	111.04947244941
10	4497	1642.804554074987	110.41380421981
10	4506	1648.016480129065	110.86505647913
10	4537	1658.394701031745	113.09360025177
10	4538	1659.36436389608	113.48647151119
10	4539	1662.936500022669	114.26828727754
10	4540	1663.585407897758	114.08239396265
10	4545	1666.172022502872	115.39730717379
10	4548	1667.642476774693	113.7799022586
10	4552	1670.28104705471	116.16711445092
10	4553	1670.311000717897	116.0238828649
10	4554	1670.381408449975	114.91325218472
10	4561	1672.241451817954	111.88911110424
10	4562	1673.08171418329	111.90212536549
10	4567	1674.355252636093	106.75046096811
10	4574	1675.201590532543	106.62470421906
10	4577	1676.658393100334	107.87450122864
10	4582	1678.415292947898	108.73976760355
10	4583	1678.438800502617	103.69261137743
10	4584	1678.510609104415	103.33843130762
10	4585	1680.43583202037	104.84864484875
10	4607	1689.964172887465	108.53128500966
10	4614	1692.94607670496	110.98067379289
10	4617	1693.828025990653	110.87879169648
10	4623	1697.057660919185	111.83236756138
10	4624	1697.159549085154	110.1011166489
10	4629	1698.512641075012	110.35563823764
10	4630	1698.534869817842	109.48432148032
10	4640	1700.898352355905	107.63691911449
10	4645	1702.485396324134	108.55327792219
10	4650	1703.124214846665	108.24094364814
10	4651	1704.404416052945	107.4356483923
10	4652	1706.236064066506	108.95529581018
10	4656	1707.718304010745	108.93341497593
10	4659	1710.455413258918	110.75814909138
10	4660	1711.093102781773	110.37754734864
10	4661	1712.025501616046	110.89783229708
10	4671	1714.440119852435	111.94380014513
10	4685	1720.12110972802	113.77255332282
10	4693	1724.058204829798	116.08785669193
10	4694	1724.833945209404	116.46039061505
10	4700	1726.647864377188	116.82063950358
10	4710	1729.33094958624	116.23696731651
10	4720	1733.020721462818	117.86676232414
10	4721	1734.526425436149	115.2629328441
10	4737	1740.699201742433	113.88574063853
10	4758	1749.58652744664	117.09873756763
10	4770	1754.719169267835	117.77560953659
10	4776	1755.869420781907	117.50705685122
10	4777	1756.941587297717	118.15250434974
10	4778	1758.876567700062	119.91474052306
10	4779	1759.272205286815	119.35186987922
10	4780	1759.966504846528	119.16134661414
10	4786	1762.693352317887	121.64385301858
10	4789	1764.411444137161	122.72751809484
10	4816	1776.500671728982	128.40631608307
10	4817	1778.408993581694	130.1447679888
10	4818	1778.887141908793	130.14060272186
10	4832	1785.539414296632	132.9665898798
10	4836	1787.454028184955	132.88869986977
10	4837	1790.631463926768	133.83769963939
10	4847	1795.361547354661	131.70955232734
10	4848	1795.406468384984	129.66785978039
10	4851	1796.927993450747	129.40154778698
10	4852	1798.788783415946	130.53369469826
10	4864	1802.623758568251	129.08601604464
10	4865	1802.643164901166	127.98807603551
10	4866	1802.661601078511	126.14636087289
10	4877	1808.237618542186	127.58042199681
10	4878	1809.228063846984	127.20652428968
10	4882	1811.424190585178	127.9967359901
10	4883	1811.605171138296	127.98880436191
10	4905	1819.432730986668	127.45158344319
10	4906	1819.727867473455	126.37580545681
10	4910	1821.602619705146	125.36692671864
10	4924	1823.944579991599	125.23636114511
10	4925	1825.291216242206	125.77341561015
10	4929	1825.579939325414	124.76153696442
10	4939	1829.199060028822	127.28047437976
10	4947	1832.111885049504	129.34340161114
10	4953	1833.206241174475	123.20318044688
10	4954	1835.083486628419	122.42243520876
10	4955	1835.518720755814	122.40927449385
10	4956	1836.82304154984	123.08962385085
10	4962	1837.988360760103	123.31984702717
10	4967	1839.857914048763	124.91679171341
10	4975	1841.622280242424	125.36425589305
10	4976	1843.251570520243	125.3822749738
10	4989	1848.67093789512	125.30106434704
10	4990	1851.023952010004	126.06450226093
10	4991	1851.333722611585	126.02592994316
10	4992	1851.351535941751	123.99970341703
10	4998	1853.282307038307	125.0322276519
10	4999	1853.853973202498	125.21807794407
10	5007	1857.341053800988	126.66656820766
10	5013	1860.280733766301	129.11111491154
10	5016	1861.69029540031	126.17453608282
10	5017	1862.904031759386	126.80158521912
10	5018	1863.951808537384	126.03263546595
10	5019	1864.727636656495	126.02302660269
10	5020	1865.291125862747	126.19608813497
10	5021	1866.130963633941	126.62391657668
10	5024	1866.512546977878	124.39418958068
10	5025	1867.413375192534	124.5170946763
10	5026	1867.45648180428	124.34958231335
10	5027	1869.304849338079	124.69882403221
10	5028	1871.113395524639	125.9875231633
10	5032	1871.803544323403	120.26142689819
10	5035	1874.081961468106	121.19093663338
10	5073	1882.714145306366	119.61521061633
10	5082	1885.243327244104	116.30677637556
10	5109	1893.849374427951	120.62417390152
10	5113	1894.864967936539	115.92546678214
10	5129	1897.950052739682	113.87960147735
10	5147	1902.500884938315	109.05477856998
10	5148	1903.686308435265	109.8816346088
10	5160	1908.18884386953	107.45471988255
10	5161	1908.413938570676	107.43278157746
10	5167	1911.379000509947	109.21044722912
10	5168	1912.495683407077	109.71793341793
10	5177	1914.095803581165	110.41748323429
10	5185	1917.455557345699	108.1935110156
10	5189	1918.103702473724	104.15696517561
10	5190	1920.534524140672	106.01602686084
10	5191	1921.688679593686	106.03438102657
10	5192	1922.30831918918	106.24654046466
10	5193	1922.505913421906	105.32044786112
10	5194	1922.530135577514	104.6097939231
10	5197	1923.799067834755	102.61427225857
10	5198	1924.016819201143	102.21601410766
10	5199	1926.365112328358	104.24748396693
10	5205	1932.953936086905	109.96468921649
10	5206	1934.011528793716	108.6125378241
10	5225	1940.734958858487	115.06164606849
10	5226	1941.471169132844	114.41497406079
10	5227	1942.120409534824	114.55718694486
10	5228	1944.079474507442	114.11123056896
10	5231	1945.340037355759	114.07940501274
10	5244	1951.363015364809	119.06979743783
10	5247	1952.085228592309	114.89661935816
10	5248	1952.134433633774	114.44872185766
10	5249	1952.347644066054	114.14953780635
10	5260	1955.374490438933	114.35286959265
10	5261	1957.938847097812	116.62577559357
10	5281	1962.667437662623	115.16566962547
10	5291	1966.174597672825	111.25806246383
10	5292	1969.182383873401	114.03983989308
10	5293	1971.022703713102	115.54839571156
10	5294	1971.777258683929	114.38181307329
10	5299	1973.278000447146	114.32742179014
10	5304	1976.25222052499	115.77404292467
10	5305	1977.325951218944	110.81993363193
10	5306	1977.472525462723	106.01847575282
10	5307	1978.68178560095	106.79611539587
10	5324	1981.864124364503	104.56652209818
10	5325	1983.125631808665	104.72431155632
10	5326	1983.212664344873	104.35018655983
10	5327	1983.524759165707	103.70945883086
10	5328	1983.620942249101	103.46147599972
10	5329	1984.097869505033	103.57226789993
10	5330	1984.222639621599	103.37404646706
10	5341	1987.387143699789	102.24963648207
10	5342	1987.654742372041	102.16661220267
10	5343	1987.784333761286	102.2092096879
10	5351	1991.262910220854	103.12087174154
10	5373	1997.363596166334	107.29531845005
10	5382	1998.153839888708	106.3558925886
11	5386	2000	0.453
12	5386	2000	0.4175

