file 362455 1671470870                                          
version 2
run Monotonicity_test_recover_rate-186-20221219-18:27:50-15407
attr configname Monotonicity_test_recover_rate
attr datetime 20221219-18:27:50
attr experiment Monotonicity_test_recover_rate
attr inifile omnetpp.ini
attr iterationvars $0=25
attr iterationvarsf 25-
attr measurement $0=25
attr network Network
attr processid 15407
attr repetition 86
attr replication #86
attr resultdir results
attr runnumber 186
attr seedset 86
param *.minion.arrival_mean 2
param *.minion.service_mean 1.5
param *.boss.arrival_mean 2.5
param *.boss.service_mean 0.5
param *.player.recover_rate_x 25
param **.minion.arrival_distribution 0
param **.minion.service_distribution 0
param **.boss.arrival_distribution 0
param **.boss.service_distribution 0

vector 0 Network.player minion_jobs_number_stat:vector ETV
attr source signal_minion_jobs_number
vector 1 Network.player minion_jobs_queue_number_stat:vector ETV
attr source signal_minion_jobs_queue_number
vector 2 Network.player minion_recovered_stat:vector ETV
attr source signal_minion_recovered
vector 3 Network.player minion_defeated_stat:vector ETV
attr source signal_minion_defeated
vector 4 Network.player boss_jobs_number_stat:vector ETV
attr source signal_boss_jobs_number
vector 5 Network.player boss_jobs_queue_number_stat:vector ETV
attr source signal_boss_jobs_queue_number
vector 6 Network.player boss_defeated_stat:vector ETV
attr source signal_boss_defeated
vector 7 Network.player minion_waiting_time_stat:vector ETV
attr source signal_minion_waiting_time
vector 8 Network.player minion_response_time_stat:vector ETV
attr source signal_minion_response_time
vector 9 Network.player boss_waiting_time_stat:vector ETV
attr source signal_boss_waiting_time
vector 10 Network.player boss_response_time_stat:vector ETV
attr source signal_boss_response_time
vector 11 Network.player minion_throughput:vector ETV
attr source signal_minion_throughput
vector 12 Network.player boss_throughput:vector ETV
attr source signal_boss_throughput
0	1990 26217 0 5323 0 1999.848524514613 985 0 38 11671 212415
1	28207 51874 0 5323 0 1999.848524514613 1952 0 37 21238 378618
2	80081 16560 0 5313 0 1995.908227156333 592 0 591 174936 68983096
3	96641 27095 0 5315 0 1997.595299282277 968 0 967 468028 301878060
4	123736 20816 0 5313 0 1995.908227156333 797 0 4 995 1469
5	144552 41620 0 5314 0 1996.488106746273 1593 0 3 398 550
6	186172 22296 0 5314 0 1996.488106746273 797 0 796 317206 168436386
7	208468 60901 2 5315 0.753422488317 1997.595299282277 1559 0 48.601078576135 21076.113162676 484051.13736893
8	269369 38247 3 5315 1.448683834074 1997.595299282277 967 0.017757436708 50.791009367481 14118.611245454 336324.40343763
9	307616 22944 5 5313 2.251163600486 1995.908227156333 796 0 2.756776907434 85.946293758137 86.72860274966
10	330560 31855 6 5314 2.406101626475 1996.488106746273 796 0.001044301359 3.560684748088 481.8959188889 562.89243906373
11	362415 20 5324 5324 2000 2000 1 0.4835 0.4835 0.4835 0.23377225
12	362435 19 5324 5324 2000 2000 1 0.398 0.398 0.398 0.158404

