version 2
run Monotonicity_test_recover_rate-358-20221219-18:28:25-16275
attr configname Monotonicity_test_recover_rate
attr datetime 20221219-18:28:25
attr experiment Monotonicity_test_recover_rate
attr inifile omnetpp.ini
attr iterationvars $0=75
attr iterationvarsf 75-
attr measurement $0=75
attr network Network
attr processid 16275
attr repetition 58
attr replication #58
attr resultdir results
attr runnumber 358
attr seedset 58
param *.minion.arrival_mean 2
param *.minion.service_mean 1.5
param *.boss.arrival_mean 2.5
param *.boss.service_mean 0.5
param *.player.recover_rate_x 75
param **.minion.arrival_distribution 0
param **.minion.service_distribution 0
param **.boss.arrival_distribution 0
param **.boss.service_distribution 0

vector 0 Network.player minion_jobs_number_stat:vector ETV
attr source signal_minion_jobs_number
vector 1 Network.player minion_jobs_queue_number_stat:vector ETV
attr source signal_minion_jobs_queue_number
vector 2 Network.player minion_recovered_stat:vector ETV
attr source signal_minion_recovered
vector 3 Network.player minion_defeated_stat:vector ETV
attr source signal_minion_defeated
vector 4 Network.player boss_jobs_number_stat:vector ETV
attr source signal_boss_jobs_number
vector 5 Network.player boss_jobs_queue_number_stat:vector ETV
attr source signal_boss_jobs_queue_number
vector 6 Network.player boss_defeated_stat:vector ETV
attr source signal_boss_defeated
vector 7 Network.player boss_waiting_time_stat:vector ETV
attr source signal_boss_waiting_time
vector 8 Network.player boss_response_time_stat:vector ETV
attr source signal_boss_response_time
vector 9 Network.player minion_waiting_time_stat:vector ETV
attr source signal_minion_waiting_time
vector 10 Network.player minion_response_time_stat:vector ETV
attr source signal_minion_response_time
vector 11 Network.player minion_throughput:vector ETV
attr source signal_minion_throughput
vector 12 Network.player boss_throughput:vector ETV
attr source signal_boss_throughput
0	0	0	0
0	4	0.792306177837	1
0	17	3.825803712665	1
0	19	4.675523841243	2
0	22	6.686767147851	2
0	24	6.999620431668	3
0	26	7.820391202698	4
0	32	9.933452867052	4
0	37	11.214108107926	4
0	40	11.957940681905	5
0	43	13.577440393294	5
0	45	14.245859623067	6
0	48	15.614301754247	6
0	55	19.380248993268	2
0	57	19.431475659231	3
0	62	21.086169669329	4
0	64	21.115713353566	5
0	67	21.272213239818	5
0	74	22.917925955662	6
0	78	24.62162722144	6
0	81	26.815356671902	6
0	84	29.200771581415	6
0	88	33.493750491173	5
0	90	33.917364646808	6
0	93	35.413050980281	6
0	95	35.901712558455	7
0	97	36.177117429655	8
0	99	36.354048653585	9
0	102	42.043532648836	9
0	108	43.892934351411	9
0	116	47.596841516323	9
0	119	49.148314661837	10
0	121	51.125923709268	11
0	124	52.23654421246	11
0	129	53.853202661125	12
0	131	54.328342366412	13
0	133	54.634422563016	14
0	149	60.558194976625	13
0	152	60.919057479699	13
0	156	63.351542544129	14
0	165	67.249772345314	15
0	178	71.674930540401	14
0	181	75.000619448102	14
0	186	76.369901695691	15
0	188	76.876600668982	16
0	192	77.508301849478	15
0	194	78.515886482772	16
0	203	80.62103121271	16
0	205	81.956346161232	17
0	216	83.408664695037	15
0	222	85.649425644788	12
0	226	87.252283010963	13
0	228	87.349874368357	14
0	231	88.419279426642	15
0	237	89.409971195084	15
0	241	89.504084082078	16
0	253	95.446690165087	14
0	255	95.458382163294	15
0	257	95.519390158197	16
0	260	96.904249526221	16
0	262	97.56077925308	17
0	264	97.949084128419	18
0	266	98.471462049777	19
0	268	99.857142751367	20
0	270	100.367914101979	21
0	273	101.652972225251	21
0	278	104.335479663146	19
0	283	104.75132800536	20
0	294	106.734223514479	18
0	297	107.395847649893	18
0	303	109.66549024162	18
0	305	110.471972436221	19
0	310	112.584475204004	20
0	315	113.119990659243	20
0	317	113.231055290539	21
0	325	114.921144016803	20
0	330	115.884477825181	21
0	332	116.416167858798	22
0	334	116.482295771483	23
0	340	119.852925250249	20
0	346	123.146397321479	20
0	349	125.349888547413	20
0	359	128.321177317193	19
0	362	130.226875085873	19
0	378	137.695333915515	15
0	381	139.657019833654	15
0	383	140.018651448918	16
0	387	142.172392799949	15
0	392	143.261314985785	16
0	394	143.325392284119	17
0	398	144.047177208748	16
0	401	145.327323629457	16
0	403	145.528421630768	17
0	406	147.095198908788	17
0	408	147.185760496993	18
0	411	147.930196523338	18
0	423	153.593043629015	12
0	430	159.000731510332	11
0	432	160.579022549217	12
0	435	161.081966840538	12
0	438	162.412330216431	12
0	441	165.221588803489	12
0	446	167.724057906356	13
0	448	168.057041292888	14
0	450	169.11841504954	15
0	452	169.560501047083	16
0	464	172.691612892859	15
0	470	174.424010049171	16
0	480	182.865806967889	12
0	494	189.002496794201	10
0	499	189.392158305292	11
0	506	190.388983468451	12
0	509	191.431909625886	13
0	517	192.623688931803	14
0	519	193.017787720467	15
0	522	193.908427861315	15
0	528	196.326776286382	15
0	533	198.944728836223	15
0	535	199.001822844997	16
0	537	199.150483070274	17
0	539	199.405854730414	18
0	542	200.358947603243	19
0	547	201.620512483109	17
0	551	201.993786696271	18
0	554	202.899188553954	19
0	558	204.585142244709	18
0	563	205.857868772458	19
0	567	210.440876779626	20
0	570	211.106601770612	21
0	574	213.055500139171	20
0	582	217.616741330957	20
0	591	221.380265458079	21
0	593	221.92745090075	22
0	598	222.870385951964	22
0	601	224.961251384325	23
0	618	235.829034599031	18
0	620	236.588920677055	19
0	623	238.463895085844	19
0	625	239.912768299909	20
0	629	240.951120310235	19
0	636	242.135003349099	18
0	639	242.965012273121	18
0	663	251.892140720213	9
0	676	259.690016403941	5
0	678	259.801816408378	6
0	682	261.711975730427	7
0	686	263.106804814935	7
0	697	268.218429403724	8
0	718	274.331349948169	5
0	721	276.570183523033	5
0	731	278.450798257054	6
0	734	280.682537741526	7
0	738	283.267259795413	6
0	743	286.66017445217	7
0	749	287.660679984055	8
0	756	291.870820258489	9
0	759	293.033002698216	9
0	767	295.49586846798	10
0	773	296.121695531341	10
0	775	298.056613358632	11
0	780	300.774285638146	12
0	782	301.465487860522	13
0	791	303.71733412545	13
0	795	305.60757759394	12
0	797	305.737866532291	13
0	799	306.172386612218	14
0	801	306.466679152086	15
0	807	308.662716490994	15
0	810	309.508208060175	15
0	821	313.330857336248	16
0	823	314.649925932553	17
0	825	315.231486492596	18
0	828	316.840669435745	18
0	832	317.541668401952	19
0	836	318.033386840822	20
0	843	320.893931168923	18
0	860	329.035996513567	16
0	862	330.034311641293	17
0	871	333.056339141126	14
0	873	334.000716276771	15
0	881	336.394836327435	16
0	897	343.803578352183	12
0	921	349.081567925665	8
0	924	349.972642016069	9
0	937	356.396629413118	5
0	943	358.575607929824	6
0	945	358.884013985759	7
0	948	361.109855177687	8
0	956	364.741441117076	7
0	962	367.447061209154	7
0	968	370.670292113186	7
0	980	376.026150015532	7
0	986	378.494907839413	7
0	989	379.381450021087	7
0	1003	382.839494114096	8
0	1005	384.629789937143	9
0	1007	384.781436112536	10
0	1009	385.584708623213	11
0	1014	388.35107470338	12
0	1016	388.546138882496	13
0	1023	393.105327654878	14
0	1030	397.561053949395	14
0	1038	402.817013561582	12
0	1040	403.022025738071	13
0	1045	404.901863252589	14
0	1047	405.660244332277	15
0	1051	410.145961110463	14
0	1053	410.750250062272	15
0	1061	411.917062529712	16
0	1063	411.918252597073	17
0	1067	414.397290028812	16
0	1076	418.914646259011	16
0	1083	421.724053706575	17
0	1085	421.775616985254	18
0	1087	422.497627860449	19
0	1089	422.649933338059	20
0	1093	423.104359923447	21
0	1096	424.801454661656	22
0	1099	425.41696486693	23
0	1110	428.38176139134	23
0	1116	429.890744139782	21
0	1118	429.903962515964	22
0	1127	434.073517061405	19
0	1131	434.518479675729	20
0	1134	434.846391238635	21
0	1136	434.867552487216	22
0	1144	438.6027231831	20
0	1149	440.34580557216	21
0	1154	442.118839325268	22
0	1157	442.778544662488	22
0	1160	443.525077098882	22
0	1162	443.604875386274	23
0	1166	444.403343708693	24
0	1168	444.483669659329	25
0	1174	446.378920827186	26
0	1187	451.968523341748	22
0	1196	455.697317116473	21
0	1198	455.796684730838	22
0	1201	456.588938540225	23
0	1203	457.458396599766	24
0	1206	457.886011029945	24
0	1208	459.048760423695	25
0	1211	459.653109570917	25
0	1214	460.834405308809	25
0	1217	461.317954419482	25
0	1219	461.938742385385	26
0	1221	462.099652893172	27
0	1232	463.486201222524	25
0	1237	465.58637452952	25
0	1244	468.090228684233	25
0	1252	471.409807209687	25
0	1255	473.064649621872	26
0	1260	474.515131432989	26
0	1262	474.963750953511	27
0	1264	475.040662894568	28
0	1271	477.408056587876	28
0	1273	477.556649350561	29
0	1277	478.182136593846	30
0	1282	479.608193852678	29
0	1295	488.420718690997	27
0	1301	490.332264324726	27
0	1310	494.712105589613	25
0	1314	496.493104975733	24
0	1322	497.231866648667	25
0	1324	497.876717818695	26
0	1328	498.539097915746	27
0	1331	500.389473208706	28
0	1333	501.347163982446	29
0	1335	501.694128316078	30
0	1341	502.404925080862	30
0	1343	502.500817343602	31
0	1354	507.177993000341	32
0	1356	508.016754835635	33
0	1360	509.240514714477	34
0	1366	511.384168220048	35
0	1378	516.378861857151	31
0	1386	519.473757622135	31
0	1394	522.556922168355	31
0	1403	526.220398121098	31
0	1408	526.527821901635	32
0	1419	528.665003490897	31
0	1429	532.398956090179	32
0	1431	533.175743851681	33
0	1439	535.468171072588	34
0	1454	539.515717197062	33
0	1465	546.620737034897	30
0	1476	551.419613463277	30
0	1479	552.664791390765	30
0	1488	556.190151421433	27
0	1500	559.241351935656	27
0	1503	560.300133415203	27
0	1523	569.634902969213	25
0	1525	569.778020104165	26
0	1528	570.769674834642	26
0	1534	576.709114667513	26
0	1541	579.188184244416	25
0	1546	581.703598531693	26
0	1551	584.538485376354	27
0	1565	592.041185705439	25
0	1567	592.372687197471	26
0	1582	597.731111263568	23
0	1585	597.886624902397	23
0	1587	597.977892675056	24
0	1593	599.632438449569	24
0	1595	599.876640758518	25
0	1598	601.018949537586	25
0	1600	601.409297889379	26
0	1608	604.943607171662	24
0	1611	605.790422767605	24
0	1620	611.011278380715	21
0	1629	613.748750162674	21
0	1634	614.437338515987	19
0	1645	617.501433121147	19
0	1649	618.820309210516	19
0	1652	619.658955597384	19
0	1659	622.598844276215	18
0	1662	623.223541668744	18
0	1664	623.418007369174	19
0	1666	623.643861025972	20
0	1669	624.334293885704	20
0	1686	633.428324247895	17
0	1691	636.607380370695	16
0	1695	638.431457310464	17
0	1698	640.20034917391	18
0	1703	641.26144899567	19
0	1705	641.390453253058	20
0	1707	642.467030090919	21
0	1710	643.120185537657	21
0	1712	643.355509259643	22
0	1716	644.643700779091	23
0	1722	645.392333750218	24
0	1726	645.692222934369	25
0	1733	647.137631358938	25
0	1735	647.588303285738	26
0	1751	661.705696731681	22
0	1753	662.752731212973	23
0	1755	663.12688349144	24
0	1766	666.353942895163	22
0	1769	669.183515938752	22
0	1772	669.453463106854	22
0	1774	672.395443179744	23
0	1784	678.237070679288	19
0	1791	682.148434349972	18
0	1795	684.11532582133	17
0	1797	684.216445732243	18
0	1799	684.231754220029	19
0	1808	687.370218403852	16
0	1812	692.787299051837	15
0	1814	693.566993431375	16
0	1821	695.337992185603	12
0	1823	696.708632639095	13
0	1827	697.780598502389	14
0	1836	699.745005379866	15
0	1839	700.852712164858	16
0	1841	700.853696980089	17
0	1844	701.219520108721	18
0	1847	704.115890878688	19
0	1850	705.748138858586	19
0	1863	712.336459768122	18
0	1866	712.802739802057	18
0	1877	717.714747299468	19
0	1882	720.937211489174	20
0	1884	721.063873632572	21
0	1889	723.220236667984	19
0	1898	724.730460664533	19
0	1909	728.24182259546	20
0	1911	729.010023614842	21
0	1913	729.787328324325	22
0	1921	732.819650956929	23
0	1923	733.914743550133	24
0	1927	735.55875882768	23
0	1937	738.123714922735	24
0	1940	738.792750109349	25
0	1946	743.26634691677	25
0	1959	747.801114859438	24
0	1961	748.407863923272	25
0	1963	749.092572654879	26
0	1971	755.452710264394	24
0	1973	758.81499846372	25
0	1975	759.522535313256	26
0	1992	766.426436158022	23
0	1998	771.185264051895	21
0	2006	774.428715899365	22
0	2016	776.952798728042	23
0	2023	779.096495818622	24
0	2030	781.67339657755	25
0	2034	785.707979203492	24
0	2040	789.744373321336	21
0	2047	794.93041502438	20
0	2051	798.283467487641	19
0	2053	798.86846336961	20
0	2065	806.315075918893	17
0	2067	807.062513745633	18
0	2070	812.351450742292	18
0	2084	817.158627045193	13
0	2089	819.013535586829	14
0	2092	820.319562179619	14
0	2094	820.445956507713	15
0	2096	821.148422116017	16
0	2098	821.959013427286	17
0	2103	822.615545176702	18
0	2106	822.964379553262	18
0	2118	829.754013342869	18
0	2136	840.348089645133	15
0	2141	844.940538589814	13
0	2143	846.622299743386	14
0	2158	849.388468441769	13
0	2164	851.340883839307	14
0	2167	852.191410794306	14
0	2169	852.924694251719	15
0	2171	853.193816103899	16
0	2178	854.472571526333	16
0	2191	860.14249937787	17
0	2193	861.006025933171	18
0	2195	862.61869191681	19
0	2203	864.195889845403	20
0	2205	864.644873856962	21
0	2221	869.416111340945	20
0	2224	869.979605658151	20
0	2230	872.485940647342	19
0	2237	875.22269246404	19
0	2256	880.861627564399	20
0	2259	881.311868657639	21
0	2264	882.618609794847	21
0	2271	886.960877037379	21
0	2273	887.416309561022	22
0	2275	887.435474914913	23
0	2284	891.095712690653	20
0	2304	898.962002874014	18
0	2306	899.158824046852	19
0	2311	901.041525972664	20
0	2313	901.17779048627	21
0	2316	901.909389834965	21
0	2318	903.108169561425	22
0	2321	904.042604903273	22
0	2326	905.388540965419	22
0	2329	905.880971957585	23
0	2331	906.33950632874	24
0	2333	906.352205307874	25
0	2336	907.554732929014	25
0	2344	912.284216152835	23
0	2347	913.006606991103	23
0	2349	913.11595902247	24
0	2353	913.263351660051	25
0	2356	913.815341658103	26
0	2358	914.562224766911	27
0	2360	915.956741425845	28
0	2365	917.445280155346	26
0	2377	922.173402103969	23
0	2380	922.611844824504	23
0	2382	924.300629661645	24
0	2391	927.52988461851	21
0	2398	929.286893471288	20
0	2402	934.04753036811	19
0	2411	938.714957375512	16
0	2418	939.253665375269	17
0	2428	941.940522742017	17
0	2432	943.265183913049	18
0	2447	947.696964596104	19
0	2449	947.901351056098	20
0	2451	950.519957328164	21
0	2456	951.698778038457	21
0	2470	959.314381965844	17
0	2474	959.875480483686	18
0	2496	969.917468427365	15
0	2498	970.133423740932	16
0	2508	972.1611866225	17
0	2514	973.11964075049	18
0	2519	975.6581074925	19
0	2523	976.418356450011	20
0	2526	977.401014773341	21
0	2528	977.426327274713	22
0	2530	977.916192660171	23
0	2536	978.459878358809	24
0	2538	978.744054840665	25
0	2540	978.917019559034	26
0	2544	979.422294281301	27
0	2546	979.532806016237	28
0	2548	980.354929814594	29
0	2550	981.07538268505	30
0	2552	981.543682338908	31
0	2562	986.932037661985	29
0	2565	987.470622914066	30
0	2569	988.853285931037	29
0	2574	992.161330287434	30
0	2577	993.410989930526	30
0	2592	1000.659753385959	29
0	2596	1001.542894502759	29
0	2607	1003.494333456239	29
0	2611	1005.454668430879	30
0	2631	1012.618076519849	30
0	2633	1012.856850736079	31
0	2637	1014.017558466807	30
0	2639	1015.982543312292	31
0	2642	1017.922599809289	31
0	2651	1020.608710499783	31
0	2653	1021.123096387555	32
0	2660	1023.911465109091	31
0	2662	1024.821218976082	32
0	2664	1026.511707959657	33
0	2666	1027.692100890361	34
0	2668	1030.281726388612	35
0	2671	1030.437630067313	35
0	2675	1031.478316258834	36
0	2687	1035.343882662468	34
0	2692	1037.673885132148	35
0	2695	1038.518629156577	35
0	2704	1045.937474216307	29
0	2706	1047.103826578646	30
0	2714	1054.714220202457	28
0	2721	1058.294971122334	24
0	2729	1061.518446519069	22
0	2731	1063.912940690965	23
0	2733	1064.011731308939	24
0	2736	1064.922080682577	24
0	2738	1065.268585232415	25
0	2746	1066.776278943129	26
0	2748	1066.826988109907	27
0	2752	1070.738782429057	26
0	2761	1074.012483108599	26
0	2771	1076.527467778584	27
0	2773	1076.661536146529	28
0	2782	1080.347743193046	26
0	2788	1085.195601004313	23
0	2797	1088.605125394093	20
0	2799	1089.750098605262	21
0	2801	1090.644289166601	22
0	2803	1091.080413683497	23
0	2805	1091.662655715043	24
0	2807	1091.854804495952	25
0	2813	1095.387594328225	25
0	2815	1095.662878969626	26
0	2821	1097.893791008547	26
0	2823	1098.288479939986	27
0	2825	1098.403328278941	28
0	2835	1100.428545031812	29
0	2838	1102.263038711975	30
0	2840	1102.556772111493	31
0	2842	1102.619011711195	32
0	2844	1102.91674275146	33
0	2846	1104.632901345375	34
0	2849	1105.813120465486	34
0	2851	1106.563693744296	35
0	2868	1113.679100494446	27
0	2872	1114.798858703609	28
0	2874	1114.916092641362	29
0	2878	1115.571465033105	29
0	2881	1115.889429312399	29
0	2892	1121.466570386735	29
0	2896	1122.424820562994	29
0	2904	1126.874283643725	29
0	2909	1127.762966597373	30
0	2915	1129.097393113303	31
0	2919	1131.077605254214	30
0	2923	1131.714617962687	31
0	2933	1137.56397734427	31
0	2942	1141.146454791418	28
0	2944	1141.349925318685	29
0	2947	1141.64947263424	29
0	2950	1142.133141489909	29
0	2952	1142.59830404699	30
0	2954	1146.315210216294	31
0	2956	1146.540164545617	32
0	2959	1147.729559270312	32
0	2966	1150.888203475758	31
0	2970	1152.261597685188	32
0	2972	1153.650840285871	33
0	2983	1155.204912276852	33
0	2995	1162.718519579072	32
0	2997	1162.830120498795	33
0	3005	1168.587064095511	31
0	3007	1169.097264654068	32
0	3019	1175.764398351672	29
0	3027	1178.207729902891	27
0	3029	1178.208991665953	28
0	3032	1178.65541250038	28
0	3034	1180.400570819391	29
0	3036	1183.044572740583	30
0	3040	1183.512647906069	31
0	3047	1184.427079109338	30
0	3051	1186.633995468629	30
0	3056	1189.748810149891	31
0	3062	1193.598969895943	31
0	3068	1195.008387528875	31
0	3071	1195.941892328811	31
0	3073	1196.291675648356	32
0	3075	1196.366347794894	33
0	3086	1202.355385771025	31
0	3091	1206.898419455533	29
0	3095	1208.16063923729	30
0	3097	1209.042196169398	31
0	3102	1209.973231904988	32
0	3116	1213.654219943854	31
0	3118	1215.843824930394	32
0	3120	1216.377065759224	33
0	3136	1222.501166576533	26
0	3138	1222.986849175101	27
0	3140	1223.125065604813	28
0	3146	1224.560909733757	28
0	3150	1226.00316341525	27
0	3152	1226.225441435475	28
0	3158	1229.520380633656	28
0	3160	1230.505559400262	29
0	3162	1230.899406491369	30
0	3167	1233.468296318165	28
0	3174	1236.288125899353	27
0	3177	1237.342559068505	27
0	3182	1239.728795775433	25
0	3184	1239.840417574317	26
0	3186	1241.357500015027	27
0	3189	1244.382365050369	27
0	3205	1247.643904843532	26
0	3210	1251.452276728259	24
0	3212	1251.887406713137	25
0	3215	1254.509958746009	25
0	3219	1255.336103138196	26
0	3222	1255.760626918799	27
0	3226	1257.452676719056	26
0	3230	1259.937828599381	25
0	3234	1261.592088779012	26
0	3236	1262.376480248999	27
0	3239	1262.795460183355	28
0	3244	1264.016887699006	29
0	3246	1264.037170739062	30
0	3258	1267.317225968893	30
0	3264	1269.325002621085	30
0	3266	1269.86126539021	31
0	3271	1270.775174810562	29
0	3274	1271.626658805928	29
0	3279	1273.779885949186	29
0	3285	1277.8395315041	30
0	3288	1278.404385789191	30
0	3290	1278.693422022563	31
0	3292	1278.711514466608	32
0	3294	1278.976468982211	33
0	3296	1279.733380317355	34
0	3298	1281.606291055666	35
0	3300	1281.756620404801	36
0	3306	1282.777460650811	36
0	3314	1285.805730894775	37
0	3322	1290.70753372825	35
0	3327	1292.891128216923	36
0	3330	1293.312577085556	36
0	3347	1302.889313052148	28
0	3349	1303.048908113284	29
0	3351	1303.4856246707	30
0	3353	1303.699642954196	31
0	3355	1303.736560035526	32
0	3357	1304.118359684543	33
0	3361	1306.463338520349	32
0	3367	1308.223780119746	32
0	3369	1308.652077236531	33
0	3375	1311.723523413628	33
0	3377	1312.296490759543	34
0	3380	1312.945527156619	34
0	3396	1316.603972495123	33
0	3402	1319.75322290733	30
0	3404	1320.591231869426	31
0	3413	1323.365322093239	31
0	3415	1324.053712767214	32
0	3427	1331.806005607388	31
0	3429	1331.909132822671	32
0	3435	1332.517178563418	33
0	3440	1338.795810179974	34
0	3442	1338.92694795333	35
0	3444	1339.19211391746	36
0	3452	1340.133657894847	37
0	3467	1349.738637789555	36
0	3477	1351.468377097421	36
0	3479	1352.977353217191	37
0	3482	1353.751237866328	37
0	3485	1354.590075127777	37
0	3487	1356.318270961522	38
0	3494	1359.034175522126	37
0	3499	1360.934717688205	38
0	3501	1361.886411219481	39
0	3506	1363.622003601852	37
0	3509	1364.621391936059	37
0	3517	1367.469112850808	37
0	3519	1367.622553981337	38
0	3522	1368.519273279261	39
0	3526	1368.675315603135	40
0	3533	1370.884512497388	41
0	3536	1371.824922650841	42
0	3542	1372.783375206479	43
0	3545	1373.565305128482	43
0	3548	1375.597842536671	43
0	3554	1380.517685952432	43
0	3566	1384.333128898249	43
0	3572	1385.459502490134	43
0	3574	1385.590922369747	44
0	3583	1389.39188274896	41
0	3589	1391.161510025809	41
0	3598	1395.988326180306	38
0	3602	1396.817899892653	39
0	3605	1397.748680598465	40
0	3612	1399.95067502721	39
0	3617	1400.076904811862	39
0	3620	1400.316653911755	40
0	3622	1400.359529313416	41
0	3627	1401.846828161029	41
0	3635	1404.501977229008	40
0	3646	1410.829030959412	38
0	3649	1412.122388724199	38
0	3651	1412.296720583812	39
0	3653	1412.457695078795	40
0	3666	1416.769862909478	38
0	3671	1420.148442209915	37
0	3673	1420.460360459768	38
0	3680	1422.423235710171	39
0	3690	1426.698132847118	39
0	3696	1430.179943019286	36
0	3701	1432.397676050936	36
0	3706	1433.141414545455	37
0	3710	1435.122645157586	37
0	3712	1437.032262907654	38
0	3718	1437.659960268194	38
0	3720	1438.264566103757	39
0	3735	1443.080054800698	36
0	3738	1443.207599262763	36
0	3740	1443.334821987247	37
0	3745	1445.692352658977	38
0	3759	1451.793438978544	38
0	3770	1455.295298208786	37
0	3780	1459.110992078956	37
0	3782	1459.352886610658	38
0	3784	1459.998072103354	39
0	3787	1460.342001319946	40
0	3792	1462.822022317838	41
0	3798	1463.84212412101	42
0	3801	1465.447310858613	42
0	3803	1465.63613274973	43
0	3805	1465.770300161692	44
0	3811	1470.240107254	44
0	3821	1473.924834420102	43
0	3824	1476.803755906751	43
0	3829	1478.033169444499	44
0	3844	1487.851423541411	38
0	3848	1488.547379691501	37
0	3862	1493.690589215507	37
0	3865	1495.067327043404	38
0	3867	1495.180393647354	39
0	3869	1495.646697658758	40
0	3871	1496.278231649861	41
0	3876	1499.540637521371	42
0	3882	1502.092391830929	42
0	3886	1502.958298465262	43
0	3889	1503.213895109749	44
0	3892	1503.947005231456	44
0	3894	1505.49503345609	45
0	3897	1506.088109048801	45
0	3899	1506.505405517843	46
0	3901	1506.596284593246	47
0	3919	1514.116282962069	46
0	3928	1517.088338094455	44
0	3930	1517.305876455316	45
0	3933	1518.17778739421	45
0	3935	1518.697133732511	46
0	3942	1519.862912980657	47
0	3944	1520.353437639823	48
0	3946	1520.599234805941	49
0	3952	1523.119959050512	50
0	3954	1523.849149794518	51
0	3964	1525.883959037955	52
0	3966	1526.206157880852	53
0	3968	1526.226639175646	54
0	3978	1529.666298986796	54
0	3980	1529.875580723535	55
0	3991	1535.314725393487	56
0	3993	1535.326487908811	57
0	3995	1537.400298601137	58
0	4000	1537.826490831063	59
0	4002	1538.382330592737	60
0	4006	1542.248333774488	59
0	4008	1543.080502404128	60
0	4012	1543.642458842816	59
0	4015	1545.0449184893	59
0	4017	1547.849982057347	60
0	4022	1549.728912466598	61
0	4028	1552.850637582159	61
0	4030	1553.350506714339	62
0	4042	1558.967551177222	61
0	4045	1559.674729527487	62
0	4063	1564.57101455663	58
0	4066	1564.720485664186	59
0	4068	1564.958074700422	60
0	4077	1567.628215675712	61
0	4079	1567.695036854008	62
0	4081	1568.565584937934	63
0	4084	1568.951658522196	64
0	4088	1570.516954546842	64
0	4090	1570.854746234896	65
0	4095	1571.855189764287	65
0	4100	1572.370728431435	66
0	4103	1573.512507467308	67
0	4106	1575.083908069701	67
0	4110	1575.365676788742	68
0	4115	1575.750039460774	69
0	4118	1576.525963329993	70
0	4126	1581.428776842418	67
0	4130	1584.052534008836	67
0	4132	1585.687733429182	68
0	4135	1587.029681492288	68
0	4141	1590.236667155498	68
0	4147	1593.551013435948	65
0	4149	1594.610920742561	66
0	4159	1599.518990327772	65
0	4164	1600.679247268366	63
0	4171	1604.82675655208	62
0	4177	1605.748249078875	63
0	4180	1606.470039712599	64
0	4183	1607.943057707358	65
0	4191	1609.808379341513	66
0	4194	1610.891158344338	66
0	4200	1612.507965653797	66
0	4202	1613.010893519453	67
0	4207	1613.644720031796	68
0	4211	1616.090057860405	67
0	4214	1617.152363990861	67
0	4222	1622.714815672417	65
0	4227	1623.724571548346	66
0	4232	1627.523863931805	66
0	4234	1627.784486590275	67
0	4237	1628.801845399197	68
0	4241	1629.654346287235	69
0	4244	1630.098270225356	70
0	4246	1630.162957508652	71
0	4263	1634.851111910082	72
0	4268	1636.034428493441	73
0	4270	1636.04856698593	74
0	4273	1637.601998398489	74
0	4275	1637.766776079245	75
0	4286	1641.898304154995	75
0	4289	1643.429600996982	76
0	4292	1645.043561939434	76
0	4295	1646.482920644382	76
0	4300	1647.125203819501	76
0	4305	1648.620325588934	75
0	4307	1648.676791883572	76
0	4316	1651.243010748703	76
0	4321	1654.96888010452	77
0	4332	1658.796077013053	78
0	4340	1662.59247813048	76
0	4344	1663.52153486016	75
0	4346	1663.914006150446	76
0	4348	1664.581906272742	77
0	4351	1666.097367112919	77
0	4364	1670.890348044111	76
0	4366	1672.211859647299	77
0	4374	1673.523445548466	77
0	4381	1677.604418403875	74
0	4384	1681.641733920528	74
0	4394	1686.258604039291	72
0	4396	1686.435445371539	73
0	4398	1687.302272326699	74
0	4407	1693.087613838667	75
0	4410	1694.602129226412	75
0	4412	1695.170330130206	76
0	4418	1699.603844487515	75
0	4424	1702.058040286663	76
0	4437	1709.460265090059	76
0	4439	1709.533835708337	77
0	4445	1711.837706307727	76
0	4449	1713.208477942535	75
0	4454	1715.715676679171	76
0	4456	1715.89244592589	77
0	4458	1715.977651383451	78
0	4460	1717.789488900388	79
0	4467	1720.301221330361	78
0	4477	1723.692079535117	79
0	4485	1727.914656170152	79
0	4493	1729.198900882263	79
0	4495	1729.859666972393	80
0	4502	1731.724855215912	79
0	4513	1734.895691433425	79
0	4517	1738.04702403791	79
0	4524	1740.035824925102	80
0	4527	1740.595911764027	81
0	4530	1741.587555722805	81
0	4537	1743.829160514459	80
0	4542	1745.302780064923	80
0	4545	1745.739013125794	81
0	4547	1745.783153997819	82
0	4549	1746.105201654994	83
0	4552	1747.460260809798	83
0	4555	1747.761546896948	83
0	4561	1748.604467732431	83
0	4563	1748.854288430653	84
0	4568	1750.012130629112	82
0	4576	1752.125007703602	81
0	4580	1753.08116746201	82
0	4587	1757.329898160454	82
0	4592	1758.853772387593	82
0	4599	1761.3369372151	81
0	4602	1764.536762067363	81
0	4604	1764.745063275232	82
0	4613	1766.009008317315	80
0	4617	1766.606195379732	81
0	4623	1766.795036440198	81
0	4625	1768.081705010157	82
0	4630	1768.851270317907	83
0	4632	1769.211548710604	84
0	4635	1769.919926483882	84
0	4637	1769.963782055388	85
0	4640	1771.136392261959	85
0	4642	1771.302921533304	86
0	4647	1772.832435121726	87
0	4652	1774.0876116693	87
0	4654	1774.726525499531	88
0	4660	1775.516161327038	89
0	4662	1776.065717000664	90
0	4664	1776.177671621761	91
0	4669	1778.759792124939	92
0	4671	1779.956934199045	93
0	4673	1780.670262278261	94
0	4681	1782.84519332972	92
0	4683	1783.20295937652	93
0	4689	1786.387596423064	93
0	4692	1786.617400707904	93
0	4694	1787.079239844328	94
0	4696	1787.28533245354	95
0	4699	1789.046460280239	95
0	4702	1790.399543502834	95
0	4705	1791.879018441617	95
0	4709	1795.080110163151	96
0	4718	1798.973578721612	95
0	4722	1799.962056019351	96
0	4729	1803.090435811166	95
0	4735	1805.973638586297	95
0	4740	1808.370639328666	96
0	4747	1812.538854069579	95
0	4749	1814.525985352456	96
0	4751	1817.122790199795	97
0	4756	1817.685063963707	98
0	4759	1819.495583788258	98
0	4761	1819.966239890101	99
0	4767	1822.138100885139	99
0	4776	1828.041534613271	96
0	4779	1828.597251044134	96
0	4787	1831.344690833476	94
0	4791	1832.461117492105	95
0	4796	1834.148039213869	94
0	4799	1835.603403847052	94
0	4801	1835.797095463344	95
0	4803	1835.906672759951	96
0	4813	1839.079949761908	95
0	4818	1840.332952529786	96
0	4836	1848.484215265654	92
0	4838	1849.792207605438	93
0	4847	1850.834537932835	94
0	4850	1851.549284453384	94
0	4853	1852.352078387905	94
0	4857	1853.472312092976	95
0	4866	1855.697022383332	96
0	4877	1860.41049502713	96
0	4884	1862.878275782578	93
0	4886	1863.401289557342	94
0	4888	1863.830207370289	95
0	4899	1874.092699591762	93
0	4902	1874.515133347574	93
0	4904	1875.359643697607	94
0	4907	1876.335390504828	94
0	4911	1879.405838676672	95
0	4924	1888.367153408631	89
0	4927	1890.075777306745	89
0	4937	1895.312012954934	85
0	4947	1900.312425875671	86
0	4950	1901.347387075373	87
0	4953	1902.955698519218	87
0	4957	1905.724586274577	86
0	4959	1907.164560836503	87
0	4964	1909.164258110388	87
0	4966	1910.348316313923	88
0	4973	1914.572101711112	85
0	4976	1916.043466873854	85
0	4979	1918.3100656894	85
0	4984	1919.395872323086	86
0	4990	1920.560386775685	87
0	4997	1921.412070797651	88
0	5002	1924.004798799397	89
0	5008	1925.801915389304	89
0	5010	1925.977915956015	90
0	5021	1934.435014460036	88
0	5026	1936.838745067658	86
0	5030	1938.297048253552	85
0	5062	1949.852012159026	80
0	5067	1950.741116968405	81
0	5070	1951.214843517474	81
0	5074	1953.733498161887	82
0	5081	1957.33702747768	82
0	5083	1957.799166668353	83
0	5085	1957.941938847989	84
0	5087	1959.400789410758	85
0	5089	1960.69092494851	86
0	5092	1961.434339828435	86
0	5107	1966.275169922063	85
0	5111	1968.55087150817	85
0	5125	1971.341904409391	86
0	5127	1971.411802508482	87
0	5130	1972.547891944241	87
0	5132	1973.215650938516	88
0	5134	1973.406208863513	89
0	5136	1974.272227162903	90
0	5139	1974.677858153455	90
0	5147	1977.484505739659	91
0	5150	1977.870102063327	91
0	5154	1980.999337660587	90
0	5156	1981.691964741578	91
0	5163	1985.370766201921	90
0	5167	1986.300800209863	89
0	5174	1987.680030842883	88
0	5176	1987.868081397573	89
0	5193	1993.444813852073	87
0	5195	1993.469727940581	88
0	5199	1994.572129882207	87
0	5201	1995.369390136999	88
0	5206	1998.301773947154	86
0	5208	1999.533351455141	87
1	0	0	0
1	4	0.792306177837	0
1	6	1.655332763573	0
1	17	3.825803712665	0
1	19	4.675523841243	1
1	20	4.831581864512	1
1	22	6.686767147851	1
1	24	6.999620431668	2
1	26	7.820391202698	3
1	27	8.173015373207	3
1	32	9.933452867052	3
1	33	10.27956373483	3
1	37	11.214108107926	3
1	40	11.957940681905	4
1	41	11.975515928334	4
1	43	13.577440393294	4
1	45	14.245859623067	5
1	46	15.425501311614	5
1	48	15.614301754247	5
1	49	16.232397031422	5
1	50	16.460414373073	4
1	51	17.104065076946	3
1	52	17.567039727725	2
1	53	17.808039117512	1
1	55	19.380248993268	1
1	57	19.431475659231	2
1	62	21.086169669329	3
1	64	21.115713353566	4
1	65	21.226135125869	4
1	67	21.272213239818	4
1	74	22.917925955662	5
1	76	23.753146493623	5
1	78	24.62162722144	5
1	79	25.977123966149	5
1	81	26.815356671902	5
1	82	27.917337804831	5
1	84	29.200771581415	5
1	85	29.522331623291	5
1	86	32.945304849005	4
1	88	33.493750491173	4
1	90	33.917364646808	5
1	91	34.636933488867	5
1	93	35.413050980281	5
1	95	35.901712558455	6
1	97	36.177117429655	7
1	99	36.354048653585	8
1	100	39.486456255198	8
1	102	42.043532648836	8
1	106	43.56887698655	8
1	108	43.892934351411	8
1	112	46.977180359076	8
1	116	47.596841516323	8
1	119	49.148314661837	9
1	121	51.125923709268	10
1	122	51.849827068472	10
1	124	52.23654421246	10
1	129	53.853202661125	11
1	131	54.328342366412	12
1	133	54.634422563016	13
1	137	57.015007591274	13
1	141	57.957379767067	12
1	149	60.558194976625	12
1	150	60.767403946145	12
1	152	60.919057479699	12
1	156	63.351542544129	13
1	165	67.249772345314	14
1	169	69.039875960542	14
1	176	71.491873461748	13
1	178	71.674930540401	13
1	179	74.214113236995	13
1	181	75.000619448102	13
1	186	76.369901695691	14
1	188	76.876600668982	15
1	189	76.982704353198	15
1	190	77.371780538433	14
1	192	77.508301849478	14
1	194	78.515886482772	15
1	198	80.223751170406	15
1	203	80.62103121271	15
1	205	81.956346161232	16
1	212	83.023267485769	16
1	213	83.072025311467	15
1	214	83.293067930224	14
1	216	83.408664695037	14
1	217	83.52173307805	14
1	218	84.494391708896	13
1	219	85.317827242791	12
1	220	85.333825713277	11
1	222	85.649425644788	11
1	226	87.252283010963	12
1	228	87.349874368357	13
1	231	88.419279426642	14
1	232	88.439724776733	14
1	237	89.409971195084	14
1	241	89.504084082078	15
1	243	91.610996567966	15
1	250	95.014543423425	14
1	251	95.10626640367	13
1	253	95.446690165087	13
1	255	95.458382163294	14
1	257	95.519390158197	15
1	258	95.739653285338	15
1	260	96.904249526221	15
1	262	97.56077925308	16
1	264	97.949084128419	17
1	266	98.471462049777	18
1	268	99.857142751367	19
1	270	100.367914101979	20
1	271	101.23618109431	20
1	273	101.652972225251	20
1	274	102.248542066091	20
1	275	103.058497193389	19
1	276	103.779145528157	18
1	278	104.335479663146	18
1	283	104.75132800536	19
1	284	105.114383112515	19
1	291	106.327164368282	18
1	292	106.515726735427	17
1	294	106.734223514479	17
1	295	107.262314868455	17
1	297	107.395847649893	17
1	301	109.204047704181	17
1	303	109.66549024162	17
1	305	110.471972436221	18
1	310	112.584475204004	19
1	311	112.822024604927	19
1	315	113.119990659243	19
1	317	113.231055290539	20
1	319	113.431165110581	20
1	320	113.903033076414	19
1	325	114.921144016803	19
1	330	115.884477825181	20
1	332	116.416167858798	21
1	334	116.482295771483	22
1	335	116.948455225359	22
1	336	117.610336315103	21
1	337	118.856654201831	20
1	338	119.471588624258	19
1	340	119.852925250249	19
1	344	122.29360461497	19
1	346	123.146397321479	19
1	347	124.054500465487	19
1	349	125.349888547413	19
1	356	127.291097535021	19
1	357	128.161804379627	18
1	359	128.321177317193	18
1	360	128.565239648933	18
1	362	130.226875085873	18
1	363	130.35799350499	18
1	364	130.641939362562	17
1	368	135.337766202501	16
1	369	135.417680482764	15
1	376	137.330623116914	14
1	378	137.695333915515	14
1	379	138.229927276945	14
1	381	139.657019833654	14
1	383	140.018651448918	15
1	384	140.926148831181	15
1	385	141.660254231507	14
1	387	142.172392799949	14
1	392	143.261314985785	15
1	394	143.325392284119	16
1	395	143.421834426178	16
1	396	143.917287150561	15
1	398	144.047177208748	15
1	399	145.081568330557	15
1	401	145.327323629457	15
1	403	145.528421630768	16
1	404	146.01862642726	16
1	406	147.095198908788	16
1	408	147.185760496993	17
1	409	147.358538735649	17
1	411	147.930196523338	17
1	412	148.521427398718	17
1	413	148.748736770455	16
1	414	150.006319962725	15
1	415	151.098803350379	14
1	416	152.085393447245	13
1	420	152.955035351299	12
1	421	153.382303967163	11
1	423	153.593043629015	11
1	427	158.606292240376	11
1	428	158.987627170035	10
1	430	159.000731510332	10
1	432	160.579022549217	11
1	433	160.717377600986	11
1	435	161.081966840538	11
1	436	161.343014213445	11
1	438	162.412330216431	11
1	439	162.585328977211	11
1	441	165.221588803489	11
1	446	167.724057906356	12
1	448	168.057041292888	13
1	450	169.11841504954	14
1	452	169.560501047083	15
1	453	170.697460609194	15
1	460	171.421250219052	14
1	464	172.691612892859	14
1	470	174.424010049171	15
1	471	174.852432591629	15
1	472	174.955186133622	14
1	473	175.196952564631	13
1	474	177.412535095043	12
1	478	180.967874377153	11
1	480	182.865806967889	11
1	490	187.263363074705	11
1	491	187.438296677157	10
1	492	187.576448713324	9
1	494	189.002496794201	9
1	499	189.392158305292	10
1	506	190.388983468451	11
1	509	191.431909625886	12
1	517	192.623688931803	13
1	519	193.017787720467	14
1	520	193.803443934571	14
1	522	193.908427861315	14
1	526	195.583723462259	14
1	528	196.326776286382	14
1	529	196.960626668952	14
1	533	198.944728836223	14
1	535	199.001822844997	15
1	537	199.150483070274	16
1	539	199.405854730414	17
1	542	200.358947603243	18
1	543	200.619335259562	18
1	544	200.64645388685	17
1	545	200.996037237059	16
1	547	201.620512483109	16
1	551	201.993786696271	17
1	554	202.899188553954	18
1	555	204.233333052384	18
1	556	204.375561409919	17
1	558	204.585142244709	17
1	563	205.857868772458	18
1	567	210.440876779626	19
1	570	211.106601770612	20
1	571	212.752554068754	20
1	572	213.004720715739	19
1	574	213.055500139171	19
1	578	215.645400722888	19
1	582	217.616741330957	19
1	591	221.380265458079	20
1	593	221.92745090075	21
1	594	222.12919068641	21
1	598	222.870385951964	21
1	601	224.961251384325	22
1	605	227.081648262361	22
1	609	228.709218905262	21
1	613	230.658205803978	20
1	614	233.905543964316	19
1	615	234.142974165455	18
1	616	234.609125623031	17
1	618	235.829034599031	17
1	620	236.588920677055	18
1	621	236.750057824821	18
1	623	238.463895085844	18
1	625	239.912768299909	19
1	626	240.650328789355	19
1	627	240.855476191678	18
1	629	240.951120310235	18
1	630	241.03867118699	18
1	634	242.011167568078	17
1	636	242.135003349099	17
1	637	242.585873777752	17
1	639	242.965012273121	17
1	640	243.131348012174	17
1	641	243.919739011327	16
1	642	244.612362183965	15
1	643	244.634838557065	14
1	650	247.40483336261	13
1	651	248.393571158991	12
1	652	248.406550590802	11
1	656	249.612519065683	10
1	660	250.729261942417	9
1	661	251.868752556542	8
1	663	251.892140720213	8
1	664	252.796862222022	8
1	665	253.369741099032	7
1	666	255.663791134038	6
1	667	255.89441618858	5
1	668	257.622336688346	4
1	676	259.690016403941	4
1	678	259.801816408378	5
1	682	261.711975730427	6
1	684	262.942665035037	6
1	686	263.106804814935	6
1	697	268.218429403724	7
1	698	268.443136983543	7
1	699	268.476582008947	6
1	700	269.005480819053	5
1	716	273.711966700282	4
1	718	274.331349948169	4
1	719	276.224935020547	4
1	721	276.570183523033	4
1	731	278.450798257054	5
1	734	280.682537741526	6
1	735	281.553369054741	6
1	736	282.963225041558	5
1	738	283.267259795413	5
1	743	286.66017445217	6
1	749	287.660679984055	7
1	756	291.870820258489	8
1	757	292.968125680598	8
1	759	293.033002698216	8
1	767	295.49586846798	9
1	771	295.89491736923	9
1	773	296.121695531341	9
1	775	298.056613358632	10
1	780	300.774285638146	11
1	782	301.465487860522	12
1	786	302.631601830673	12
1	791	303.71733412545	12
1	792	305.038717817175	12
1	793	305.53786623369	11
1	795	305.60757759394	11
1	797	305.737866532291	12
1	799	306.172386612218	13
1	801	306.466679152086	14
1	802	307.439825335167	14
1	807	308.662716490994	14
1	808	309.098024809966	14
1	810	309.508208060175	14
1	821	313.330857336248	15
1	823	314.649925932553	16
1	825	315.231486492596	17
1	826	315.981712743741	17
1	828	316.840669435745	17
1	832	317.541668401952	18
1	836	318.033386840822	19
1	839	319.997165078905	19
1	840	320.001884647526	18
1	841	320.603323980107	17
1	843	320.893931168923	17
1	844	323.056321345513	17
1	851	325.465456863766	16
1	852	326.235348793652	15
1	860	329.035996513567	15
1	862	330.034311641293	16
1	863	330.639848732667	16
1	867	331.209861815537	15
1	868	332.545317999606	14
1	869	332.705216108711	13
1	871	333.056339141126	13
1	873	334.000716276771	14
1	881	336.394836327435	15
1	885	340.253062736474	15
1	889	341.442219873125	14
1	890	341.959494353056	13
1	891	342.726419794935	12
1	895	343.537210462072	11
1	897	343.803578352183	11
1	898	344.353906779505	11
1	908	346.227354900109	10
1	909	346.419362665677	9
1	910	346.619491885264	8
1	914	347.774404946636	7
1	921	349.081567925665	7
1	924	349.972642016069	8
1	925	350.118757028946	8
1	929	352.254122653362	7
1	933	353.667180810187	6
1	934	354.528864826035	5
1	935	356.263453730174	4
1	937	356.396629413118	4
1	943	358.575607929824	5
1	945	358.884013985759	6
1	948	361.109855177687	7
1	950	361.346870485149	7
1	951	363.595577132728	6
1	956	364.741441117076	6
1	957	364.804509039094	6
1	962	367.447061209154	6
1	963	368.757222851359	6
1	968	370.670292113186	6
1	969	371.241425603026	6
1	980	376.026150015532	6
1	981	376.187557752983	6
1	986	378.494907839413	6
1	987	379.316061411555	6
1	989	379.381450021087	6
1	1003	382.839494114096	7
1	1005	384.629789937143	8
1	1007	384.781436112536	9
1	1009	385.584708623213	10
1	1014	388.35107470338	11
1	1016	388.546138882496	12
1	1023	393.105327654878	13
1	1028	397.169472848647	13
1	1030	397.561053949395	13
1	1031	399.699035857811	13
1	1035	400.434095275803	12
1	1036	400.556288645288	11
1	1038	402.817013561582	11
1	1040	403.022025738071	12
1	1045	404.901863252589	13
1	1047	405.660244332277	14
1	1048	406.819021267755	14
1	1049	409.575637759731	13
1	1051	410.145961110463	13
1	1053	410.750250062272	14
1	1061	411.917062529712	15
1	1063	411.918252597073	16
1	1064	412.700435848654	16
1	1065	414.38770069859	15
1	1067	414.397290028812	15
1	1074	418.143097830282	15
1	1076	418.914646259011	15
1	1083	421.724053706575	16
1	1085	421.775616985254	17
1	1087	422.497627860449	18
1	1089	422.649933338059	19
1	1093	423.104359923447	20
1	1096	424.801454661656	21
1	1099	425.41696486693	22
1	1100	425.57613163549	22
1	1110	428.38176139134	22
1	1112	428.914075307289	22
1	1113	429.458850454148	21
1	1114	429.783310942252	20
1	1116	429.890744139782	20
1	1118	429.903962515964	21
1	1122	431.981386017917	21
1	1123	432.680639544522	20
1	1124	433.969255926144	19
1	1125	434.009174019929	18
1	1127	434.073517061405	18
1	1131	434.518479675729	19
1	1134	434.846391238635	20
1	1136	434.867552487216	21
1	1140	436.262900008032	21
1	1141	436.561957879779	20
1	1142	436.909614086174	19
1	1144	438.6027231831	19
1	1149	440.34580557216	20
1	1154	442.118839325268	21
1	1155	442.725477127367	21
1	1157	442.778544662488	21
1	1158	443.079076285373	21
1	1160	443.525077098882	21
1	1162	443.604875386274	22
1	1166	444.403343708693	23
1	1168	444.483669659329	24
1	1174	446.378920827186	25
1	1178	447.056156218617	25
1	1182	449.602195032567	24
1	1183	449.656782038203	23
1	1184	450.649013206379	22
1	1185	451.168748669973	21
1	1187	451.968523341748	21
1	1191	454.770936079333	21
1	1192	455.075146691884	20
1	1196	455.697317116473	20
1	1198	455.796684730838	21
1	1201	456.588938540225	22
1	1203	457.458396599766	23
1	1204	457.648367332859	23
1	1206	457.886011029945	23
1	1208	459.048760423695	24
1	1209	459.358788472202	24
1	1211	459.653109570917	24
1	1212	460.16733837624	24
1	1214	460.834405308809	24
1	1215	460.91742895215	24
1	1217	461.317954419482	24
1	1219	461.938742385385	25
1	1221	462.099652893172	26
1	1222	462.215009659631	26
1	1223	462.260250917046	25
1	1230	463.141153111818	24
1	1232	463.486201222524	24
1	1233	464.722734250613	24
1	1237	465.58637452952	24
1	1242	467.334168226954	24
1	1244	468.090228684233	24
1	1245	469.190691047642	24
1	1252	471.409807209687	24
1	1255	473.064649621872	25
1	1256	473.217263259826	25
1	1260	474.515131432989	25
1	1262	474.963750953511	26
1	1264	475.040662894568	27
1	1269	477.299501490571	27
1	1271	477.408056587876	27
1	1273	477.556649350561	28
1	1277	478.182136593846	29
1	1279	478.405763140731	29
1	1280	478.431058675915	28
1	1282	479.608193852678	28
1	1283	480.098864863068	28
1	1287	482.463099137054	27
1	1291	484.111261274198	26
1	1295	488.420718690997	26
1	1297	488.721336251498	26
1	1301	490.332264324726	26
1	1306	491.342681451438	26
1	1307	492.099419733728	25
1	1308	492.556057552262	24
1	1310	494.712105589613	24
1	1311	495.497676164835	24
1	1312	495.524077875287	23
1	1314	496.493104975733	23
1	1322	497.231866648667	24
1	1324	497.876717818695	25
1	1328	498.539097915746	26
1	1331	500.389473208706	27
1	1333	501.347163982446	28
1	1335	501.694128316078	29
1	1339	502.036838247035	29
1	1341	502.404925080862	29
1	1343	502.500817343602	30
1	1354	507.177993000341	31
1	1356	508.016754835635	32
1	1360	509.240514714477	33
1	1366	511.384168220048	34
1	1370	513.174110184041	34
1	1371	513.38772687258	33
1	1372	514.169513632599	32
1	1373	514.845722010061	31
1	1374	515.330711452147	30
1	1378	516.378861857151	30
1	1380	516.814054012508	30
1	1386	519.473757622135	30
1	1392	522.312846298905	30
1	1394	522.556922168355	30
1	1398	524.199367562285	30
1	1403	526.220398121098	30
1	1408	526.527821901635	31
1	1409	526.765325460755	31
1	1410	526.897137870606	30
1	1419	528.665003490897	30
1	1429	532.398956090179	31
1	1431	533.175743851681	32
1	1439	535.468171072588	33
1	1443	536.896936830851	33
1	1450	538.998054207081	32
1	1454	539.515717197062	32
1	1456	540.098951415919	32
1	1457	542.138052659465	31
1	1458	543.407829253387	30
1	1459	543.733297801517	29
1	1465	546.620737034897	29
1	1471	549.746337221248	29
1	1476	551.419613463277	29
1	1477	552.353002970176	29
1	1479	552.664791390765	29
1	1480	554.087951593547	29
1	1481	554.638352482428	28
1	1482	555.120347549553	27
1	1483	555.876458520098	26
1	1488	556.190151421433	26
1	1498	558.821952474032	26
1	1500	559.241351935656	26
1	1501	560.115988084552	26
1	1503	560.300133415203	26
1	1504	560.395854901438	26
1	1520	567.159934195086	25
1	1521	567.756508286986	24
1	1523	569.634902969213	24
1	1525	569.778020104165	25
1	1526	570.675828257577	25
1	1528	570.769674834642	25
1	1529	573.317882325044	25
1	1534	576.709114667513	25
1	1535	576.815563609097	25
1	1536	577.973132127712	24
1	1541	579.188184244416	24
1	1546	581.703598531693	25
1	1551	584.538485376354	26
1	1555	587.054322039724	26
1	1556	588.383671560181	25
1	1560	590.132971197188	24
1	1565	592.041185705439	24
1	1567	592.372687197471	25
1	1568	593.507098623072	25
1	1578	595.614502905253	24
1	1579	596.101393987433	23
1	1580	597.140001764678	22
1	1582	597.731111263568	22
1	1583	597.878956461639	22
1	1585	597.886624902397	22
1	1587	597.977892675056	23
1	1591	599.245731805256	23
1	1593	599.632438449569	23
1	1595	599.876640758518	24
1	1596	600.133084502236	24
1	1598	601.018949537586	24
1	1600	601.409297889379	25
1	1601	601.522186937924	25
1	1602	602.189429761094	24
1	1603	602.42221563439	23
1	1608	604.943607171662	23
1	1609	605.049369839477	23
1	1611	605.790422767605	23
1	1615	609.03814557152	23
1	1616	609.474766219674	22
1	1617	609.66789557222	21
1	1618	609.727604670945	20
1	1620	611.011278380715	20
1	1624	613.014302887092	20
1	1629	613.748750162674	20
1	1630	614.017115049432	20
1	1631	614.289197056297	19
1	1632	614.367597021855	18
1	1634	614.437338515987	18
1	1635	615.524307670159	18
1	1645	617.501433121147	18
1	1647	617.963538219475	18
1	1649	618.820309210516	18
1	1650	619.220910241053	18
1	1652	619.658955597384	18
1	1653	619.860728755296	18
1	1657	620.517402071013	17
1	1659	622.598844276215	17
1	1660	623.223344746048	17
1	1662	623.223541668744	17
1	1664	623.418007369174	18
1	1666	623.643861025972	19
1	1667	624.264346102915	19
1	1669	624.334293885704	19
1	1670	625.500581844723	19
1	1674	626.671340317287	18
1	1675	628.469463127046	17
1	1682	632.288585295822	16
1	1686	633.428324247895	16
1	1688	633.80124449029	16
1	1689	634.974759658776	15
1	1691	636.607380370695	15
1	1695	638.431457310464	16
1	1698	640.20034917391	17
1	1703	641.26144899567	18
1	1705	641.390453253058	19
1	1707	642.467030090919	20
1	1708	642.95656339508	20
1	1710	643.120185537657	20
1	1712	643.355509259643	21
1	1716	644.643700779091	22
1	1722	645.392333750218	23
1	1726	645.692222934369	24
1	1731	646.887355692354	24
1	1733	647.137631358938	24
1	1735	647.588303285738	25
1	1736	647.910029510499	25
1	1740	649.591262783415	24
1	1747	654.104214963751	23
1	1748	654.923801565693	22
1	1749	657.218978666362	21
1	1751	661.705696731681	21
1	1753	662.752731212973	22
1	1755	663.12688349144	23
1	1756	663.292371417734	23
1	1757	664.256338251214	22
1	1761	665.242501889205	21
1	1766	666.353942895163	21
1	1767	668.079705443722	21
1	1769	669.183515938752	21
1	1770	669.372385701951	21
1	1772	669.453463106854	21
1	1774	672.395443179744	22
1	1775	673.516266424024	22
1	1779	676.169603970548	21
1	1780	677.28053176692	20
1	1781	677.63242336289	19
1	1782	677.978865413343	18
1	1784	678.237070679288	18
1	1785	680.458270657319	18
1	1786	680.765995034563	17
1	1791	682.148434349972	17
1	1792	682.505182666109	17
1	1793	682.578839228453	16
1	1795	684.11532582133	16
1	1797	684.216445732243	17
1	1799	684.231754220029	18
1	1800	684.270884634172	18
1	1801	685.047198798907	17
1	1802	685.543663957063	16
1	1806	686.929378601875	15
1	1808	687.370218403852	15
1	1809	687.886958849594	15
1	1810	688.467354814916	14
1	1812	692.787299051837	14
1	1814	693.566993431375	15
1	1815	693.688339089358	15
1	1816	693.777662580867	14
1	1817	694.813515328375	13
1	1818	694.990148657432	12
1	1819	695.032241053326	11
1	1821	695.337992185603	11
1	1823	696.708632639095	12
1	1827	697.780598502389	13
1	1836	699.745005379866	14
1	1839	700.852712164858	15
1	1841	700.853696980089	16
1	1844	701.219520108721	17
1	1847	704.115890878688	18
1	1848	705.042525461737	18
1	1850	705.748138858586	18
1	1851	705.90929448094	18
1	1855	706.546923423932	17
1	1863	712.336459768122	17
1	1864	712.413229611397	17
1	1866	712.802739802057	17
1	1877	717.714747299468	18
1	1882	720.937211489174	19
1	1884	721.063873632572	20
1	1885	721.206961687605	20
1	1886	721.924209757983	19
1	1887	722.050969864342	18
1	1889	723.220236667984	18
1	1896	724.664346863065	18
1	1898	724.730460664533	18
1	1909	728.24182259546	19
1	1911	729.010023614842	20
1	1913	729.787328324325	21
1	1921	732.819650956929	22
1	1923	733.914743550133	23
1	1924	734.328804154894	23
1	1925	735.25924723108	22
1	1927	735.55875882768	22
1	1937	738.123714922735	23
1	1940	738.792750109349	24
1	1941	741.72004261954	24
1	1946	743.26634691677	24
1	1947	743.413330937102	24
1	1954	746.532290992554	23
1	1959	747.801114859438	23
1	1961	748.407863923272	24
1	1963	749.092572654879	25
1	1964	749.564629245783	25
1	1965	749.803873655252	24
1	1969	753.258718478655	23
1	1971	755.452710264394	23
1	1973	758.81499846372	24
1	1975	759.522535313256	25
1	1979	760.712823447433	25
1	1980	761.602803810161	24
1	1981	762.726220304246	23
1	1985	764.272574165851	22
1	1992	766.426436158022	22
1	1994	766.826655935019	22
1	1995	768.952293176667	21
1	1996	770.386978549883	20
1	1998	771.185264051895	20
1	2006	774.428715899365	21
1	2016	776.952798728042	22
1	2023	779.096495818622	23
1	2030	781.67339657755	24
1	2031	784.108387952363	24
1	2032	784.652136302287	23
1	2034	785.707979203492	23
1	2035	787.681025027637	23
1	2036	787.951254531893	22
1	2037	788.573469339752	21
1	2038	788.829224039981	20
1	2040	789.744373321336	20
1	2041	791.846571499878	20
1	2045	793.729465878479	19
1	2047	794.93041502438	19
1	2048	795.284097923946	19
1	2049	796.862933607007	18
1	2051	798.283467487641	18
1	2053	798.86846336961	19
1	2054	801.675243378553	19
1	2055	802.154474882565	18
1	2059	803.76630728438	17
1	2060	803.908118973478	16
1	2065	806.315075918893	16
1	2067	807.062513745633	17
1	2068	807.976299986385	17
1	2070	812.351450742292	17
1	2071	813.865196729963	17
1	2072	814.170196757555	16
1	2073	814.227422588446	15
1	2074	815.244816402664	14
1	2078	815.917287314854	13
1	2079	816.186928274066	12
1	2084	817.158627045193	12
1	2089	819.013535586829	13
1	2090	819.13931295264	13
1	2092	820.319562179619	13
1	2094	820.445956507713	14
1	2096	821.148422116017	15
1	2098	821.959013427286	16
1	2103	822.615545176702	17
1	2104	822.939977899427	17
1	2106	822.964379553262	17
1	2107	824.506162281676	17
1	2118	829.754013342869	17
1	2119	833.275662965071	17
1	2126	837.363659964667	16
1	2127	838.29405136907	15
1	2131	839.951105454008	14
1	2136	840.348089645133	14
1	2137	840.569702708938	14
1	2138	842.374344946796	13
1	2139	843.459865369629	12
1	2141	844.940538589814	12
1	2143	846.622299743386	13
1	2147	848.245672303246	13
1	2148	848.395447344714	12
1	2158	849.388468441769	12
1	2164	851.340883839307	13
1	2165	852.071589399575	13
1	2167	852.191410794306	13
1	2169	852.924694251719	14
1	2171	853.193816103899	15
1	2172	853.244098596814	15
1	2178	854.472571526333	15
1	2191	860.14249937787	16
1	2193	861.006025933171	17
1	2195	862.61869191681	18
1	2203	864.195889845403	19
1	2205	864.644873856962	20
1	2209	865.632158842332	20
1	2213	867.227879544556	19
1	2221	869.416111340945	19
1	2222	869.925611020496	19
1	2224	869.979605658151	19
1	2225	871.946515446598	19
1	2226	872.163926904609	18
1	2230	872.485940647342	18
1	2232	874.398626615673	18
1	2237	875.22269246404	18
1	2256	880.861627564399	19
1	2259	881.311868657639	20
1	2260	881.995613074754	20
1	2264	882.618609794847	20
1	2266	883.030349644699	20
1	2271	886.960877037379	20
1	2273	887.416309561022	21
1	2275	887.435474914913	22
1	2276	887.551150938202	22
1	2277	889.143222706264	21
1	2278	889.81465444211	20
1	2279	890.099480574486	19
1	2284	891.095712690653	19
1	2285	892.536942883078	19
1	2286	893.081645479145	18
1	2287	893.577920770725	17
1	2304	898.962002874014	17
1	2306	899.158824046852	18
1	2311	901.041525972664	19
1	2313	901.17779048627	20
1	2314	901.898124053262	20
1	2316	901.909389834965	20
1	2318	903.108169561425	21
1	2319	903.607901967284	21
1	2321	904.042604903273	21
1	2322	904.277007481517	21
1	2326	905.388540965419	21
1	2329	905.880971957585	22
1	2331	906.33950632874	23
1	2333	906.352205307874	24
1	2334	906.946707858801	24
1	2336	907.554732929014	24
1	2337	908.65533271392	24
1	2338	908.781845243379	23
1	2339	910.418221151146	22
1	2344	912.284216152835	22
1	2345	912.809451809804	22
1	2347	913.006606991103	22
1	2349	913.11595902247	23
1	2353	913.263351660051	24
1	2356	913.815341658103	25
1	2358	914.562224766911	26
1	2360	915.956741425845	27
1	2361	916.063170704863	27
1	2362	916.399243604424	26
1	2363	916.622833409757	25
1	2365	917.445280155346	25
1	2366	917.470297326538	25
1	2367	919.152172772976	24
1	2368	919.532000656084	23
1	2369	919.697306728541	22
1	2377	922.173402103969	22
1	2378	922.525992657112	22
1	2380	922.611844824504	22
1	2382	924.300629661645	23
1	2383	924.79297271479	23
1	2384	925.350168123107	22
1	2388	926.315508162272	21
1	2389	926.485833918407	20
1	2391	927.52988461851	20
1	2392	928.157758034002	20
1	2393	928.468437709084	19
1	2398	929.286893471288	19
1	2399	930.085499131421	19
1	2400	931.436656012418	18
1	2402	934.04753036811	18
1	2406	936.027950902313	18
1	2407	936.814837300832	17
1	2408	937.140310002741	16
1	2409	937.941839109063	15
1	2411	938.714957375512	15
1	2418	939.253665375269	16
1	2426	941.275524284857	16
1	2428	941.940522742017	16
1	2432	943.265183913049	17
1	2447	947.696964596104	18
1	2449	947.901351056098	19
1	2451	950.519957328164	20
1	2452	950.729885755243	20
1	2456	951.698778038457	20
1	2458	952.947127890948	20
1	2459	953.115320609251	19
1	2466	954.077343142638	18
1	2467	956.704109920004	17
1	2468	956.789161238798	16
1	2470	959.314381965844	16
1	2474	959.875480483686	17
1	2479	962.128181530872	17
1	2480	962.556061176736	16
1	2490	965.831220320486	15
1	2494	969.43718149013	14
1	2496	969.917468427365	14
1	2498	970.133423740932	15
1	2508	972.1611866225	16
1	2514	973.11964075049	17
1	2519	975.6581074925	18
1	2523	976.418356450011	19
1	2526	977.401014773341	20
1	2528	977.426327274713	21
1	2530	977.916192660171	22
1	2536	978.459878358809	23
1	2538	978.744054840665	24
1	2540	978.917019559034	25
1	2544	979.422294281301	26
1	2546	979.532806016237	27
1	2548	980.354929814594	28
1	2550	981.07538268505	29
1	2552	981.543682338908	30
1	2553	983.161963796781	30
1	2557	984.752480462984	29
1	2558	985.271213357862	28
1	2562	986.932037661985	28
1	2565	987.470622914066	29
1	2566	987.626618021588	29
1	2567	988.64962595132	28
1	2569	988.853285931037	28
1	2574	992.161330287434	29
1	2575	992.352997487746	29
1	2577	993.410989930526	29
1	2578	994.339840475093	29
1	2582	996.750178051815	28
1	2592	1000.659753385959	28
1	2594	1001.293620263362	28
1	2596	1001.542894502759	28
1	2603	1003.146695578934	28
1	2607	1003.494333456239	28
1	2611	1005.454668430879	29
1	2626	1010.295344938288	29
1	2631	1012.618076519849	29
1	2633	1012.856850736079	30
1	2634	1013.894559075644	30
1	2635	1013.921013354004	29
1	2637	1014.017558466807	29
1	2639	1015.982543312292	30
1	2640	1016.33709369854	30
1	2642	1017.922599809289	30
1	2643	1019.112937829853	30
1	2651	1020.608710499783	30
1	2653	1021.123096387555	31
1	2654	1021.177659960992	31
1	2658	1023.132366712136	30
1	2660	1023.911465109091	30
1	2662	1024.821218976082	31
1	2664	1026.511707959657	32
1	2666	1027.692100890361	33
1	2668	1030.281726388612	34
1	2669	1030.420118755779	34
1	2671	1030.437630067313	34
1	2675	1031.478316258834	35
1	2677	1032.331204725222	35
1	2684	1034.432890250122	34
1	2685	1035.246850695555	33
1	2687	1035.343882662468	33
1	2692	1037.673885132148	34
1	2693	1037.740173332539	34
1	2695	1038.518629156577	34
1	2696	1038.630615662484	34
1	2697	1039.200712713661	33
1	2698	1040.038020758531	32
1	2699	1040.911423455462	31
1	2700	1043.783495875435	30
1	2701	1043.872929406941	29
1	2702	1044.465479765882	28
1	2704	1045.937474216307	28
1	2706	1047.103826578646	29
1	2707	1050.634703531944	29
1	2711	1053.332338669249	28
1	2712	1053.403304301082	27
1	2714	1054.714220202457	27
1	2715	1055.94604163163	27
1	2716	1056.626599478978	26
1	2717	1057.250081641048	25
1	2718	1057.588387748242	24
1	2719	1057.838919986202	23
1	2721	1058.294971122334	23
1	2722	1058.764703104826	23
1	2723	1058.770658919851	22
1	2724	1059.962874736849	21
1	2729	1061.518446519069	21
1	2731	1063.912940690965	22
1	2733	1064.011731308939	23
1	2734	1064.225326157327	23
1	2736	1064.922080682577	23
1	2738	1065.268585232415	24
1	2746	1066.776278943129	25
1	2748	1066.826988109907	26
1	2749	1067.616404920319	26
1	2750	1069.019698683182	25
1	2752	1070.738782429057	25
1	2756	1072.848024381079	25
1	2761	1074.012483108599	25
1	2771	1076.527467778584	26
1	2773	1076.661536146529	27
1	2775	1077.523370902807	27
1	2779	1079.035959861142	26
1	2780	1079.801990310195	25
1	2782	1080.347743193046	25
1	2783	1082.373580841794	25
1	2784	1083.240140426269	24
1	2785	1083.275005025606	23
1	2786	1083.829718415185	22
1	2788	1085.195601004313	22
1	2789	1085.557406395608	22
1	2793	1087.829833081342	21
1	2794	1088.005326675678	20
1	2795	1088.496314545062	19
1	2797	1088.605125394093	19
1	2799	1089.750098605262	20
1	2801	1090.644289166601	21
1	2803	1091.080413683497	22
1	2805	1091.662655715043	23
1	2807	1091.854804495952	24
1	2811	1095.12044358541	24
1	2813	1095.387594328225	24
1	2815	1095.662878969626	25
1	2819	1096.278625822708	25
1	2821	1097.893791008547	25
1	2823	1098.288479939986	26
1	2825	1098.403328278941	27
1	2835	1100.428545031812	28
1	2838	1102.263038711975	29
1	2840	1102.556772111493	30
1	2842	1102.619011711195	31
1	2844	1102.91674275146	32
1	2846	1104.632901345375	33
1	2847	1105.744850304184	33
1	2849	1105.813120465486	33
1	2851	1106.563693744296	34
1	2852	1108.051327152967	34
1	2853	1108.332821276301	33
1	2857	1109.574185356179	32
1	2858	1110.192372746793	31
1	2862	1111.987712061185	30
1	2863	1112.308108725378	29
1	2864	1112.56623242938	28
1	2865	1113.082452357615	27
1	2866	1113.21863331774	26
1	2868	1113.679100494446	26
1	2872	1114.798858703609	27
1	2874	1114.916092641362	28
1	2876	1115.509758084947	28
1	2878	1115.571465033105	28
1	2879	1115.795849530166	28
1	2881	1115.889429312399	28
1	2882	1116.123074879332	28
1	2892	1121.466570386735	28
1	2894	1122.284343552711	28
1	2896	1122.424820562994	28
1	2897	1122.913962750242	28
1	2904	1126.874283643725	28
1	2909	1127.762966597373	29
1	2915	1129.097393113303	30
1	2916	1129.578568830984	30
1	2917	1129.758948197976	29
1	2919	1131.077605254214	29
1	2923	1131.714617962687	30
1	2928	1134.588311441635	30
1	2933	1137.56397734427	30
1	2934	1137.738430655422	30
1	2935	1138.083242598113	29
1	2939	1139.158139307985	28
1	2940	1140.325900115798	27
1	2942	1141.146454791418	27
1	2944	1141.349925318685	28
1	2945	1141.414955636268	28
1	2947	1141.64947263424	28
1	2948	1141.854105045475	28
1	2950	1142.133141489909	28
1	2952	1142.59830404699	29
1	2954	1146.315210216294	30
1	2956	1146.540164545617	31
1	2957	1146.836022100143	31
1	2959	1147.729559270312	31
1	2960	1148.298663130981	31
1	2964	1150.429649212657	30
1	2966	1150.888203475758	30
1	2970	1152.261597685188	31
1	2972	1153.650840285871	32
1	2977	1154.881693510621	32
1	2983	1155.204912276852	32
1	2986	1157.813301144919	32
1	2987	1159.520121016067	31
1	2995	1162.718519579072	31
1	2997	1162.830120498795	32
1	2998	1164.780112033113	32
1	3002	1167.408900445042	31
1	3003	1168.093398856638	30
1	3005	1168.587064095511	30
1	3007	1169.097264654068	31
1	3008	1169.143904923693	31
1	3009	1169.455444852389	30
1	3013	1170.707387822216	29
1	3014	1172.376298521684	28
1	3019	1175.764398351672	28
1	3020	1175.818528873058	28
1	3024	1176.423096223273	27
1	3025	1177.435967042753	26
1	3027	1178.207729902891	26
1	3029	1178.208991665953	27
1	3030	1178.526187458164	27
1	3032	1178.65541250038	27
1	3034	1180.400570819391	28
1	3036	1183.044572740583	29
1	3040	1183.512647906069	30
1	3042	1183.672614470494	30
1	3043	1183.77862862156	29
1	3047	1184.427079109338	29
1	3049	1185.688760336728	29
1	3051	1186.633995468629	29
1	3056	1189.748810149891	30
1	3060	1192.53064943477	30
1	3062	1193.598969895943	30
1	3063	1193.866371065329	30
1	3068	1195.008387528875	30
1	3069	1195.394993436471	30
1	3071	1195.941892328811	30
1	3073	1196.291675648356	31
1	3075	1196.366347794894	32
1	3082	1199.411691681135	32
1	3083	1199.816496701541	31
1	3084	1200.559858491161	30
1	3086	1202.355385771025	30
1	3087	1204.170962484377	30
1	3088	1206.202575431645	29
1	3089	1206.475987821815	28
1	3091	1206.898419455533	28
1	3095	1208.16063923729	29
1	3097	1209.042196169398	30
1	3102	1209.973231904988	31
1	3104	1210.704484328095	31
1	3108	1211.854707333513	30
1	3116	1213.654219943854	30
1	3118	1215.843824930394	31
1	3120	1216.377065759224	32
1	3121	1216.768306080376	32
1	3125	1219.640120033671	31
1	3126	1220.102566245054	30
1	3127	1221.099447726582	29
1	3128	1221.182237390308	28
1	3129	1221.35222064678	27
1	3130	1221.461669117512	26
1	3134	1222.402582233588	25
1	3136	1222.501166576533	25
1	3138	1222.986849175101	26
1	3140	1223.125065604813	27
1	3141	1223.525717184725	27
1	3146	1224.560909733757	27
1	3147	1224.744577119323	27
1	3148	1224.866470741392	26
1	3150	1226.00316341525	26
1	3152	1226.225441435475	27
1	3153	1227.454305292842	27
1	3158	1229.520380633656	27
1	3160	1230.505559400262	28
1	3162	1230.899406491369	29
1	3163	1231.568071145383	29
1	3164	1231.722404446054	28
1	3165	1233.145159189536	27
1	3167	1233.468296318165	27
1	3168	1234.6929058488	27
1	3169	1234.978358713662	26
1	3174	1236.288125899353	26
1	3175	1236.412515621418	26
1	3177	1237.342559068505	26
1	3178	1237.517132197466	26
1	3179	1237.649517617535	25
1	3180	1238.721427198181	24
1	3182	1239.728795775433	24
1	3184	1239.840417574317	25
1	3186	1241.357500015027	26
1	3187	1241.492432475528	26
1	3189	1244.382365050369	26
1	3190	1244.637770676036	26
1	3203	1247.201439979884	25
1	3205	1247.643904843532	25
1	3206	1247.942048305182	25
1	3207	1247.982672385311	24
1	3208	1249.695821978956	23
1	3210	1251.452276728259	23
1	3212	1251.887406713137	24
1	3213	1253.932628887723	24
1	3215	1254.509958746009	24
1	3219	1255.336103138196	25
1	3222	1255.760626918799	26
1	3223	1256.325317308235	26
1	3224	1256.582268085829	25
1	3226	1257.452676719056	25
1	3227	1257.971502346803	25
1	3228	1259.763614943763	24
1	3230	1259.937828599381	24
1	3234	1261.592088779012	25
1	3236	1262.376480248999	26
1	3239	1262.795460183355	27
1	3244	1264.016887699006	28
1	3246	1264.037170739062	29
1	3247	1264.121311914147	29
1	3258	1267.317225968893	29
1	3262	1268.365923212554	29
1	3264	1269.325002621085	29
1	3266	1269.86126539021	30
1	3267	1269.935566658428	30
1	3268	1269.972551859965	29
1	3269	1270.401929713145	28
1	3271	1270.775174810562	28
1	3272	1271.134563421933	28
1	3274	1271.626658805928	28
1	3275	1271.856035056683	28
1	3279	1273.779885949186	28
1	3285	1277.8395315041	29
1	3286	1278.244193236078	29
1	3288	1278.404385789191	29
1	3290	1278.693422022563	30
1	3292	1278.711514466608	31
1	3294	1278.976468982211	32
1	3296	1279.733380317355	33
1	3298	1281.606291055666	34
1	3300	1281.756620404801	35
1	3304	1282.479633412816	35
1	3306	1282.777460650811	35
1	3314	1285.805730894775	36
1	3318	1287.827611971727	36
1	3319	1288.166751937506	35
1	3320	1288.352904573091	34
1	3322	1290.70753372825	34
1	3327	1292.891128216923	35
1	3328	1293.232070247676	35
1	3330	1293.312577085556	35
1	3331	1293.838234262306	35
1	3332	1293.839390642576	34
1	3333	1293.886423078282	33
1	3334	1295.722396357028	32
1	3335	1296.196718679306	31
1	3339	1296.904771759838	30
1	3340	1299.967031581577	29
1	3341	1300.347269351418	28
1	3345	1301.393386522135	27
1	3347	1302.889313052148	27
1	3349	1303.048908113284	28
1	3351	1303.4856246707	29
1	3353	1303.699642954196	30
1	3355	1303.736560035526	31
1	3357	1304.118359684543	32
1	3358	1304.81428555665	32
1	3359	1306.211997960241	31
1	3361	1306.463338520349	31
1	3365	1307.945966046692	31
1	3367	1308.223780119746	31
1	3369	1308.652077236531	32
1	3373	1310.893623878192	32
1	3375	1311.723523413628	32
1	3377	1312.296490759543	33
1	3378	1312.508206657334	33
1	3380	1312.945527156619	33
1	3387	1314.881857879989	33
1	3394	1315.609782480282	32
1	3396	1316.603972495123	32
1	3397	1316.917938643469	32
1	3398	1316.921283089105	31
1	3399	1317.800171291956	30
1	3400	1319.006762045143	29
1	3402	1319.75322290733	29
1	3404	1320.591231869426	30
1	3405	1321.177786221013	30
1	3413	1323.365322093239	30
1	3415	1324.053712767214	31
1	3422	1326.618520606696	31
1	3423	1331.002810691601	30
1	3427	1331.806005607388	30
1	3429	1331.909132822671	31
1	3435	1332.517178563418	32
1	3440	1338.795810179974	33
1	3442	1338.92694795333	34
1	3444	1339.19211391746	35
1	3452	1340.133657894847	36
1	3453	1341.41353917363	36
1	3463	1346.87324834217	35
1	3467	1349.738637789555	35
1	3475	1351.154345615395	35
1	3477	1351.468377097421	35
1	3479	1352.977353217191	36
1	3480	1353.534781606589	36
1	3482	1353.751237866328	36
1	3483	1354.350318902055	36
1	3485	1354.590075127777	36
1	3487	1356.318270961522	37
1	3491	1358.554292777319	37
1	3492	1358.692298193007	36
1	3494	1359.034175522126	36
1	3499	1360.934717688205	37
1	3501	1361.886411219481	38
1	3502	1362.536518091783	38
1	3503	1362.695274162464	37
1	3504	1363.530791216986	36
1	3506	1363.622003601852	36
1	3507	1363.836573659454	36
1	3509	1364.621391936059	36
1	3510	1364.938772156753	36
1	3517	1367.469112850808	36
1	3519	1367.622553981337	37
1	3522	1368.519273279261	38
1	3526	1368.675315603135	39
1	3533	1370.884512497388	40
1	3536	1371.824922650841	41
1	3542	1372.783375206479	42
1	3543	1373.137996447666	42
1	3545	1373.565305128482	42
1	3546	1374.539296180822	42
1	3548	1375.597842536671	42
1	3549	1377.849627759741	42
1	3554	1380.517685952432	42
1	3564	1383.849580641068	42
1	3566	1384.333128898249	42
1	3570	1384.743854720667	42
1	3572	1385.459502490134	42
1	3574	1385.590922369747	43
1	3575	1386.181277551374	43
1	3576	1386.548532317209	42
1	3577	1387.576165170253	41
1	3581	1388.89745333536	40
1	3583	1389.39188274896	40
1	3584	1389.422410426723	40
1	3589	1391.161510025809	40
1	3593	1392.22375043335	40
1	3594	1393.425662224089	39
1	3595	1393.879426530074	38
1	3596	1395.050585720418	37
1	3598	1395.988326180306	37
1	3602	1396.817899892653	38
1	3605	1397.748680598465	39
1	3606	1397.783717536811	39
1	3610	1399.81130011463	38
1	3612	1399.95067502721	38
1	3613	1399.967407389907	38
1	3617	1400.076904811862	38
1	3620	1400.316653911755	39
1	3622	1400.359529313416	40
1	3623	1401.172763948829	40
1	3627	1401.846828161029	40
1	3632	1402.682919876852	40
1	3633	1403.96368778284	39
1	3635	1404.501977229008	39
1	3636	1405.871001772655	39
1	3643	1408.714431248833	38
1	3644	1409.309800270349	37
1	3646	1410.829030959412	37
1	3647	1411.492849429599	37
1	3649	1412.122388724199	37
1	3651	1412.296720583812	38
1	3653	1412.457695078795	39
1	3654	1412.840152057566	39
1	3655	1413.041468564217	38
1	3659	1415.044865562593	37
1	3666	1416.769862909478	37
1	3668	1417.163508982368	37
1	3669	1419.596248311685	36
1	3671	1420.148442209915	36
1	3673	1420.460360459768	37
1	3680	1422.423235710171	38
1	3682	1423.158840827048	38
1	3690	1426.698132847118	38
1	3691	1426.806273995618	38
1	3692	1427.232561931624	37
1	3693	1428.218917221915	36
1	3694	1429.098319004606	35
1	3696	1430.179943019286	35
1	3697	1430.555923522199	35
1	3701	1432.397676050936	35
1	3706	1433.141414545455	36
1	3708	1434.982335232109	36
1	3710	1435.122645157586	36
1	3712	1437.032262907654	37
1	3716	1437.611542854425	37
1	3718	1437.659960268194	37
1	3720	1438.264566103757	38
1	3721	1438.405159299771	38
1	3722	1438.675813153143	37
1	3723	1438.969897590149	36
1	3724	1439.777862305054	35
1	3735	1443.080054800698	35
1	3736	1443.093002090817	35
1	3738	1443.207599262763	35
1	3740	1443.334821987247	36
1	3745	1445.692352658977	37
1	3746	1446.497290875654	37
1	3759	1451.793438978544	37
1	3767	1454.374610655903	37
1	3768	1454.895899698	36
1	3770	1455.295298208786	36
1	3771	1456.461478919117	36
1	3780	1459.110992078956	36
1	3782	1459.352886610658	37
1	3784	1459.998072103354	38
1	3787	1460.342001319946	39
1	3792	1462.822022317838	40
1	3798	1463.84212412101	41
1	3799	1464.024571544335	41
1	3801	1465.447310858613	41
1	3803	1465.63613274973	42
1	3805	1465.770300161692	43
1	3809	1470.158896599671	43
1	3811	1470.240107254	43
1	3815	1471.552196310301	43
1	3816	1472.642396025977	42
1	3821	1473.924834420102	42
1	3822	1476.283998966621	42
1	3824	1476.803755906751	42
1	3829	1478.033169444499	43
1	3830	1478.957168411347	43
1	3831	1479.177664664946	42
1	3832	1479.537552083471	41
1	3833	1479.943631675515	40
1	3834	1481.095261112798	39
1	3835	1482.612888724332	38
1	3842	1487.525084415739	37
1	3844	1487.851423541411	37
1	3845	1488.241381547474	37
1	3846	1488.320328020925	36
1	3848	1488.547379691501	36
1	3855	1491.812735710561	36
1	3862	1493.690589215507	36
1	3865	1495.067327043404	37
1	3867	1495.180393647354	38
1	3869	1495.646697658758	39
1	3871	1496.278231649861	40
1	3876	1499.540637521371	41
1	3877	1500.196508691551	41
1	3882	1502.092391830929	41
1	3886	1502.958298465262	42
1	3889	1503.213895109749	43
1	3890	1503.933793645018	43
1	3892	1503.947005231456	43
1	3894	1505.49503345609	44
1	3895	1506.057263375528	44
1	3897	1506.088109048801	44
1	3899	1506.505405517843	45
1	3901	1506.596284593246	46
1	3914	1512.480305362041	46
1	3915	1513.362844033893	45
1	3919	1514.116282962069	45
1	3921	1514.590313504083	45
1	3922	1515.503160310479	44
1	3926	1516.580034183687	43
1	3928	1517.088338094455	43
1	3930	1517.305876455316	44
1	3931	1517.497629421317	44
1	3933	1518.17778739421	44
1	3935	1518.697133732511	45
1	3942	1519.862912980657	46
1	3944	1520.353437639823	47
1	3946	1520.599234805941	48
1	3952	1523.119959050512	49
1	3954	1523.849149794518	50
1	3964	1525.883959037955	51
1	3966	1526.206157880852	52
1	3968	1526.226639175646	53
1	3970	1527.916190109651	53
1	3978	1529.666298986796	53
1	3980	1529.875580723535	54
1	3991	1535.314725393487	55
1	3993	1535.326487908811	56
1	3995	1537.400298601137	57
1	4000	1537.826490831063	58
1	4002	1538.382330592737	59
1	4003	1539.975396759715	59
1	4004	1540.944215093626	58
1	4006	1542.248333774488	58
1	4008	1543.080502404128	59
1	4009	1543.281667323267	59
1	4010	1543.49357155083	58
1	4012	1543.642458842816	58
1	4013	1543.861656518043	58
1	4015	1545.0449184893	58
1	4017	1547.849982057347	59
1	4022	1549.728912466598	60
1	4023	1550.721792794933	60
1	4028	1552.850637582159	60
1	4030	1553.350506714339	61
1	4031	1553.840967297401	61
1	4032	1553.893793547493	60
1	4042	1558.967551177222	60
1	4045	1559.674729527487	61
1	4052	1561.345635439352	61
1	4053	1561.449507059983	60
1	4054	1561.772020983022	59
1	4058	1562.542011031102	58
1	4059	1563.730925075891	57
1	4063	1564.57101455663	57
1	4066	1564.720485664186	58
1	4068	1564.958074700422	59
1	4077	1567.628215675712	60
1	4079	1567.695036854008	61
1	4081	1568.565584937934	62
1	4084	1568.951658522196	63
1	4086	1570.270451775938	63
1	4088	1570.516954546842	63
1	4090	1570.854746234896	64
1	4091	1571.32797897965	64
1	4095	1571.855189764287	64
1	4100	1572.370728431435	65
1	4103	1573.512507467308	66
1	4104	1573.659335688749	66
1	4106	1575.083908069701	66
1	4110	1575.365676788742	67
1	4115	1575.750039460774	68
1	4118	1576.525963329993	69
1	4119	1576.744044094432	69
1	4120	1578.04421380936	68
1	4121	1578.110933690427	67
1	4122	1580.812890452445	66
1	4126	1581.428776842418	66
1	4128	1582.556392689738	66
1	4130	1584.052534008836	66
1	4132	1585.687733429182	67
1	4133	1585.779774076881	67
1	4135	1587.029681492288	67
1	4139	1589.798313999435	67
1	4141	1590.236667155498	67
1	4142	1592.051580625384	67
1	4143	1592.261563760333	66
1	4144	1592.984397753762	65
1	4145	1593.456157523212	64
1	4147	1593.551013435948	64
1	4149	1594.610920742561	65
1	4150	1595.52016439229	65
1	4151	1596.819317210255	64
1	4159	1599.518990327772	64
1	4160	1599.794521078566	64
1	4161	1600.221148557911	63
1	4162	1600.64111149519	62
1	4164	1600.679247268366	62
1	4168	1602.39779575995	62
1	4169	1603.85478215565	61
1	4171	1604.82675655208	61
1	4177	1605.748249078875	62
1	4180	1606.470039712599	63
1	4183	1607.943057707358	64
1	4191	1609.808379341513	65
1	4192	1609.857420808948	65
1	4194	1610.891158344338	65
1	4198	1612.349913502741	65
1	4200	1612.507965653797	65
1	4202	1613.010893519453	66
1	4207	1613.644720031796	67
1	4208	1614.081494135245	67
1	4209	1615.122356804258	66
1	4211	1616.090057860405	66
1	4212	1616.812704183948	66
1	4214	1617.152363990861	66
1	4215	1618.295558111488	66
1	4219	1618.819603456186	65
1	4220	1619.252711257718	64
1	4222	1622.714815672417	64
1	4227	1623.724571548346	65
1	4228	1624.251766647293	65
1	4232	1627.523863931805	65
1	4234	1627.784486590275	66
1	4237	1628.801845399197	67
1	4241	1629.654346287235	68
1	4244	1630.098270225356	69
1	4246	1630.162957508652	70
1	4263	1634.851111910082	71
1	4268	1636.034428493441	72
1	4270	1636.04856698593	73
1	4271	1637.485961175978	73
1	4273	1637.601998398489	73
1	4275	1637.766776079245	74
1	4279	1638.163870452242	74
1	4286	1641.898304154995	74
1	4289	1643.429600996982	75
1	4290	1643.621563352111	75
1	4292	1645.043561939434	75
1	4293	1646.11693615766	75
1	4295	1646.482920644382	75
1	4296	1646.614577375583	75
1	4300	1647.125203819501	75
1	4302	1648.166377939768	75
1	4303	1648.499010526404	74
1	4305	1648.620325588934	74
1	4307	1648.676791883572	75
1	4314	1651.086664603343	75
1	4316	1651.243010748703	75
1	4321	1654.96888010452	76
1	4332	1658.796077013053	77
1	4333	1660.024972890111	77
1	4334	1660.419713073621	76
1	4338	1662.549053538134	75
1	4340	1662.59247813048	75
1	4341	1662.815372558465	75
1	4342	1663.109158005659	74
1	4344	1663.52153486016	74
1	4346	1663.914006150446	75
1	4348	1664.581906272742	76
1	4349	1666.024556212287	76
1	4351	1666.097367112919	76
1	4358	1669.145641805711	76
1	4362	1670.887769516186	75
1	4364	1670.890348044111	75
1	4366	1672.211859647299	76
1	4367	1672.528325711753	76
1	4374	1673.523445548466	76
1	4376	1674.351289488659	76
1	4377	1674.446003269532	75
1	4378	1676.155317327026	74
1	4379	1676.742615549038	73
1	4381	1677.604418403875	73
1	4382	1680.583703880019	73
1	4384	1681.641733920528	73
1	4385	1682.08541282088	73
1	4386	1682.898132034959	72
1	4390	1684.936573604025	71
1	4394	1686.258604039291	71
1	4396	1686.435445371539	72
1	4398	1687.302272326699	73
1	4407	1693.087613838667	74
1	4408	1693.288187464034	74
1	4410	1694.602129226412	74
1	4412	1695.170330130206	75
1	4413	1696.77442110091	75
1	4414	1698.051571117133	74
1	4418	1699.603844487515	74
1	4424	1702.058040286663	75
1	4431	1708.631750906255	75
1	4437	1709.460265090059	75
1	4439	1709.533835708337	76
1	4442	1710.226406816852	76
1	4443	1711.653343746963	75
1	4445	1711.837706307727	75
1	4446	1712.172119962536	75
1	4447	1712.990537463438	74
1	4449	1713.208477942535	74
1	4454	1715.715676679171	75
1	4456	1715.89244592589	76
1	4458	1715.977651383451	77
1	4460	1717.789488900388	78
1	4461	1718.074422281127	78
1	4462	1719.274422894305	77
1	4467	1720.301221330361	77
1	4477	1723.692079535117	78
1	4479	1724.992089989864	78
1	4485	1727.914656170152	78
1	4491	1729.107064606401	78
1	4493	1729.198900882263	78
1	4495	1729.859666972393	79
1	4496	1730.22808176991	79
1	4500	1731.467604862653	78
1	4502	1731.724855215912	78
1	4506	1732.879714509812	78
1	4513	1734.895691433425	78
1	4515	1737.112913112258	78
1	4517	1738.04702403791	78
1	4524	1740.035824925102	79
1	4527	1740.595911764027	80
1	4528	1741.296537594935	80
1	4530	1741.587555722805	80
1	4531	1742.143865343748	80
1	4535	1743.577081342867	79
1	4537	1743.829160514459	79
1	4538	1744.010330787669	79
1	4542	1745.302780064923	79
1	4545	1745.739013125794	80
1	4547	1745.783153997819	81
1	4549	1746.105201654994	82
1	4550	1746.765986493613	82
1	4552	1747.460260809798	82
1	4553	1747.508072929613	82
1	4555	1747.761546896948	82
1	4559	1748.433778125631	82
1	4561	1748.604467732431	82
1	4563	1748.854288430653	83
1	4564	1749.131221623043	83
1	4565	1749.556806238317	82
1	4566	1749.802660050309	81
1	4568	1750.012130629112	81
1	4569	1750.937526909407	81
1	4570	1751.617723516833	80
1	4576	1752.125007703602	80
1	4580	1753.08116746201	81
1	4581	1753.941327474253	81
1	4587	1757.329898160454	81
1	4590	1757.953189779254	81
1	4592	1758.853772387593	81
1	4593	1759.249756439176	81
1	4597	1760.840819892863	80
1	4599	1761.3369372151	80
1	4600	1763.871374499696	80
1	4602	1764.536762067363	80
1	4604	1764.745063275232	81
1	4605	1764.886179809073	81
1	4606	1765.178946687158	80
1	4607	1765.294641072572	79
1	4613	1766.009008317315	79
1	4617	1766.606195379732	80
1	4621	1766.770929600967	80
1	4623	1766.795036440198	80
1	4625	1768.081705010157	81
1	4630	1768.851270317907	82
1	4632	1769.211548710604	83
1	4633	1769.817746362164	83
1	4635	1769.919926483882	83
1	4637	1769.963782055388	84
1	4638	1770.014942094715	84
1	4640	1771.136392261959	84
1	4642	1771.302921533304	85
1	4647	1772.832435121726	86
1	4648	1773.078475756051	86
1	4652	1774.0876116693	86
1	4654	1774.726525499531	87
1	4660	1775.516161327038	88
1	4662	1776.065717000664	89
1	4664	1776.177671621761	90
1	4669	1778.759792124939	91
1	4671	1779.956934199045	92
1	4673	1780.670262278261	93
1	4674	1781.022918425327	93
1	4678	1782.126255358028	92
1	4679	1782.158787680938	91
1	4681	1782.84519332972	91
1	4683	1783.20295937652	92
1	4687	1786.119264698315	92
1	4689	1786.387596423064	92
1	4690	1786.523615570478	92
1	4692	1786.617400707904	92
1	4694	1787.079239844328	93
1	4696	1787.28533245354	94
1	4697	1788.644550350626	94
1	4699	1789.046460280239	94
1	4700	1789.949373054203	94
1	4702	1790.399543502834	94
1	4703	1790.991529429673	94
1	4705	1791.879018441617	94
1	4709	1795.080110163151	95
1	4711	1795.993729556858	95
1	4712	1797.384297374498	94
1	4718	1798.973578721612	94
1	4722	1799.962056019351	95
1	4723	1800.118970791104	95
1	4727	1802.951143841233	94
1	4729	1803.090435811166	94
1	4733	1804.599089973195	94
1	4735	1805.973638586297	94
1	4740	1808.370639328666	95
1	4741	1810.476851116073	95
1	4745	1812.388919214314	94
1	4747	1812.538854069579	94
1	4749	1814.525985352456	95
1	4751	1817.122790199795	96
1	4756	1817.685063963707	97
1	4757	1819.453035567604	97
1	4759	1819.495583788258	97
1	4761	1819.966239890101	98
1	4762	1820.514963638367	98
1	4767	1822.138100885139	98
1	4768	1822.687261956475	98
1	4772	1826.750818085866	97
1	4773	1827.672171567389	96
1	4774	1828.016018824123	95
1	4776	1828.041534613271	95
1	4777	1828.351900164911	95
1	4779	1828.597251044134	95
1	4780	1830.603030784329	95
1	4781	1830.850489233118	94
1	4782	1831.093577778136	93
1	4787	1831.344690833476	93
1	4791	1832.461117492105	94
1	4793	1833.311818310984	94
1	4794	1833.789114580285	93
1	4796	1834.148039213869	93
1	4797	1834.587767294589	93
1	4799	1835.603403847052	93
1	4801	1835.797095463344	94
1	4803	1835.906672759951	95
1	4804	1836.096560272655	95
1	4805	1836.813920475206	94
1	4813	1839.079949761908	94
1	4818	1840.332952529786	95
1	4825	1842.28476030748	95
1	4826	1842.573952085705	94
1	4827	1844.171096012233	93
1	4828	1844.755042010194	92
1	4832	1848.180269626484	91
1	4836	1848.484215265654	91
1	4838	1849.792207605438	92
1	4847	1850.834537932835	93
1	4848	1851.157981426575	93
1	4850	1851.549284453384	93
1	4851	1851.879473824368	93
1	4853	1852.352078387905	93
1	4857	1853.472312092976	94
1	4866	1855.697022383332	95
1	4867	1856.994600817356	95
1	4877	1860.41049502713	95
1	4879	1860.937820638676	95
1	4880	1861.141056442236	94
1	4881	1861.588205373615	93
1	4882	1862.597943593314	92
1	4884	1862.878275782578	92
1	4886	1863.401289557342	93
1	4888	1863.830207370289	94
1	4892	1868.532877569108	94
1	4893	1868.601449110408	93
1	4897	1871.844298154815	92
1	4899	1874.092699591762	92
1	4900	1874.225362487224	92
1	4902	1874.515133347574	92
1	4904	1875.359643697607	93
1	4905	1875.564125748698	93
1	4907	1876.335390504828	93
1	4911	1879.405838676672	94
1	4913	1879.736744233896	94
1	4914	1879.779088631058	93
1	4915	1883.030599174173	92
1	4916	1885.98137194395	91
1	4917	1886.673822880078	90
1	4918	1886.863003448625	89
1	4922	1888.13798873592	88
1	4924	1888.367153408631	88
1	4925	1888.609113257533	88
1	4927	1890.075777306745	88
1	4928	1890.724137833199	88
1	4929	1890.812422413814	87
1	4930	1892.792094662715	86
1	4931	1892.926146260621	85
1	4935	1893.822765894314	84
1	4937	1895.312012954934	84
1	4947	1900.312425875671	85
1	4950	1901.347387075373	86
1	4951	1901.848318802396	86
1	4953	1902.955698519218	86
1	4954	1903.793492586792	86
1	4955	1904.398965217582	85
1	4957	1905.724586274577	85
1	4959	1907.164560836503	86
1	4960	1908.10338706308	86
1	4964	1909.164258110388	86
1	4966	1910.348316313923	87
1	4968	1912.209350753232	87
1	4969	1914.237612892723	86
1	4970	1914.419918704968	85
1	4971	1914.525361468906	84
1	4973	1914.572101711112	84
1	4974	1915.383610934145	84
1	4976	1916.043466873854	84
1	4977	1917.822191580802	84
[...]
10	2567	988.64962595132	23.750577944325
10	2575	992.352997487746	22.435529060381
10	2578	994.339840475093	24.206416734161
10	2582	996.750178051815	25.403224719629
10	2594	1001.293620263362	27.979928420075
10	2603	1003.146695578934	26.728339128923
10	2626	1010.295344938288	31.551290097623
10	2634	1013.894559075644	34.472264794343
10	2635	1013.921013354004	34.388207337767
10	2640	1016.33709369854	35.982163883946
10	2643	1019.112937829853	38.037555144803
10	2654	1021.177659960992	34.753260413401
10	2658	1023.132366712136	35.66174379807
10	2669	1030.420118755779	41.566832824742
10	2677	1032.331204725222	40.169874437788
10	2684	1034.432890250122	39.845490826345
10	2685	1035.246850695555	38.063152623508
10	2693	1037.740173332539	37.318585255675
10	2696	1038.630615662484	37.970862276525
10	2697	1039.200712713661	37.657818210902
10	2698	1040.038020758531	38.280071801214
10	2699	1040.911423455462	38.329820059768
10	2700	1043.783495875435	40.310495041928
10	2701	1043.872929406941	40.378595950702
10	2702	1044.465479765882	39.010811335003
10	2707	1050.634703531944	44.302930442414
10	2711	1053.332338669249	44.980540305854
10	2712	1053.403304301082	44.012419507868
10	2715	1055.94604163163	44.088418864919
10	2716	1056.626599478978	44.008522959129
10	2717	1057.250081641048	44.393230904969
10	2718	1057.588387748242	43.570829281435
10	2719	1057.838919986202	41.85637667391
10	2722	1058.764703104826	40.842103295537
10	2723	1058.770658919851	39.441385272256
10	2724	1059.962874736849	39.99319310154
10	2734	1064.225326157327	43.102229769772
10	2749	1067.616404920319	43.704939811228
10	2750	1069.019698683182	44.1984797071
10	2756	1072.848024381079	45.155923490718
10	2775	1077.523370902807	46.045054643973
10	2779	1079.035959861142	43.692077198674
10	2780	1079.801990310195	43.792342507949
10	2783	1082.373580841794	44.699695709646
10	2784	1083.240140426269	44.721511269692
10	2785	1083.275005025606	37.337530809299
10	2786	1083.829718415185	36.725891836539
10	2789	1085.557406395608	34.142660640212
10	2793	1087.829833081342	29.534861959008
10	2794	1088.005326675678	26.683508876127
10	2795	1088.496314545062	26.977868025993
10	2811	1095.12044358541	31.108712276471
10	2819	1096.278625822708	31.010040590293
10	2847	1105.744850304184	38.917862194277
10	2852	1108.051327152967	37.31254472391
10	2853	1108.332821276301	35.804212615463
10	2857	1109.574185356179	35.56170224758
10	2858	1110.192372746793	36.036415246899
10	2862	1111.987712061185	35.460244282601
10	2863	1112.308108725378	35.646572578849
10	2864	1112.56623242938	34.266296991507
10	2865	1113.082452357615	32.734709164569
10	2866	1113.21863331774	28.023032313427
10	2876	1115.509758084947	26.904632690854
10	2879	1115.795849530166	26.045750924904
10	2882	1116.123074879332	25.478785712731
10	2894	1122.284343552711	28.584629752928
10	2897	1122.913962750242	27.526368422017
10	2916	1129.578568830984	31.290088890998
10	2917	1129.758948197976	31.355619919035
10	2928	1134.588311441635	34.159766409823
10	2934	1137.738430655422	35.181658543929
10	2935	1138.083242598113	35.464230886918
10	2939	1139.158139307985	34.52523796261
10	2940	1140.325900115798	34.512779650312
10	2945	1141.414955636268	34.851261891972
10	2948	1141.854105045475	32.805258373988
10	2957	1146.836022100143	35.773266667808
10	2960	1148.298663130981	34.619562636535
10	2964	1150.429649212657	35.630790509048
10	2977	1154.881693510621	38.992264198222
10	2986	1157.813301144919	37.74589933506
10	2987	1159.520121016067	38.888425023831
10	2998	1164.780112033113	40.453946724358
10	3002	1167.408900445042	40.534616801317
10	3003	1168.093398856638	40.343142431001
10	3008	1169.143904923693	41.38093832632
10	3009	1169.455444852389	40.358051739086
10	3013	1170.707387822216	39.523332461904
10	3014	1172.376298521684	40.661680558997
10	3020	1175.818528873058	38.435527903852
10	3024	1176.423096223273	38.302266630738
10	3025	1177.435967042753	36.289512251335
10	3030	1178.526187458164	37.176262139479
10	3042	1183.672614470494	41.539472980585
10	3043	1183.77862862156	41.18032457457
10	3049	1185.688760336728	39.148595791111
10	3060	1192.53064943477	41.642445959012
10	3063	1193.866371065329	41.994750383271
10	3069	1195.394993436471	41.7441531506
10	3082	1199.411691681135	44.206779404283
10	3083	1199.816496701541	38.754669228755
10	3084	1200.559858491161	39.315300649211
10	3087	1204.170962484377	41.452442905305
10	3088	1206.202575431645	43.37245493285
10	3089	1206.475987821815	39.70733680039
10	3104	1210.704484328095	40.728976743067
10	3108	1211.854707333513	36.090308981841
10	3121	1216.768306080376	38.559314414423
10	3125	1219.640120033671	39.23954921428
10	3126	1220.102566245054	37.057993504471
10	3127	1221.099447726582	37.746381897023
10	3128	1221.182237390308	37.669589484239
10	3129	1221.35222064678	36.930320302088
10	3130	1221.461669117512	37.034590008174
10	3134	1222.402582233588	35.362489500476
10	3141	1223.525717184725	33.776907034834
10	3147	1224.744577119323	31.14560722338
10	3148	1224.866470741392	30.738104179491
10	3153	1227.454305292842	32.445917763967
10	3163	1231.568071145383	35.276395497027
10	3164	1231.722404446054	35.35605665116
10	3165	1233.145159189536	35.975364714439
10	3168	1234.6929058488	35.936352395467
10	3169	1234.978358713662	32.622972942637
10	3175	1236.412515621418	28.786789970466
10	3178	1237.517132197466	29.356492960176
10	3179	1237.649517617535	28.607321448137
10	3180	1238.721427198181	28.922803187361
10	3187	1241.492432475528	31.51920057054
10	3190	1244.637770676036	33.776005317105
10	3203	1247.201439979884	33.54722003603
10	3206	1247.942048305182	32.098223374788
10	3207	1247.982672385311	31.605606626087
10	3208	1249.695821978956	31.575392118419
10	3213	1253.932628887723	32.179975893867
10	3223	1256.325317308235	33.338468133134
10	3224	1256.582268085829	33.457202481016
10	3227	1257.971502346803	34.298733514722
10	3228	1259.763614943763	35.202705210006
10	3247	1264.121311914147	35.897023920973
10	3262	1268.365923212554	37.466516721185
10	3267	1269.935566658428	36.467270340263
10	3268	1269.972551859965	34.231414037791
10	3269	1270.401929713145	34.113803813792
10	3272	1271.134563421933	33.792004353428
10	3275	1271.856035056683	32.12723928125
10	3286	1278.244193236078	36.886693221051
10	3304	1282.479633412816	37.749547070735
10	3318	1287.827611971727	36.375335243468
10	3319	1288.166751937506	36.279345224369
10	3320	1288.352904573091	33.842945827082
10	3328	1293.232070247676	37.89596710948
10	3331	1293.838234262306	38.077607343507
10	3332	1293.839390642576	36.38671392352
10	3333	1293.886423078282	33.948594478901
10	3334	1295.722396357028	35.378254715218
10	3335	1296.196718679306	34.604629900294
10	3339	1296.904771759838	34.109311576483
10	3340	1299.967031581577	36.601265870145
10	3341	1300.347269351418	36.330381652412
10	3345	1301.393386522135	36.439410225857
10	3358	1304.81428555665	37.497059587757
10	3359	1306.211997960241	38.340239368084
10	3365	1307.945966046692	38.084700656482
10	3373	1310.893623878192	39.266965072264
10	3378	1312.508206657334	39.654874007767
10	3387	1314.881857879989	36.477472090798
10	3394	1315.609782480282	36.898268013674
10	3397	1316.917938643469	37.941469661258
10	3398	1316.921283089105	37.18790277175
10	3399	1317.800171291956	36.19388023629
10	3400	1319.006762045143	37.250141640342
10	3405	1321.177786221013	39.383450996329
10	3422	1326.618520606696	40.812789711921
10	3423	1331.002810691601	44.912286818438
10	3453	1341.41353917363	48.100962088074
10	3463	1346.87324834217	43.824340228886
10	3475	1351.154345615395	47.417785579869
10	3480	1353.534781606589	49.416421922046
10	3483	1354.350318902055	47.886980381706
10	3491	1358.554292777319	50.330512657573
10	3492	1358.692298193007	50.040220956476
10	3502	1362.536518091783	50.812994678155
10	3503	1362.695274162464	50.398783402921
10	3504	1363.530791216986	50.585264060367
10	3507	1363.836573659454	50.672857258534
10	3510	1364.938772156753	51.197459470692
10	3543	1373.137996447666	53.384773540336
10	3546	1374.539296180822	53.948064311396
10	3549	1377.849627759741	56.304978331528
10	3564	1383.849580641068	52.04357503368
10	3570	1384.743854720667	52.226676157249
10	3575	1386.181277551374	48.048581633883
10	3576	1386.548532317209	47.752722137235
10	3577	1387.576165170253	48.649217216923
10	3581	1388.89745333536	49.523671881321
10	3584	1389.422410426723	49.288752531876
10	3593	1392.22375043335	46.301234914569
10	3594	1393.425662224089	44.39440431749
10	3595	1393.879426530074	44.140788740519
10	3596	1395.050585720418	44.83232315633
10	3606	1397.783717536811	44.80636431962
10	3610	1399.81130011463	45.221224986853
10	3613	1399.967407389907	43.649136428385
10	3623	1401.172763948829	42.138588426703
10	3632	1402.682919876852	41.748202188647
10	3633	1403.96368778284	42.077276563359
10	3636	1405.871001772655	42.248998170803
10	3643	1408.714431248833	41.245318398025
10	3644	1409.309800270349	41.687246289012
10	3647	1411.492849429599	42.973576150338
10	3654	1412.840152057566	44.265450996243
10	3655	1413.041468564217	44.366152961082
10	3659	1415.044865562593	43.219942911752
10	3668	1417.163508982368	43.598203853886
10	3669	1419.596248311685	43.998405775014
10	3682	1423.158840827048	42.436171882362
10	3691	1426.806273995618	42.473145097369
10	3692	1427.232561931624	42.813139065497
10	3693	1428.218917221915	42.759414731781
10	3694	1429.098319004606	43.507396634859
10	3697	1430.555923522199	42.581295308953
10	3708	1434.982335232109	43.8208252063
10	3716	1437.611542854425	41.623216674119
10	3721	1438.405159299771	42.219752065784
10	3722	1438.675813153143	41.85791326049
10	3723	1438.969897590149	41.221216991684
10	3724	1439.777862305054	41.738488693574
10	3736	1443.093002090817	42.776348179062
10	3746	1446.497290875654	45.271559835812
10	3767	1454.374610655903	43.545579696491
10	3768	1454.895899698	42.773510973801
10	3771	1456.461478919117	44.164758335305
10	3799	1464.024571544335	47.254708634857
10	3809	1470.158896599671	49.698536139903
10	3815	1471.552196310301	49.578791260897
10	3816	1472.642396025977	50.219160315806
10	3822	1476.283998966621	50.82726871926
10	3830	1478.957168411347	48.777225392061
10	3831	1479.177664664946	48.075198642041
10	3832	1479.537552083471	47.139876032535
10	3833	1479.943631675515	47.205825778664
10	3834	1481.095261112798	47.953846567343
10	3835	1482.612888724332	47.490243566746
10	3842	1487.525084415739	49.865124147545
10	3845	1488.241381547474	49.976815443717
10	3846	1488.320328020925	48.396021555553
10	3855	1491.812735710561	48.732680909863
10	3877	1500.196508691551	56.351495201312
10	3890	1503.933793645018	52.248724985818
10	3895	1506.057263375528	54.263824396984
10	3914	1512.480305362041	55.192705814005
10	3915	1513.362844033893	54.251851954937
10	3921	1514.590313504083	54.592241400729
10	3922	1515.503160310479	55.161158990533
10	3926	1516.580034183687	53.758011865849
10	3931	1517.497629421317	53.927297814186
10	3970	1527.916190109651	60.601085752002
10	4003	1539.975396759715	61.942227315216
10	4004	1540.944215093626	58.176983612373
10	4009	1543.281667323267	58.269201787053
10	4010	1543.49357155083	55.642148009419
10	4013	1543.861656518043	55.314276826542
10	4023	1550.721792794933	60.953590859667
10	4031	1553.840967297401	60.150378081894
10	4032	1553.893793547493	58.826466504089
10	4052	1561.345635439352	61.804997917981
10	4053	1561.449507059983	61.076933429833
10	4054	1561.772020983022	59.679629152093
10	4058	1562.542011031102	59.58371256584
10	4059	1563.730925075891	60.517029966142
10	4086	1570.270451775938	63.765046258095
10	4091	1571.32797897965	64.731694386404
10	4104	1573.659335688749	64.056573143733
10	4119	1576.744044094432	62.627761132363
10	4120	1578.04421380936	61.980939570103
10	4121	1578.110933690427	61.022595595972
10	4122	1580.812890452445	63.507013997129
10	4128	1582.556392689738	63.859258957227
10	4133	1585.779774076881	67.054277544618
10	4139	1589.798313999435	69.935401018778
10	4142	1592.051580625384	71.698142985561
10	4143	1592.261563760333	71.662328954392
10	4144	1592.984397753762	69.86443870325
10	4145	1593.456157523212	69.607007728694
10	4150	1595.52016439229	71.380425639323
10	4151	1596.819317210255	72.104532602361
10	4160	1599.794521078566	73.588363197714
10	4161	1600.221148557911	73.994509382265
10	4162	1600.64111149519	72.569258244992
10	4168	1602.39779575995	72.731496773154
10	4169	1603.85478215565	73.979201432115
10	4192	1609.857420808948	74.542695415461
10	4198	1612.349913502741	74.949614901604
10	4208	1614.081494135245	76.255003304182
10	4209	1615.122356804258	76.740026211521
10	4212	1616.812704183948	74.56437040946
10	4215	1618.295558111488	75.21505570736
10	4219	1618.819603456186	73.774684966886
10	4220	1619.252711257718	71.402729200371
10	4228	1624.251766647293	74.522854180695
10	4271	1637.485961175978	79.742094756028
10	4279	1638.163870452242	79.19631927502
10	4290	1643.621563352111	83.344553703672
10	4293	1646.11693615766	83.999364593775
10	4296	1646.614577375583	82.527953749407
10	4302	1648.166377939768	83.445892275582
10	4303	1648.499010526404	83.540935825982
10	4314	1651.086664603343	83.458448927631
10	4333	1660.024972890111	89.508018343269
10	4334	1660.419713073621	89.564966838725
10	4338	1662.549053538134	90.693863773847
10	4341	1662.815372558465	90.44464412703
10	4342	1663.109158005659	89.596650538351
10	4349	1666.024556212287	90.940648142586
10	4358	1669.145641805711	93.779965016969
10	4362	1670.887769516186	95.137730055412
10	4367	1672.528325711753	96.00236238176
10	4376	1674.351289488659	90.298755479823
10	4377	1674.446003269532	88.75826984035
10	4378	1676.155317327026	89.125635834738
10	4379	1676.742615549038	88.431845454229
10	4382	1680.583703880019	90.347036724521
10	4385	1682.08541282088	88.534399384932
10	4386	1682.898132034959	88.287211292398
10	4390	1684.936573604025	85.417583276253
10	4408	1693.288187464034	88.027763977583
10	4413	1696.77442110091	91.026172022035
10	4414	1698.051571117133	91.581531404534
10	4431	1708.631750906255	97.740592561917
10	4442	1710.226406816852	97.718441163055
10	4443	1711.653343746963	98.64245022751
10	4446	1712.172119962536	98.88472602966
10	4447	1712.990537463438	99.345817431642
10	4461	1718.074422281127	100.92205829027
10	4462	1719.274422894305	100.47312194494
10	4479	1724.992089989864	101.26751844152
10	4491	1729.107064606401	101.5832006746
10	4496	1730.22808176991	102.44359517963
10	4500	1731.467604862653	102.45499736285
10	4506	1732.879714509812	102.78144428446
10	4515	1737.112913112258	106.76147645039
10	4528	1741.296537594935	105.26210910149
10	4531	1742.143865343748	106.09529835782
10	4535	1743.577081342867	105.81030526362
10	4538	1744.010330787669	106.15554118407
10	4550	1746.765986493613	104.86768233862
10	4553	1747.508072929613	104.07847193263
10	4559	1748.433778125631	101.95085748125
10	4564	1749.131221623043	102.255698199
10	4565	1749.556806238317	102.43160241882
10	4566	1749.802660050309	101.18233446137
10	4569	1750.937526909407	102.26073502584
10	4570	1751.617723516833	102.63888108878
10	4581	1753.941327474253	102.69831672555
10	4590	1757.953189779254	102.98430967473
10	4593	1759.249756439176	102.37565569986
10	4597	1760.840819892863	102.04474287981
10	4600	1763.871374499696	102.96181478511
10	4605	1764.886179809073	102.29370167859
10	4606	1765.178946687158	101.657411827
10	4607	1765.294641072572	101.38063492213
10	4621	1766.770929600967	100.52062657556
10	4633	1769.817746362164	98.927398318053
10	4638	1770.014942094715	97.803082447416
10	4648	1773.078475756051	99.779551269633
10	4674	1781.022918425327	97.051294105192
10	4678	1782.126255358028	95.867651318737
10	4679	1782.158787680938	95.723342309399
10	4687	1786.119264698315	97.249720149443
10	4690	1786.523615570478	97.19652520254
10	4697	1788.644550350626	95.556936511959
10	4700	1789.949373054203	95.347243827791
10	4703	1790.991529429673	95.821199299467
10	4711	1795.993729556858	96.389885069343
10	4712	1797.384297374498	97.305902168309
10	4723	1800.118970791104	95.611031974781
10	4727	1802.951143841233	94.117042232541
10	4733	1804.599089973195	95.065254264858
10	4741	1810.476851116073	97.268373173538
10	4745	1812.388919214314	96.673242535143
10	4757	1819.453035567604	103.47538418415
10	4762	1820.514963638367	102.72547473798
10	4768	1822.687261956475	102.38604062611
10	4772	1826.750818085866	103.05873855075
10	4773	1827.672171567389	101.58963089724
10	4774	1828.016018824123	100.10136265397
10	4777	1828.351900164911	99.152999282648
10	4780	1830.603030784329	100.74336381194
10	4781	1830.850489233118	100.37933640131
10	4782	1831.093577778136	99.368722562224
10	4793	1833.311818310984	98.416126877559
10	4794	1833.789114580285	95.742090542375
10	4797	1834.587767294589	95.518300913768
10	4804	1836.096560272655	96.616880646465
10	4805	1836.813920475206	96.778095550104
10	4825	1842.28476030748	96.981980242557
10	4826	1842.573952085705	96.834938959911
10	4827	1844.171096012233	98.387942014414
10	4828	1844.755042010194	98.6498403552
10	4832	1848.180269626484	100.41872272954
10	4848	1851.157981426575	102.55351369414
10	4851	1851.879473824368	103.02518539371
10	4867	1856.994600817356	105.35325829855
10	4879	1860.937820638676	104.62646086844
10	4880	1861.141056442236	103.81115828178
10	4881	1861.588205373615	102.73443298602
10	4882	1862.597943593314	103.29215892634
10	4892	1868.532877569108	103.99611550174
10	4893	1868.601449110408	103.85638583518
10	4897	1871.844298154815	105.8352898375
10	4900	1874.225362487224	107.61916710749
10	4905	1875.564125748698	108.92659902565
10	4913	1879.736744233896	111.65503922374
10	4914	1879.779088631058	111.51753023642
10	4915	1883.030599174173	114.17932885627
10	4916	1885.98137194395	116.76982323335
10	4917	1886.673822880078	116.7538963962
10	4918	1886.863003448625	116.89922139324
10	4922	1888.13798873592	116.83506720262
10	4925	1888.609113257533	117.17507982793
10	4928	1890.724137833199	117.89170271147
10	4929	1890.812422413814	116.83881464224
10	4930	1892.792094662715	118.70448299341
10	4931	1892.926146260621	118.19962076109
10	4935	1893.822765894314	118.30660456728
10	4951	1901.848318802396	123.08852667746
10	4954	1903.793492586792	123.83655838775
10	4955	1904.398965217582	123.72870293932
10	4960	1908.10338706308	126.06044113318
10	4968	1912.209350753232	129.00639137671
10	4969	1914.237612892723	129.29799385395
10	4970	1914.419918704968	128.0323222819
10	4971	1914.525361468906	127.907960761
10	4974	1915.383610934145	128.30437108982
10	4977	1917.822191580802	130.53685912726
10	5006	1924.844251928253	129.7641417651
10	5014	1928.944041200584	129.97046247897
10	5018	1930.543277004416	130.28595185772
10	5019	1933.492498475812	130.40206266465
10	5022	1935.104679927225	131.97241238296
10	5023	1936.209917157338	130.23627857104
10	5024	1936.518032794526	130.40809175035
10	5027	1937.444968313708	129.07432898504
10	5028	1937.949304097474	127.26153302245
10	5031	1938.665798419346	126.12694434977
10	5041	1941.5435204801	124.37825894147
10	5045	1943.14178935574	123.64620556748
10	5049	1943.89294765197	123.37104015016
10	5050	1944.267399089757	122.12929820462
10	5057	1948.258732095031	120.21719748176
10	5068	1950.874440397991	119.52974956452
10	5079	1956.731521795047	122.58348258118
10	5090	1961.330288502556	125.7268846555
10	5093	1961.635568123852	125.83847266051
10	5094	1962.125710557847	126.2190377979
10	5109	1967.237152939434	126.90420040965
10	5128	1971.558323191782	123.09861227916
10	5137	1974.578161661762	126.09394639611
10	5148	1977.601346939029	126.76680900619
10	5151	1979.313628715951	127.76434426257
10	5152	1980.41585976004	128.06378137213
10	5160	1984.036816969093	130.56450487612
10	5161	1984.339683056829	128.6426606735
10	5164	1985.454169760601	128.17589909856
10	5165	1986.262813918096	125.87100926816
10	5171	1987.02428353373	124.14600775115
10	5172	1987.147038315719	123.74574875838
10	5180	1989.110083650925	123.86837045776
10	5190	1993.159716633256	117.80007293565
10	5191	1993.187286992216	116.85189648739
10	5196	1993.681613522445	115.06890050852
10	5197	1994.56280799904	115.15696932237
10	5202	1996.843172004066	109.88468971421
10	5203	1997.962542013294	109.59538860466
10	5204	1998.136295714312	108.06051840757
11	5209	2000	0.465
12	5209	2000	0.374

