file 366337 1671470856                                          
version 2
run Monotonicity_test_recover_rate-117-20221219-18:27:36-15052
attr configname Monotonicity_test_recover_rate
attr datetime 20221219-18:27:36
attr experiment Monotonicity_test_recover_rate
attr inifile omnetpp.ini
attr iterationvars $0=25
attr iterationvarsf 25-
attr measurement $0=25
attr network Network
attr processid 15052
attr repetition 17
attr replication #17
attr resultdir results
attr runnumber 117
attr seedset 17
param *.minion.arrival_mean 2
param *.minion.service_mean 1.5
param *.boss.arrival_mean 2.5
param *.boss.service_mean 0.5
param *.player.recover_rate_x 25
param **.minion.arrival_distribution 0
param **.minion.service_distribution 0
param **.boss.arrival_distribution 0
param **.boss.service_distribution 0

vector 0 Network.player minion_jobs_number_stat:vector ETV
attr source signal_minion_jobs_number
vector 1 Network.player minion_jobs_queue_number_stat:vector ETV
attr source signal_minion_jobs_queue_number
vector 2 Network.player minion_recovered_stat:vector ETV
attr source signal_minion_recovered
vector 3 Network.player minion_defeated_stat:vector ETV
attr source signal_minion_defeated
vector 4 Network.player boss_jobs_number_stat:vector ETV
attr source signal_boss_jobs_number
vector 5 Network.player boss_jobs_queue_number_stat:vector ETV
attr source signal_boss_jobs_queue_number
vector 6 Network.player boss_defeated_stat:vector ETV
attr source signal_boss_defeated
vector 7 Network.player minion_waiting_time_stat:vector ETV
attr source signal_minion_waiting_time
vector 8 Network.player minion_response_time_stat:vector ETV
attr source signal_minion_response_time
vector 9 Network.player boss_waiting_time_stat:vector ETV
attr source signal_boss_waiting_time
vector 10 Network.player boss_response_time_stat:vector ETV
attr source signal_boss_response_time
vector 11 Network.player minion_throughput:vector ETV
attr source signal_minion_throughput
vector 12 Network.player boss_throughput:vector ETV
attr source signal_boss_throughput
0	1990 26399 0 5426 0 1999.267824385459 992 0 43 11586 220842
1	28389 52486 0 5428 0 1999.390817265797 1972 0 42 21135 396937
2	80875 15431 0 5424 0 1998.968626660397 552 0 551 152076 55913276
3	96306 27471 0 5428 0 1999.390817265797 981 0 980 480690 314211030
4	123777 21480 0 5424 0 1998.968626660397 823 0 4 1061 1655
5	145257 42951 0 5427 0 1999.292245366563 1645 0 3 478 710
6	188208 23015 0 5427 0 1999.292245366563 823 0 822 338253 185475395
7	211223 59543 2 5428 0.600512188064 1999.390817265797 1532 0 48.068670008738 19961.527102986 459147.76491593
8	270766 38767 3 5428 1.127508555054 1999.390817265797 980 0.006340165219 49.104130750472 13678.815589472 324655.14160824
9	309533 23895 16 5424 6.559750744207 1998.968626660397 822 0 3.239980938359 112.96084479558 134.81507623894
10	333428 32871 17 5427 6.662387379132 1999.292245366563 822 0.000373975964 3.8836481885 530.01271981765 665.49159422142
11	366299 18 5429 5429 2000 2000 1 0.49 0.49 0.49 0.2401
12	366317 19 5429 5429 2000 2000 1 0.411 0.411 0.411 0.168921

