version 2
run Monotonicity_test_recover_rate-15-20221219-18:27:15-14535
attr configname Monotonicity_test_recover_rate
attr datetime 20221219-18:27:15
attr experiment Monotonicity_test_recover_rate
attr inifile omnetpp.ini
attr iterationvars $0=0
attr iterationvarsf 0-
attr measurement $0=0
attr network Network
attr processid 14535
attr repetition 15
attr replication #15
attr resultdir results
attr runnumber 15
attr seedset 15
param *.minion.arrival_mean 2
param *.minion.service_mean 1.5
param *.boss.arrival_mean 2.5
param *.boss.service_mean 0.5
param *.player.recover_rate_x 0
param **.minion.arrival_distribution 0
param **.minion.service_distribution 0
param **.boss.arrival_distribution 0
param **.boss.service_distribution 0

scalar Network.player boss_throughput:mean 0.3905
attr source signal_boss_throughput
scalar Network.player boss_throughput:last 0.3905
attr source signal_boss_throughput
scalar Network.player boss_defeated_stat:count 782
attr source signal_boss_defeated
scalar Network.player boss_defeated_stat:mean 390.5
attr source signal_boss_defeated
scalar Network.player boss_waiting_time_stat:mean 0.14472735709604
attr source signal_boss_waiting_time
scalar Network.player boss_response_time_stat:mean 0.66830950465617
attr source signal_boss_response_time
scalar Network.player minion_throughput:mean 0.501
attr source signal_minion_throughput
scalar Network.player minion_throughput:last 0.501
attr source signal_minion_throughput
scalar Network.player minion_recovered_stat:count 580
attr source signal_minion_recovered
scalar Network.player minion_recovered_stat:mean 289.5
attr source signal_minion_recovered
scalar Network.player minion_defeated_stat:count 1003
attr source signal_minion_defeated
scalar Network.player minion_defeated_stat:mean 501
attr source signal_minion_defeated
scalar Network.player minion_waiting_time_stat:mean 15.246978672056
attr source signal_minion_waiting_time
scalar Network.player minion_response_time_stat:mean 16.447098871301
attr source signal_minion_response_time

