file 377883 1671470834                                          
version 2
run Monotonicity_test_recover_rate-10-20221219-18:27:14-14509
attr configname Monotonicity_test_recover_rate
attr datetime 20221219-18:27:14
attr experiment Monotonicity_test_recover_rate
attr inifile omnetpp.ini
attr iterationvars $0=0
attr iterationvarsf 0-
attr measurement $0=0
attr network Network
attr processid 14509
attr repetition 10
attr replication #10
attr resultdir results
attr runnumber 10
attr seedset 10
param *.minion.arrival_mean 2
param *.minion.service_mean 1.5
param *.boss.arrival_mean 2.5
param *.boss.service_mean 0.5
param *.player.recover_rate_x 0
param **.minion.arrival_distribution 0
param **.minion.service_distribution 0
param **.boss.arrival_distribution 0
param **.boss.service_distribution 0

vector 0 Network.player minion_jobs_number_stat:vector ETV
attr source signal_minion_jobs_number
vector 1 Network.player minion_jobs_queue_number_stat:vector ETV
attr source signal_minion_jobs_queue_number
vector 2 Network.player minion_recovered_stat:vector ETV
attr source signal_minion_recovered
vector 3 Network.player minion_defeated_stat:vector ETV
attr source signal_minion_defeated
vector 4 Network.player boss_jobs_number_stat:vector ETV
attr source signal_boss_jobs_number
vector 5 Network.player boss_jobs_queue_number_stat:vector ETV
attr source signal_boss_jobs_queue_number
vector 6 Network.player boss_defeated_stat:vector ETV
attr source signal_boss_defeated
vector 7 Network.player minion_waiting_time_stat:vector ETV
attr source signal_minion_waiting_time
vector 8 Network.player boss_waiting_time_stat:vector ETV
attr source signal_boss_waiting_time
vector 9 Network.player boss_response_time_stat:vector ETV
attr source signal_boss_response_time
vector 10 Network.player minion_response_time_stat:vector ETV
attr source signal_minion_response_time
vector 11 Network.player minion_throughput:vector ETV
attr source signal_minion_throughput
vector 12 Network.player boss_throughput:vector ETV
attr source signal_boss_throughput
0	1984 27769 0 5558 0 1999.84088561511 1042 0 52 16188 433566
1	29753 55243 0 5558 0 1999.84088561511 2073 0 51 30249 804177
2	84996 16535 0 5526 0 1991.954234589602 592 0 591 174936 68983096
3	101531 28967 0 5556 0 1999.684750607781 1032 0 1031 531996 365835916
4	130498 21295 0 5537 0 1993.614728993224 816 0 5 1048 1654
5	151793 42597 0 5543 0 1996.069679356276 1631 0 4 466 746
6	194390 22832 0 5543 0 1996.069679356276 816 0 815 332520 180780040
7	217222 63357 2 5556 1.047440218537 1999.684750607781 1623 0 54.779879584307 26673.996309977 787733.01365119
8	280579 23578 4 5542 1.173170206805 1995.982166926211 815 0 3.276070860723 124.85679534528 189.1128101479
9	304157 31789 5 5543 1.234284851646 1996.069679356276 815 0.000180847 3.72753561056 547.01053881421 745.17552381471
10	335946 41896 6 5556 1.541926347768 1999.684750607781 1031 0.024716461283 55.720644755138 18373.711055548 565160.73900669
11	377842 20 5559 5559 2000 2000 1 0.5155 0.5155 0.5155 0.26574025
12	377862 20 5559 5559 2000 2000 1 0.4075 0.4075 0.4075 0.16605625

