version 2
run Monotonicity_test_recover_rate-197-20221219-18:27:52-15463
attr configname Monotonicity_test_recover_rate
attr datetime 20221219-18:27:52
attr experiment Monotonicity_test_recover_rate
attr inifile omnetpp.ini
attr iterationvars $0=25
attr iterationvarsf 25-
attr measurement $0=25
attr network Network
attr processid 15463
attr repetition 97
attr replication #97
attr resultdir results
attr runnumber 197
attr seedset 97
param *.minion.arrival_mean 2
param *.minion.service_mean 1.5
param *.boss.arrival_mean 2.5
param *.boss.service_mean 0.5
param *.player.recover_rate_x 25
param **.minion.arrival_distribution 0
param **.minion.service_distribution 0
param **.boss.arrival_distribution 0
param **.boss.service_distribution 0

vector 0 Network.player minion_jobs_number_stat:vector ETV
attr source signal_minion_jobs_number
vector 1 Network.player minion_jobs_queue_number_stat:vector ETV
attr source signal_minion_jobs_queue_number
vector 2 Network.player minion_recovered_stat:vector ETV
attr source signal_minion_recovered
vector 3 Network.player minion_defeated_stat:vector ETV
attr source signal_minion_defeated
vector 4 Network.player boss_jobs_number_stat:vector ETV
attr source signal_boss_jobs_number
vector 5 Network.player boss_jobs_queue_number_stat:vector ETV
attr source signal_boss_jobs_queue_number
vector 6 Network.player boss_defeated_stat:vector ETV
attr source signal_boss_defeated
vector 7 Network.player minion_waiting_time_stat:vector ETV
attr source signal_minion_waiting_time
vector 8 Network.player minion_response_time_stat:vector ETV
attr source signal_minion_response_time
vector 9 Network.player boss_waiting_time_stat:vector ETV
attr source signal_boss_waiting_time
vector 10 Network.player boss_response_time_stat:vector ETV
attr source signal_boss_response_time
vector 11 Network.player minion_throughput:vector ETV
attr source signal_minion_throughput
vector 12 Network.player boss_throughput:vector ETV
attr source signal_boss_throughput
0	0	0	0
0	2	0.816051984883	1
0	5	3.175191867478	1
0	7	4.578071768219	2
0	13	6.018102662779	2
0	15	8.011582582218	3
0	22	9.1375706374	2
0	24	9.699301045609	3
0	35	13.881239888202	1
0	38	16.287685910858	1
0	41	18.031302592316	1
0	43	19.143728088449	2
0	51	20.742054702851	3
0	56	22.046573942752	3
0	61	22.444761229319	4
0	64	22.647335352872	5
0	66	22.782177976349	6
0	71	24.675221933242	7
0	79	27.519057875132	5
0	81	28.052873686034	6
0	85	30.203626401851	5
0	93	35.175624387433	3
0	96	36.474947406215	3
0	98	36.67486310798	4
0	106	41.222179773752	2
0	116	47.386936953691	1
0	118	47.583996595455	2
0	121	49.040166599129	2
0	123	52.579956092885	3
0	137	58.511652804491	1
0	140	61.549261227364	1
0	152	69.046123903348	1
0	154	69.207697642258	2
0	160	72.450507129432	1
0	166	74.269037373375	2
0	172	77.072663825092	2
0	174	77.862804844208	3
0	176	78.193797555366	4
0	178	78.31087778706	5
0	192	81.691189327272	6
0	194	81.995430862048	7
0	197	82.508706466334	7
0	199	82.560765602683	8
0	201	82.634054650609	9
0	206	84.856115970533	9
0	208	86.028620126708	10
0	223	92.556131553112	7
0	235	95.310223681869	7
0	248	102.897287915399	4
0	251	104.3837416001	4
0	253	105.125694008253	5
0	255	106.62105642704	6
0	267	112.729429143686	3
0	269	113.344937871707	4
0	274	114.60980474857	5
0	281	118.984189122012	4
0	289	121.269995289076	1
0	305	129.149820419398	1
0	308	130.886445881261	1
0	310	131.030412439827	2
0	315	132.381814333021	3
0	318	133.037546214116	3
0	321	135.438295828417	3
0	323	135.553461555586	4
0	332	137.125165506232	5
0	335	137.443766602636	6
0	341	138.514909018426	7
0	346	142.884620154449	5
0	348	143.399192239157	6
0	353	144.501028706631	7
0	367	149.296213196491	5
0	369	149.805433299217	6
0	371	149.962609524752	7
0	376	150.765394807416	8
0	386	152.776641665515	6
0	388	153.030907149774	7
0	390	153.051848648548	8
0	392	153.653961485613	9
0	395	153.76125742399	10
0	397	154.956022731234	11
0	399	155.107025734216	12
0	402	155.568232639447	12
0	404	156.117402748651	13
0	406	156.226426625535	14
0	408	156.476236353594	15
0	420	160.47247882735	12
0	422	161.241525531464	13
0	427	161.832120692377	14
0	429	161.852931472157	15
0	448	168.303758193947	12
0	452	168.650772508859	13
0	460	173.229385603852	11
0	468	175.983857941389	11
0	471	177.408449294922	12
0	480	183.542541218664	12
0	485	186.939189049819	10
0	487	187.381523147171	11
0	495	189.735675423052	9
0	499	189.947235464499	10
0	509	192.58632684767	10
0	512	192.68263809624	10
0	516	193.32175771113	11
0	525	196.67005715964	12
0	530	197.376077132572	10
0	537	199.094144087227	11
0	543	200.131816514649	12
0	548	200.701040632694	13
0	551	201.172906901345	13
0	553	201.363347096474	14
0	555	201.57617073119	15
0	558	202.669669013511	15
0	561	204.195217096186	15
0	564	205.369907420831	15
0	566	205.94879699265	16
0	568	206.163248362514	17
0	570	206.833094437896	18
0	577	209.088151836966	19
0	579	209.283275882222	20
0	585	212.476068250006	20
0	591	213.597797738004	21
0	593	214.481214803689	22
0	602	216.530371408394	22
0	610	220.421020869705	20
0	622	227.709652400639	19
0	624	227.762574687003	20
0	631	230.06902968197	20
0	649	236.154311372395	16
0	652	236.265097324778	17
0	654	239.428944324024	18
0	657	240.095821436031	18
0	661	241.860949208848	17
0	669	244.496677185247	18
0	675	246.817234440601	18
0	677	247.411971309486	19
0	679	248.510031460519	20
0	688	251.234139883728	18
0	695	252.839645966484	19
0	720	261.454455808575	12
0	728	265.392189654817	10
0	730	265.754296556131	11
0	732	265.958558495184	12
0	741	270.32972544895	6
0	745	270.530986310499	7
0	747	270.821113217802	8
0	755	275.315682717922	6
0	758	275.963836411538	7
0	760	276.743141285205	8
0	762	277.3785105042	9
0	766	279.617626432505	8
0	770	280.739844329599	7
0	772	282.799102571142	8
0	774	283.554786326568	9
0	779	284.577007536712	10
0	781	284.897042786934	11
0	786	285.618492655798	12
0	788	285.887411841761	13
0	793	289.528626632872	11
0	799	292.012070273823	11
0	801	292.17772303707	12
0	808	293.438344782242	11
0	815	295.238642386134	9
0	823	296.739967241723	8
0	829	298.73363929505	8
0	831	299.650048618787	9
0	838	302.423327517973	8
0	841	302.486512180505	8
0	849	304.759412559925	6
0	851	304.929850297461	7
0	858	307.961523719034	6
0	860	308.315917109698	7
0	868	314.385873975696	5
0	870	314.647810144127	6
0	873	315.187581978577	6
0	888	321.392591118415	5
0	894	322.728443211124	6
0	896	324.687910867323	7
0	904	326.028805047861	8
0	909	326.585231512322	9
0	929	334.922845238483	4
0	933	337.495168625989	3
0	936	338.144477054543	3
0	939	340.854924672666	3
0	943	341.803536341247	2
0	954	345.239334944958	2
0	961	348.412919247591	2
0	966	351.203191014155	3
0	969	353.215590811861	3
0	974	355.584841719032	4
0	978	356.770419615468	3
0	980	357.61874477427	4
0	990	361.813349486313	3
0	995	363.537453409506	4
0	1000	365.346890843153	5
0	1002	366.68384744367	6
0	1010	368.383034119964	7
0	1012	368.418126960605	8
0	1024	373.410916426859	1
0	1027	374.50390207627	2
0	1030	376.080488591489	2
0	1036	378.338875393039	2
0	1041	379.496422902995	3
0	1044	380.300921840218	3
0	1052	383.477862271698	1
0	1058	387.932885162212	1
0	1061	388.94447853995	1
0	1064	390.257745909113	1
0	1070	390.760546970375	2
0	1074	392.502137940877	3
0	1077	393.030402362437	3
0	1079	394.868950933567	4
0	1085	399.28913051401	4
0	1089	401.03558360179	3
0	1092	402.298713892088	3
0	1097	404.987134026692	4
0	1099	405.958016726096	5
0	1101	408.093193933855	6
0	1103	408.465086935074	7
0	1107	409.482656191624	6
0	1109	409.585750298048	7
0	1138	420.056499957569	2
0	1145	422.551699259352	1
0	1153	427.640895827999	1
0	1162	431.16561139992	2
0	1171	434.345007288103	2
0	1173	435.20645854324	3
0	1175	436.637176127096	4
0	1184	442.986705945307	1
0	1187	444.649396979352	1
0	1190	445.01041068652	1
0	1204	449.994109398503	1
0	1210	452.274624255374	1
0	1213	453.116146845537	2
0	1217	456.427027696854	1
0	1220	457.502059330528	1
0	1222	457.860107699676	2
0	1230	460.170557324469	3
0	1233	461.347717604333	3
0	1235	461.404262805972	4
0	1241	466.665284656224	4
0	1243	467.134658342752	5
0	1253	470.829104391861	4
0	1255	471.471879883668	5
0	1262	474.450918847378	4
0	1264	475.157232924887	5
0	1269	475.919022957087	6
0	1273	478.808044479604	5
0	1275	479.743659683001	6
0	1280	482.332835052751	7
0	1282	482.629715190131	8
0	1290	483.813672696347	9
0	1305	489.585550572684	6
0	1311	493.871649527395	6
0	1314	495.960387970468	6
0	1321	500.282795278012	7
0	1328	503.95979281411	7
0	1335	507.854347118216	6
0	1345	512.37422308914	2
0	1355	515.78750635481	3
0	1358	516.440658239642	4
0	1362	517.161072791723	5
0	1365	518.357736684223	6
0	1372	522.078561247422	7
0	1377	522.615485128377	8
0	1390	532.455968848129	5
0	1394	536.229327137369	4
0	1402	538.656578315548	5
0	1406	540.243790834502	6
0	1410	542.864833310798	6
0	1412	543.879904713889	7
0	1414	545.407878752662	8
0	1416	545.441611086568	9
0	1425	549.82231253941	9
0	1434	555.644688583395	8
0	1440	558.408933757208	6
0	1447	560.924970909159	5
0	1460	566.891972017693	4
0	1465	568.68548050603	2
0	1470	571.020376312139	3
0	1475	572.751086843695	1
0	1483	576.016319246489	1
0	1485	576.287798504456	2
0	1488	577.407236232567	3
0	1491	580.867286832455	3
0	1499	582.632602956043	4
0	1509	587.313470054659	2
0	1515	588.813388432411	3
0	1523	592.63986462731	1
0	1530	593.587751983879	2
0	1535	597.125894888048	1
0	1537	597.191283514416	2
0	1541	600.507230430327	1
0	1546	601.70277481778	1
0	1553	608.096499419704	1
0	1556	608.95239714203	1
0	1558	609.243882008729	2
0	1562	611.506118131546	1
0	1574	616.355707267861	1
0	1598	623.939406758253	1
0	1603	628.28303207402	2
0	1605	628.491460987468	3
0	1611	631.988016879899	3
0	1613	632.668258880714	4
0	1619	634.19383845964	4
0	1621	634.295136826257	5
0	1626	637.663903907596	3
0	1628	638.053408790752	4
0	1648	643.454300348131	1
0	1670	655.379540578652	1
0	1672	657.636126445754	2
0	1674	657.877120681079	3
0	1680	660.062599511841	3
0	1685	661.888156506712	4
0	1694	664.735293040574	4
0	1712	670.505458231547	1
0	1715	672.266207758972	1
0	1721	675.657165464514	1
0	1730	680.249035260309	1
0	1732	681.868235393195	2
0	1739	683.330020465294	1
0	1742	685.85629195234	1
0	1747	688.113234191944	2
0	1756	689.119763283556	3
0	1764	691.00538764743	4
0	1771	693.547286672888	5
0	1773	693.673872946252	6
0	1778	697.535901670379	6
0	1782	697.885203009896	7
0	1791	699.304105467787	5
0	1794	699.953910962169	6
0	1819	708.945031068349	5
0	1823	711.123249771062	4
0	1828	711.999356640564	4
0	1831	713.337002324046	5
0	1833	713.762458984744	6
0	1835	715.257988909213	7
0	1837	715.919359027977	8
0	1839	717.19712328585	9
0	1847	723.94323928282	7
0	1849	724.164540361321	8
0	1857	728.628519123756	5
0	1859	728.928314910653	6
0	1868	732.542187025804	4
0	1876	736.117810585402	4
0	1879	737.542019520741	5
0	1883	738.177001048645	6
0	1886	739.007167320174	7
0	1888	740.396650488936	8
0	1890	740.75146253518	9
0	1892	740.774128669292	10
0	1895	743.819913068349	10
0	1899	744.118295104943	11
0	1901	744.27213350574	12
0	1905	745.538836355119	12
0	1911	747.707632101056	12
0	1913	748.384465604458	13
0	1915	749.063980082679	14
0	1918	750.889505019228	14
0	1920	752.404468571746	15
0	1933	758.719683582219	11
0	1935	758.838675310118	12
0	1940	760.840214411661	13
0	1944	763.19862105183	12
0	1946	766.235207770811	13
0	1952	768.36956120115	10
0	1956	769.75132678248	9
0	1965	774.571027706617	9
0	1975	775.835938665561	10
0	1978	776.445301446103	11
0	1983	776.731582053712	11
0	1988	777.504107972723	12
0	2002	782.801852276907	11
0	2004	782.841811527598	12
0	2012	783.905792971552	13
0	2036	792.891677088824	6
0	2039	794.430701316334	7
0	2042	797.421442972892	7
0	2046	797.951257951986	8
0	2060	801.70194000472	7
0	2063	802.065936585999	7
0	2065	803.0301141553	8
0	2073	804.34511970243	9
0	2079	805.933789890641	9
0	2087	808.48287061781	7
0	2097	811.760255037701	5
0	2112	816.472924195367	5
0	2117	818.81721370655	4
0	2119	820.099203862293	5
0	2124	821.461912656827	6
0	2126	821.475859581201	7
0	2139	828.624038607675	6
0	2146	831.911382326216	5
0	2149	832.735598933863	5
0	2151	833.289810303001	6
0	2156	834.36916771163	7
0	2158	835.725590047537	8
0	2163	836.235206771203	6
0	2169	838.267739435851	6
0	2172	840.727348383552	6
0	2174	842.05323630712	7
0	2177	843.85750346273	7
0	2179	844.310070379618	8
0	2182	846.457006547118	8
0	2188	849.494744779659	8
0	2194	853.090746515647	8
0	2198	857.341953380609	7
0	2200	857.540648975851	8
0	2213	864.202558824956	6
0	2216	865.219033729752	7
0	2219	865.498399701071	7
0	2221	865.499175614861	8
0	2223	865.904001556679	9
0	2229	868.86102963602	6
0	2246	878.26363438322	1
0	2252	881.15367925776	1
0	2255	882.14703599392	1
0	2273	887.893815937531	1
0	2285	894.02220852304	1
0	2308	903.287404801678	1
0	2317	905.381075370248	2
0	2320	905.476450851148	2
0	2322	906.906495903709	3
0	2332	917.519255140427	2
0	2347	927.301108667785	1
0	2349	927.488145667439	2
0	2351	928.048927411963	3
0	2357	930.386822025694	4
0	2363	931.282974704608	3
0	2367	934.367173347975	3
0	2377	939.024337122682	2
0	2379	941.898690942208	3
0	2382	942.044482182295	3
0	2389	944.747083820355	1
0	2392	945.825704825005	2
0	2394	945.90736482857	3
0	2397	947.095926231029	3
0	2407	950.435328942277	1
0	2411	951.932261965465	1
0	2416	954.683785688455	1
0	2420	956.291660412267	1
0	2422	957.060460507427	2
0	2432	960.865731891735	1
0	2435	962.284078574386	1
0	2438	967.627095398329	1
0	2445	971.012640345452	1
0	2449	971.433533804847	2
0	2458	973.924312817794	2
0	2460	975.822370729919	3
0	2470	977.316993780321	4
0	2476	979.373717803796	5
0	2481	982.374087842809	6
0	2485	985.637846058111	5
0	2490	986.312741775544	6
0	2493	986.984344668418	6
0	2501	988.528573537318	7
0	2503	988.618141401717	8
0	2506	989.563783679367	9
0	2512	991.42342745914	10
0	2518	993.5794601551	10
0	2536	999.716087981729	8
0	2539	1002.377397060387	8
0	2542	1002.997112873534	8
0	2544	1003.227768818845	9
0	2546	1003.641266440236	10
0	2548	1004.348702700247	11
0	2560	1007.23848661772	8
0	2562	1009.300644634444	9
0	2571	1012.526115642161	6
0	2582	1014.797226120232	7
0	2584	1015.774396605012	8
0	2586	1017.349300676085	9
0	2593	1018.743860139586	8
0	2596	1021.820182102166	8
0	2601	1026.425101142989	6
0	2609	1028.266831633874	7
0	2614	1029.679759020833	7
0	2623	1031.211109088422	8
0	2633	1032.768474484593	7
0	2635	1033.003712466699	8
0	2637	1033.769396009524	9
0	2639	1033.969465599547	10
0	2642	1035.220997242542	10
0	2646	1035.577586637027	11
0	2650	1036.46227151243	11
0	2662	1044.748513889521	8
0	2667	1045.569759489668	6
0	2669	1046.77359746107	7
0	2673	1049.070431548115	8
0	2679	1051.367112939901	9
0	2687	1052.201417552821	9
0	2691	1052.863242384961	9
0	2694	1054.02669801257	9
0	2696	1054.679002196592	10
0	2698	1054.753939048099	11
0	2708	1058.702042647467	9
0	2713	1060.054467989518	10
0	2715	1060.089175455319	11
0	2721	1060.848189542855	12
0	2723	1061.288067859303	13
0	2728	1062.992237455697	14
0	2730	1065.03090556004	15
0	2735	1067.745108941182	16
0	2738	1068.58454730462	16
0	2748	1073.320486351225	12
0	2760	1077.965585366333	9
0	2763	1078.18724305422	9
0	2768	1081.853617523015	10
0	2778	1083.622883913453	9
0	2786	1087.750002990612	7
0	2797	1090.547032228399	5
0	2799	1091.095190209427	6
0	2809	1095.779040384541	4
0	2815	1097.958627644395	5
0	2817	1098.499228557321	6
0	2819	1098.586896271255	7
0	2834	1103.75173609228	7
0	2847	1110.230577546404	6
0	2849	1110.637675354562	7
0	2851	1111.209889714289	8
0	2853	1111.303835913696	9
0	2859	1113.217478070926	9
0	2864	1113.845008251404	9
0	2876	1119.949367970023	7
0	2878	1120.084110988537	8
0	2881	1120.773039895647	8
0	2888	1124.167876292832	7
0	2890	1125.304764869312	8
0	2898	1130.914453738621	5
0	2901	1132.187116955072	6
0	2904	1134.907020189897	6
0	2906	1136.887740288676	7
0	2923	1139.109599481152	6
0	2932	1142.360857151762	5
0	2937	1145.003497756257	6
0	2940	1145.798885383639	6
0	2954	1148.965416966624	4
0	2959	1149.626873119976	5
0	2962	1150.068728159008	5
0	2971	1153.892600105208	2
0	2973	1155.020582107452	3
0	2984	1162.733773432996	1
0	2989	1163.691102096838	2
0	2991	1164.507935121158	3
0	2999	1167.438875449354	1
0	3002	1170.754687983421	1
0	3006	1172.260654766602	2
0	3014	1174.109756023154	1
0	3019	1174.752173827299	2
0	3021	1175.181985337881	3
0	3025	1176.503607449911	2
0	3034	1181.251487347738	2
0	3047	1185.615099389068	1
0	3050	1186.764602489181	1
0	3052	1188.64189833668	2
0	3054	1190.137101187399	3
0	3056	1190.799247862609	4
0	3072	1195.895162844878	2
0	3075	1196.398845099145	3
0	3095	1202.515032593503	1
0	3097	1202.99038695195	2
0	3101	1205.977268227262	1
0	3104	1206.503044616417	1
0	3106	1207.784879716268	2
0	3108	1208.238720926478	3
0	3119	1214.584174299131	1
0	3124	1216.473875934638	2
0	3129	1217.571400045619	3
0	3131	1218.388962603499	4
0	3140	1219.064852422056	4
0	3146	1220.166909566818	4
0	3151	1222.135820302781	5
0	3153	1222.738149246226	6
0	3155	1222.783129942829	7
0	3159	1223.116945353917	8
0	3161	1223.790550459563	9
0	3170	1226.308125901242	10
0	3175	1227.619012731525	11
0	3183	1230.11979369413	9
0	3190	1233.895436797169	8
0	3196	1234.789035911501	8
0	3198	1235.83655915728	9
0	3203	1237.737549034886	10
0	3212	1239.350176234336	9
0	3217	1240.027729377501	10
0	3223	1241.650272727639	11
0	3233	1246.485829252828	12
0	3235	1246.508879628319	13
0	3238	1247.2674412947	14
0	3240	1247.726061363215	15
0	3248	1248.459913327581	16
0	3250	1249.333999864146	17
0	3257	1253.668660234576	18
0	3261	1255.692643564164	18
0	3273	1257.439057868581	18
0	3277	1262.315195002423	17
0	3289	1265.957134142859	14
0	3299	1271.376691840056	13
0	3301	1271.427781290664	14
0	3303	1272.208396494514	15
0	3312	1275.133496065795	12
0	3319	1277.903675795929	11
0	3321	1278.063715731276	12
0	3325	1282.278741045587	11
0	3327	1282.614579788931	12
0	3329	1283.028034139118	13
0	3353	1291.799620562149	10
0	3359	1293.776531837389	7
0	3362	1295.363550695728	7
0	3369	1298.043402670844	8
0	3390	1306.981037516742	3
0	3392	1307.09969416135	4
0	3399	1308.410435506188	5
0	3403	1309.7803686657	5
0	3412	1314.777672771371	2
0	3416	1316.175697937311	3
0	3426	1320.564075437269	3
0	3428	1320.566968671348	4
0	3431	1322.259710016519	4
0	3435	1323.425156600752	5
0	3440	1325.827974108142	4
0	3444	1327.438089933167	5
0	3454	1332.644664626977	5
0	3456	1333.424631763745	6
0	3460	1335.020744670459	5
0	3462	1335.084077509279	6
0	3468	1337.317810664558	6
0	3474	1342.027103182304	6
0	3476	1342.583024632778	7
0	3488	1344.946568821094	6
0	3491	1346.530265562507	7
0	3496	1347.271024694246	8
0	3501	1348.499121115964	9
0	3506	1354.587741996341	7
0	3508	1357.086987881721	8
0	3514	1358.552299905475	8
0	3523	1362.024365132129	8
0	3525	1362.121274553022	9
0	3529	1363.470738977933	10
0	3532	1363.955777210463	11
0	3537	1366.827291128094	12
0	3539	1368.340233643464	13
0	3546	1370.028278172097	14
0	3552	1372.667048830718	14
0	3556	1373.683998592214	14
0	3562	1374.47362200494	14
0	3564	1377.170679575817	15
0	3567	1378.967833561368	15
0	3573	1381.923521635682	15
0	3575	1382.581096139935	16
0	3586	1385.358491153498	17
0	3589	1387.713236018062	17
0	3595	1390.201763356259	17
0	3607	1395.866819192088	17
0	3623	1400.110341328605	16
0	3631	1403.699402102567	14
0	3633	1405.171372894751	15
0	3639	1407.815847872088	15
0	3644	1408.591435847842	16
0	3646	1408.806098192431	17
0	3648	1409.071645823194	18
0	3651	1410.010602976052	18
0	3664	1418.463721851748	14
0	3673	1420.586920264985	14
0	3676	1421.956971576449	14
0	3680	1422.619146709526	13
0	3693	1428.815819006746	12
0	3695	1428.925575937399	13
0	3700	1430.291069274993	14
0	3704	1431.45709285637	13
0	3707	1432.723539095668	13
0	3710	1433.556673853417	13
0	3712	1434.842443622464	14
0	3718	1439.17388603888	13
0	3720	1439.224038561482	14
0	3726	1441.493669940447	15
0	3733	1444.096149688879	14
0	3738	1445.379411782229	12
0	3741	1446.764087371167	12
0	3746	1447.934439020625	12
0	3754	1453.812439329953	11
0	3770	1460.999049712991	10
0	3773	1462.021426883261	10
0	3775	1462.320393331375	11
0	3780	1464.22340504094	9
0	3782	1464.385771288794	10
0	3784	1465.32661864777	11
0	3786	1465.653374561455	12
0	3793	1470.300412821003	10
0	3798	1470.99249184513	11
0	3801	1471.535309816107	12
0	3805	1472.027501343701	13
0	3807	1472.806933223327	14
0	3812	1473.054124767838	15
0	3815	1474.034575061276	16
0	3818	1474.942334830581	16
0	3831	1478.460262078062	17
0	3836	1479.224833512284	16
0	3840	1480.903116682233	15
0	3846	1483.54056776455	15
0	3851	1485.19567913052	16
0	3862	1490.751863037663	16
0	3867	1491.99809660985	17
0	3873	1494.5518590332	17
0	3876	1495.862087300372	18
0	3878	1496.665062439961	19
0	3881	1497.870997085519	19
0	3891	1502.116817563038	18
0	3893	1505.890592038702	19
0	3895	1507.217533194949	20
0	3899	1507.676129531385	21
0	3901	1508.106449303126	22
0	3914	1510.574021228722	21
0	3921	1512.811689632454	21
0	3935	1515.781607490844	22
0	3943	1520.969647765612	20
0	3946	1522.210563680739	20
0	3948	1522.412098313169	21
0	3954	1523.757042166101	21
0	3963	1528.812252039255	21
0	3965	1529.141790695837	22
0	3973	1534.16905801856	23
0	3978	1536.346159423618	24
0	3981	1536.968397251109	24
0	3984	1537.378619209513	24
0	3991	1539.308494555148	23
0	3999	1544.856396818635	21
0	4004	1545.726319331794	22
0	4014	1547.035045450246	22
0	4017	1547.824911437181	23
0	4023	1549.759676497376	24
0	4031	1553.26260772865	22
0	4034	1553.877573156879	22
0	4036	1554.330067715551	23
0	4039	1555.453535050243	23
0	4042	1556.98921826718	23
0	4051	1561.071017707008	23
0	4061	1563.83841509434	24
0	4067	1565.916637790028	25
0	4069	1566.634064341316	26
0	4071	1566.825562113357	27
0	4080	1569.964791192078	27
0	4088	1572.599849880402	26
0	4090	1572.613947965883	27
0	4100	1579.221449071111	25
0	4106	1579.927678853443	24
0	4109	1581.208146428583	25
0	4111	1581.250881235314	26
0	4122	1585.426961984732	26
0	4142	1590.183975316161	27
0	4151	1591.369029218866	28
0	4157	1592.610562645317	28
0	4168	1597.45560525786	26
0	4170	1598.908313387896	27
0	4172	1599.075512835904	28
0	4196	1603.982202846418	28
0	4199	1604.831605844587	28
0	4208	1607.277242220518	28
0	4210	1607.342497694144	29
0	4212	1607.969517722107	30
0	4214	1608.477478363623	31
0	4217	1609.847256914368	31
0	4219	1610.319930328961	32
0	4224	1611.283772624908	33
0	4226	1611.357644478511	34
0	4228	1612.585161688312	35
0	4230	1613.4023163759	36
0	4235	1614.475345493282	37
0	4239	1615.093060817579	38
0	4245	1617.258769900591	38
0	4256	1624.534596978993	37
0	4259	1625.476993328322	37
0	4263	1625.866270965121	36
0	4267	1627.622516017047	35
0	4269	1627.773475288603	36
0	4271	1627.959037065627	37
0	4273	1629.022197849367	38
0	4281	1631.787422187016	36
0	4292	1637.226027019949	37
0	4294	1637.528621511766	38
0	4299	1638.842242003351	36
0	4303	1642.981696261453	35
0	4308	1644.327456617658	33
0	4314	1646.813365827226	33
0	4319	1649.802326393309	34
0	4323	1650.598520775352	35
0	4327	1652.809778152209	35
0	4336	1655.956658910548	35
0	4339	1657.135686277262	35
0	4342	1657.727206073072	35
0	4350	1659.655722485974	36
0	4356	1662.299328459799	37
0	4358	1662.623754336611	38
0	4363	1663.826106088911	39
0	4366	1664.521685968904	40
0	4369	1664.774570916558	41
0	4372	1665.277040037853	41
0	4380	1668.398429494087	41
0	4392	1671.766993323122	36
0	4394	1671.781122148862	37
0	4402	1675.593072593636	35
0	4404	1677.070653611954	36
0	4412	1682.211171531174	34
0	4427	1685.330129898584	33
0	4434	1688.930714546341	33
0	4437	1690.503237378317	33
0	4439	1690.941325140291	34
0	4445	1693.002986349808	34
0	4451	1695.84724876557	34
0	4455	1698.679195331488	33
0	4465	1701.65012418267	32
0	4467	1701.732601271197	33
0	4470	1702.354874950314	33
0	4472	1702.729221081663	34
0	4477	1703.477293480646	35
0	4480	1705.305357862772	35
0	4485	1707.637841650086	36
0	4488	1708.164821822737	36
0	4490	1711.386312405567	37
0	4493	1713.472162626456	37
0	4501	1714.908613485252	37
0	4504	1715.913636162904	38
0	4506	1716.577595322615	39
0	4514	1720.454459012788	37
0	4524	1724.28397604373	36
0	4529	1725.779440187805	37
0	4531	1726.17261814156	38
0	4533	1726.593175644398	39
0	4537	1727.881227945735	40
0	4539	1727.901288666473	41
0	4550	1731.874438024606	40
0	4552	1732.507419262261	41
0	4554	1734.107280064838	42
0	4556	1735.710271280266	43
0	4567	1738.956012191776	44
0	4571	1740.089783081974	43
0	4578	1741.109911205827	44
0	4580	1741.196543769225	45
0	4590	1744.112369957239	45
0	4592	1744.186013414332	46
0	4594	1744.380663004429	47
0	4607	1747.427487035831	46
0	4610	1748.000455725586	46
0	4623	1753.941150590349	42
0	4628	1754.544478182403	43
0	4632	1754.90704148444	44
0	4634	1755.016884400942	45
0	4637	1757.117348105721	46
0	4639	1757.677828445248	47
0	4643	1759.623422658859	46
0	4645	1759.663847574381	47
0	4647	1760.570453271754	48
0	4660	1766.068917369727	44
0	4662	1767.938391472156	45
0	4676	1773.586642951987	40
0	4678	1774.408590544659	41
0	4713	1786.961627527285	36
0	4715	1788.365376482704	37
0	4718	1792.234942078184	37
0	4720	1792.398843207271	38
0	4722	1793.023218788765	39
0	4727	1793.824032470405	40
0	4732	1794.420369012568	41
0	4735	1795.093622675648	41
0	4741	1799.385592982264	41
0	4745	1803.161712619681	40
0	4747	1803.701629937521	41
0	4751	1804.953528711047	42
0	4753	1804.992165054294	43
0	4769	1815.221038614358	37
0	4773	1817.77771687408	36
0	4776	1818.745147574026	36
0	4779	1822.380915458874	36
0	4786	1823.721479059687	37
0	4791	1824.171922339893	38
0	4794	1824.962491804339	39
0	4796	1825.494290545926	40
0	4802	1827.238040814437	40
0	4810	1830.400417755837	41
0	4812	1831.545560249507	42
0	4815	1832.053312899554	42
0	4826	1834.25785691533	42
0	4831	1839.559361442471	43
0	4847	1845.01464653265	40
0	4859	1846.796297139584	40
0	4873	1854.710824443049	38
0	4875	1855.651228551382	39
0	4877	1856.094284361478	40
0	4882	1859.953063571773	40
0	4885	1861.904092516694	41
0	4896	1865.122949263976	39
0	4898	1865.999319204243	40
0	4906	1868.806677428131	41
0	4912	1870.731602261455	41
0	4918	1871.931908152566	41
0	4922	1872.487835044693	42
0	4925	1873.852451388003	43
0	4931	1874.807531210197	43
0	4933	1874.841552040168	44
0	4940	1876.755477934705	45
0	4944	1879.099436388291	45
0	4960	1885.895214517331	44
0	4963	1886.770710997963	44
0	4965	1886.776179954113	45
0	4972	1889.032900375787	46
0	4977	1890.277417642029	47
0	4980	1890.653804027801	48
0	4983	1891.525746169617	48
0	4985	1891.702533619969	49
0	5003	1898.888941935722	48
0	5005	1898.898511244373	49
0	5010	1903.08331727017	48
0	5038	1912.113921505573	44
0	5043	1913.397293088248	45
0	5046	1915.606359347648	45
0	5048	1917.479231987888	46
0	5057	1921.262261123839	46
0	5060	1922.563474850074	46
0	5074	1926.787109501152	47
0	5078	1927.55290704438	48
0	5081	1928.084127019147	49
0	5083	1928.129151696753	50
0	5086	1928.569998341093	50
0	5088	1930.326970670275	51
0	5090	1930.912535864844	52
0	5092	1931.86566333686	53
0	5095	1933.019205241208	53
0	5109	1943.169011853892	49
0	5122	1945.664694747804	50
0	5124	1946.104217683181	51
0	5135	1947.162606427756	51
0	5142	1950.103760610748	48
0	5148	1953.539449270759	48
0	5152	1954.912379756149	49
0	5155	1956.181606263226	50
0	5157	1956.381507562037	51
0	5160	1958.502674128438	51
0	5162	1959.248974631613	52
0	5170	1964.404676487599	53
0	5174	1965.622733422578	52
0	5178	1967.251772911834	53
0	5182	1970.074718385465	53
0	5192	1978.816662124445	49
0	5200	1982.114863294901	50
0	5205	1984.331541084197	51
0	5210	1985.624167062006	52
0	5212	1986.48829188178	53
0	5214	1987.227458716986	54
0	5218	1987.883864083165	55
0	5220	1987.924203215853	56
0	5226	1990.093008484237	57
0	5228	1990.095768870765	58
0	5230	1991.263113001546	59
0	5232	1993.685382357531	60
0	5236	1994.620521789935	61
0	5240	1994.915453266214	62
0	5244	1997.81286554222	63
0	5246	1999.17088201141	64
1	0	0	0
1	2	0.816051984883	0
1	3	1.332353198368	0
1	5	3.175191867478	0
1	7	4.578071768219	1
1	8	5.492086196764	1
1	13	6.018102662779	1
1	15	8.011582582218	2
1	19	8.648112387827	2
1	20	9.133965694768	1
1	22	9.1375706374	1
1	24	9.699301045609	2
1	31	12.387706920447	2
1	32	13.025744065462	1
1	33	13.343899506949	0
1	35	13.881239888202	0
1	36	14.83308969769	0
1	38	16.287685910858	0
1	39	17.451576921087	0
1	41	18.031302592316	0
1	43	19.143728088449	1
1	51	20.742054702851	2
1	52	21.022495410836	2
1	56	22.046573942752	2
1	61	22.444761229319	3
1	64	22.647335352872	4
1	66	22.782177976349	5
1	71	24.675221933242	6
1	72	26.062530949302	6
1	73	26.301024616341	5
1	77	27.390119949109	4
1	79	27.519057875132	4
1	81	28.052873686034	5
1	82	29.071773687392	5
1	83	29.422252922064	4
1	85	30.203626401851	4
1	86	30.524546168705	4
1	87	31.031164185796	3
1	88	31.336032171495	2
1	93	35.175624387433	2
1	94	36.162838791627	2
1	96	36.474947406215	2
1	98	36.67486310798	3
1	99	39.258693385586	3
1	100	40.435245016519	2
1	104	40.881875472284	1
1	106	41.222179773752	1
1	110	43.384526854493	1
1	114	45.725431466863	0
1	116	47.386936953691	0
1	118	47.583996595455	1
1	119	48.470555965577	1
1	121	49.040166599129	1
1	123	52.579956092885	2
1	127	54.147743868561	2
1	131	55.883046060469	1
1	132	56.189759448867	0
1	137	58.511652804491	0
1	138	59.035692540541	0
1	140	61.549261227364	0
1	144	64.481128530322	0
1	152	69.046123903348	0
1	154	69.207697642258	1
1	155	69.656079959022	1
1	156	71.096771686818	0
1	160	72.450507129432	0
1	166	74.269037373375	1
1	167	74.910636172307	1
1	172	77.072663825092	1
1	174	77.862804844208	2
1	176	78.193797555366	3
1	178	78.31087778706	4
1	192	81.691189327272	5
1	194	81.995430862048	6
1	195	82.387177960759	6
1	197	82.508706466334	6
1	199	82.560765602683	7
1	201	82.634054650609	8
1	202	84.478858849705	8
1	206	84.856115970533	8
1	208	86.028620126708	9
1	213	88.259027186503	9
1	214	89.697015904509	8
1	215	90.287605334894	7
1	216	90.824517300058	6
1	223	92.556131553112	6
1	225	92.898674446276	6
1	235	95.310223681869	6
1	237	97.354503041473	6
1	238	98.280940824242	5
1	245	100.551488086791	4
1	246	100.588191807434	3
1	248	102.897287915399	3
1	249	103.995493843714	3
1	251	104.3837416001	3
1	253	105.125694008253	4
1	255	106.62105642704	5
1	259	109.164778056775	5
1	260	109.4399976587	4
1	261	109.534984858248	3
1	265	111.294266209199	2
1	267	112.729429143686	2
1	269	113.344937871707	3
1	274	114.60980474857	4
1	275	116.283100378497	4
1	279	118.675610594833	3
1	281	118.984189122012	3
1	282	119.188029523977	3
1	283	119.3445658042	2
1	284	120.366272738367	1
1	285	120.543418045287	0
1	289	121.269995289076	0
1	291	121.660639480879	0
1	305	129.149820419398	0
1	306	129.849768351576	0
1	308	130.886445881261	0
1	310	131.030412439827	1
1	315	132.381814333021	2
1	316	133.001627840352	2
1	318	133.037546214116	2
1	319	134.361727914459	2
1	321	135.438295828417	2
1	323	135.553461555586	3
1	332	137.125165506232	4
1	335	137.443766602636	5
1	341	138.514909018426	6
1	342	142.19059478535	6
1	343	142.203555496042	5
1	344	142.539169476592	4
1	346	142.884620154449	4
1	348	143.399192239157	5
1	353	144.501028706631	6
1	354	144.874621126876	6
1	361	146.902953394146	5
1	362	147.824475160898	4
1	367	149.296213196491	4
1	369	149.805433299217	5
1	371	149.962609524752	6
1	376	150.765394807416	7
1	377	150.876786272592	7
1	378	151.735080853804	6
1	379	151.759960922903	5
1	386	152.776641665515	5
1	388	153.030907149774	6
1	390	153.051848648548	7
1	392	153.653961485613	8
1	395	153.76125742399	9
1	397	154.956022731234	10
1	399	155.107025734216	11
1	400	155.312716670933	11
1	402	155.568232639447	11
1	404	156.117402748651	12
1	406	156.226426625535	13
1	408	156.476236353594	14
1	409	157.55306870593	14
1	413	158.691660274972	13
1	414	158.931324918541	12
1	415	159.224956790385	11
1	420	160.47247882735	11
1	422	161.241525531464	12
1	427	161.832120692377	13
1	429	161.852931472157	14
1	430	162.704275589936	14
1	437	163.590683747133	13
1	441	167.26457630687	12
1	442	167.292701889892	11
1	448	168.303758193947	11
1	452	168.650772508859	12
1	453	168.775243305131	12
1	454	169.162634871975	11
1	455	170.04880384492	10
1	460	173.229385603852	10
1	464	174.668346327515	10
1	468	175.983857941389	10
1	471	177.408449294922	11
1	475	181.78888057666	11
1	480	183.542541218664	11
1	481	183.622094185555	11
1	482	184.766116776475	10
1	483	186.155850654505	9
1	485	186.939189049819	9
1	487	187.381523147171	10
1	488	187.610736411408	10
1	489	188.216044692812	9
1	493	189.687280218283	8
1	495	189.735675423052	8
1	499	189.947235464499	9
1	507	192.554110961871	9
1	509	192.58632684767	9
1	510	192.634902752717	9
1	512	192.68263809624	9
1	516	193.32175771113	10
1	525	196.67005715964	11
1	526	196.700096665802	11
1	527	196.808712864459	10
1	528	196.887887598028	9
1	530	197.376077132572	9
1	537	199.094144087227	10
1	543	200.131816514649	11
1	548	200.701040632694	12
1	549	201.114052121406	12
1	551	201.172906901345	12
1	553	201.363347096474	13
1	555	201.57617073119	14
1	556	202.170480709357	14
1	558	202.669669013511	14
1	559	204.047244004483	14
1	561	204.195217096186	14
1	562	205.15405018854	14
1	564	205.369907420831	14
1	566	205.94879699265	15
1	568	206.163248362514	16
1	570	206.833094437896	17
1	577	209.088151836966	18
1	579	209.283275882222	19
1	581	211.425300905522	19
1	585	212.476068250006	19
1	591	213.597797738004	20
1	593	214.481214803689	21
1	594	215.26497420705	21
1	602	216.530371408394	21
1	606	218.464761211202	21
1	607	219.590057270803	20
1	608	219.840746373201	19
1	610	220.421020869705	19
1	614	222.349247515093	19
1	615	223.338583773713	18
1	622	227.709652400639	18
1	624	227.762574687003	19
1	629	229.633297432081	19
1	631	230.06902968197	19
1	632	230.346263151233	19
1	633	231.50616768891	18
1	634	231.755300485002	17
1	635	232.125182934263	16
1	639	234.605624955039	15
1	649	236.154311372395	15
1	652	236.265097324778	16
1	654	239.428944324024	17
1	655	240.066031181817	17
1	657	240.095821436031	17
1	658	241.385586943525	17
1	659	241.524849528595	16
1	661	241.860949208848	16
1	669	244.496677185247	17
1	670	244.69094255716	17
1	675	246.817234440601	17
1	677	247.411971309486	18
1	679	248.510031460519	19
1	680	249.728445798495	19
1	681	249.825013053022	18
1	682	249.957456898098	17
1	688	251.234139883728	17
1	695	252.839645966484	18
1	696	253.7767987396	18
1	697	253.895345081642	17
1	707	255.176832110842	16
1	708	256.528416660872	15
1	709	256.561855245622	14
1	710	256.839524966923	13
1	714	259.803116386688	12
1	715	260.135204412415	11
1	720	261.454455808575	11
1	724	264.104151442594	11
1	725	264.356971434576	10
1	726	264.456839610356	9
1	728	265.392189654817	9
1	730	265.754296556131	10
1	732	265.958558495184	11
1	733	266.217193679078	11
1	734	266.378119765439	10
1	735	266.379497224142	9
1	736	266.633782497585	8
1	737	268.624969696558	7
1	738	268.869271491159	6
1	739	269.81591751125	5
1	741	270.32972544895	5
1	745	270.530986310499	6
1	747	270.821113217802	7
1	749	272.731375210968	7
1	750	274.251604841138	6
1	751	274.469913783925	5
1	755	275.315682717922	5
1	758	275.963836411538	6
1	760	276.743141285205	7
1	762	277.3785105042	8
1	763	278.851518794237	8
1	764	278.979203418396	7
1	766	279.617626432505	7
1	767	280.159444409864	7
1	768	280.527931944985	6
1	770	280.739844329599	6
1	772	282.799102571142	7
1	774	283.554786326568	8
1	779	284.577007536712	9
1	781	284.897042786934	10
1	786	285.618492655798	11
1	788	285.887411841761	12
1	789	286.016593784664	12
1	790	286.787320710992	11
1	791	287.861632633476	10
1	793	289.528626632872	10
1	794	289.908282120672	10
1	799	292.012070273823	10
1	801	292.17772303707	11
1	805	293.090166836022	11
1	806	293.257318329065	10
1	808	293.438344782242	10
1	809	294.096962703854	10
1	810	294.128006597848	9
1	811	294.177428838878	8
1	815	295.238642386134	8
1	820	296.577601136429	8
1	821	296.588146268605	7
1	823	296.739967241723	7
1	827	298.141569481418	7
1	829	298.73363929505	7
1	831	299.650048618787	8
1	832	299.713080549459	8
1	836	300.895079943207	7
1	838	302.423327517973	7
1	839	302.471971831779	7
1	841	302.486512180505	7
1	845	303.383524668349	7
1	846	303.608464085653	6
1	847	304.236161680701	5
1	849	304.759412559925	5
1	851	304.929850297461	6
1	855	305.844033781917	6
1	856	306.384590998757	5
1	858	307.961523719034	5
1	860	308.315917109698	6
1	861	309.799922354008	6
1	862	311.199091960545	5
1	863	312.506282058222	4
1	868	314.385873975696	4
1	870	314.647810144127	5
1	871	314.706587996732	5
1	873	315.187581978577	5
1	874	316.312453690678	5
1	878	318.238336884087	4
1	888	321.392591118415	4
1	894	322.728443211124	5
1	896	324.687910867323	6
1	904	326.028805047861	7
1	909	326.585231512322	8
1	910	326.722265488295	8
1	914	328.594198721781	7
1	915	328.602704849014	6
1	916	328.950554560945	5
1	917	329.755205086136	4
1	918	331.263027841415	3
1	929	334.922845238483	3
1	930	336.698583643152	3
1	931	337.494416300797	2
1	933	337.495168625989	2
1	934	337.835829102348	2
1	936	338.144477054543	2
1	937	338.208398611509	2
1	939	340.854924672666	2
1	940	340.937768298628	2
1	941	341.105495504407	1
1	943	341.803536341247	1
1	944	341.981531875369	1
1	954	345.239334944958	1
1	959	348.183793344502	1
1	961	348.412919247591	1
1	966	351.203191014155	2
1	967	351.856306243319	2
1	969	353.215590811861	2
1	974	355.584841719032	3
1	975	356.034092987286	3
1	976	356.034628446528	2
1	978	356.770419615468	2
1	980	357.61874477427	3
1	981	358.309376922819	3
1	985	359.029566206821	2
1	990	361.813349486313	2
1	995	363.537453409506	3
1	1000	365.346890843153	4
1	1002	366.68384744367	5
1	1010	368.383034119964	6
1	1012	368.418126960605	7
1	1013	368.807306788495	7
1	1014	369.337945471929	6
1	1015	369.413079445219	5
1	1016	370.429335453009	4
1	1017	370.639510066207	3
1	1018	371.329604621624	2
1	1019	372.02685534395	1
1	1020	372.047105265053	0
1	1024	373.410916426859	0
1	1027	374.50390207627	1
1	1028	375.167096442977	1
1	1030	376.080488591489	1
1	1034	378.24325066367	1
1	1036	378.338875393039	1
1	1041	379.496422902995	2
1	1042	379.790281478644	2
1	1044	380.300921840218	2
1	1045	382.45017085859	2
1	1049	383.399568819904	1
1	1050	383.472360652161	0
1	1052	383.477862271698	0
1	1056	385.395172978188	0
1	1058	387.932885162212	0
1	1059	388.347424302585	0
1	1061	388.94447853995	0
1	1062	389.137895825723	0
1	1064	390.257745909113	0
1	1070	390.760546970375	1
1	1074	392.502137940877	2
1	1075	392.594512180814	2
1	1077	393.030402362437	2
1	1079	394.868950933567	3
1	1080	394.94477942943	3
1	1085	399.28913051401	3
1	1086	399.394793615149	3
1	1087	400.506358156967	2
1	1089	401.03558360179	2
1	1090	401.346670659876	2
1	1092	402.298713892088	2
1	1097	404.987134026692	3
1	1099	405.958016726096	4
1	1101	408.093193933855	5
1	1103	408.465086935074	6
1	1104	408.869560196587	6
1	1105	409.479967016454	5
1	1107	409.482656191624	5
1	1109	409.585750298048	6
1	1110	410.662628380151	6
1	1111	411.633811139152	5
1	1112	412.58926692196	4
1	1113	414.273746440885	3
1	1123	415.934950328382	2
1	1136	419.008749537716	1
1	1138	420.056499957569	1
1	1139	420.422611346848	1
1	1143	420.962464589954	0
1	1145	422.551699259352	0
1	1149	424.76007906457	0
1	1153	427.640895827999	0
1	1162	431.16561139992	1
1	1169	433.525631429413	1
1	1171	434.345007288103	1
1	1173	435.20645854324	2
1	1175	436.637176127096	3
1	1176	437.092243328461	3
1	1177	438.278504562215	2
1	1181	440.116493332017	1
1	1182	440.241638091661	0
1	1184	442.986705945307	0
1	1185	443.768328227015	0
1	1187	444.649396979352	0
1	1188	444.952168357533	0
1	1190	445.01041068652	0
1	1197	446.734156650556	0
1	1204	449.994109398503	0
1	1206	451.035317597358	0
1	1210	452.274624255374	0
1	1213	453.116146845537	1
1	1214	453.798067472574	1
1	1215	454.10901653454	0
1	1217	456.427027696854	0
1	1218	456.656533171181	0
1	1220	457.502059330528	0
1	1222	457.860107699676	1
1	1230	460.170557324469	2
1	1231	460.374803016689	2
1	1233	461.347717604333	2
1	1235	461.404262805972	3
1	1236	462.542849655376	3
1	1241	466.665284656224	3
1	1243	467.134658342752	4
1	1247	468.143244379737	4
1	1248	468.345095854163	3
1	1253	470.829104391861	3
1	1255	471.471879883668	4
1	1259	473.793229859691	4
1	1260	474.240106865033	3
1	1262	474.450918847378	3
1	1264	475.157232924887	4
1	1269	475.919022957087	5
1	1270	476.00657816589	5
1	1271	477.660921641949	4
1	1273	478.808044479604	4
1	1275	479.743659683001	5
1	1280	482.332835052751	6
1	1282	482.629715190131	7
1	1290	483.813672696347	8
1	1291	484.493317908044	8
1	1292	487.219683769534	7
1	1299	488.317078341598	6
1	1300	489.072249839911	5
1	1305	489.585550572684	5
1	1309	491.207728263861	5
1	1311	493.871649527395	5
1	1312	494.736087484163	5
1	1314	495.960387970468	5
1	1321	500.282795278012	6
1	1326	503.528411855305	6
1	1328	503.95979281411	6
1	1329	504.731404112916	6
1	1330	505.054738880363	5
1	1335	507.854347118216	5
1	1336	508.995240741371	5
1	1340	510.969606506777	4
1	1341	511.440542022472	3
1	1342	512.231147011561	2
1	1343	512.270661286897	1
1	1345	512.37422308914	1
1	1355	515.78750635481	2
1	1358	516.440658239642	3
1	1362	517.161072791723	4
1	1365	518.357736684223	5
1	1372	522.078561247422	6
1	1377	522.615485128377	7
1	1382	526.643958042449	7
1	1383	528.304936412323	6
1	1384	528.416559894708	5
1	1388	532.347513320915	4
1	1390	532.455968848129	4
1	1391	534.080867617607	4
1	1392	534.668692823185	3
1	1394	536.229327137369	3
1	1402	538.656578315548	4
1	1406	540.243790834502	5
1	1408	542.55158464136	5
1	1410	542.864833310798	5
1	1412	543.879904713889	6
1	1414	545.407878752662	7
1	1416	545.441611086568	8
1	1417	545.718842427316	8
1	1425	549.82231253941	8
1	1429	551.612609930736	8
1	1430	552.182185677408	7
1	1434	555.644688583395	7
1	1436	555.923729239293	7
1	1437	556.801868120042	6
1	1438	557.255819179092	5
1	1440	558.408933757208	5
1	1441	559.464194122708	5
1	1445	560.685022750923	4
1	1447	560.924970909159	4
1	1448	561.088401566659	4
1	1455	563.720639311917	3
1	1460	566.891972017693	3
1	1461	567.253890421735	3
1	1462	568.258526209467	2
1	1463	568.436647519351	1
1	1465	568.68548050603	1
1	1470	571.020376312139	2
1	1471	572.134763362627	2
1	1472	572.335015378786	1
1	1473	572.56647230496	0
1	1475	572.751086843695	0
1	1476	575.030573040613	0
1	1483	576.016319246489	0
1	1485	576.287798504456	1
1	1488	577.407236232567	2
1	1489	577.747851460277	2
1	1491	580.867286832455	2
1	1499	582.632602956043	3
1	1500	582.939667315806	3
1	1504	586.079046263753	2
1	1505	586.952775832622	1
1	1509	587.313470054659	1
1	1515	588.813388432411	2
1	1516	588.848661902769	2
1	1517	588.891288707554	1
1	1521	591.585089000661	0
1	1523	592.63986462731	0
1	1530	593.587751983879	1
1	1532	593.89575401082	1
1	1533	595.795961697583	0
1	1535	597.125894888048	0
1	1537	597.191283514416	1
1	1538	599.01885723415	1
1	1539	599.176144840767	0
1	1541	600.507230430327	0
1	1542	601.558385986349	0
1	1546	601.70277481778	0
1	1548	602.166417817333	0
1	1553	608.096499419704	0
1	1554	608.634067798408	0
1	1556	608.95239714203	0
1	1558	609.243882008729	1
1	1559	610.166887854261	1
1	1560	610.648160037884	0
1	1562	611.506118131546	0
1	1563	612.204679782622	0
1	1574	616.355707267861	0
1	1578	618.806843529091	0
1	1598	623.939406758253	0
1	1603	628.28303207402	1
1	1605	628.491460987468	2
1	1606	629.036032361745	2
1	1611	631.988016879899	2
1	1613	632.668258880714	3
1	1614	633.387074052182	3
1	1619	634.19383845964	3
1	1621	634.295136826257	4
1	1622	635.15831108183	4
1	1623	636.820654547964	3
1	1624	637.378200779573	2
1	1626	637.663903907596	2
1	1628	638.053408790752	3
1	1629	638.159065383083	3
1	1630	638.660123329239	2
1	1634	639.388442291122	1
1	1638	640.211646015303	0
1	1648	643.454300348131	0
1	1653	646.820206527359	0
1	1670	655.379540578652	0
1	1672	657.636126445754	1
1	1674	657.877120681079	2
1	1675	658.771735801287	2
1	1680	660.062599511841	2
1	1685	661.888156506712	3
1	1692	664.214224817788	3
1	1694	664.735293040574	3
1	1698	665.836226468424	3
1	1702	666.78410992184	2
1	1703	667.191850669669	1
1	1710	670.395665105316	0
1	1712	670.505458231547	0
1	1713	670.669694364725	0
1	1715	672.266207758972	0
1	1719	675.147215281259	0
1	1721	675.657165464514	0
1	1722	677.178711965487	0
1	1730	680.249035260309	0
1	1732	681.868235393195	1
1	1733	682.12377353671	1
1	1734	682.142705486979	0
1	1739	683.330020465294	0
1	1740	683.598406428072	0
1	1742	685.85629195234	0
1	1747	688.113234191944	1
1	1756	689.119763283556	2
1	1764	691.00538764743	3
1	1771	693.547286672888	4
1	1773	693.673872946252	5
1	1774	694.302155756964	5
1	1778	697.535901670379	5
1	1782	697.885203009896	6
1	1785	698.160126517362	6
1	1786	698.540389936603	5
1	1787	698.686362523267	4
1	1791	699.304105467787	4
1	1794	699.953910962169	5
1	1795	700.423051982842	5
1	1805	703.463310299483	4
1	1819	708.945031068349	4
1	1820	709.069698214022	4
1	1821	709.722371068102	3
1	1823	711.123249771062	3
1	1824	711.171733837761	3
1	1828	711.999356640564	3
1	1831	713.337002324046	4
1	1833	713.762458984744	5
1	1835	715.257988909213	6
1	1837	715.919359027977	7
1	1839	717.19712328585	8
1	1843	721.315080866217	8
1	1844	722.519845583198	7
1	1845	723.614714009318	6
1	1847	723.94323928282	6
1	1849	724.164540361321	7
1	1850	724.568025491684	7
1	1851	725.517535208609	6
1	1852	725.836983427978	5
1	1853	726.832560261652	4
1	1857	728.628519123756	4
1	1859	728.928314910653	5
1	1861	729.790646733555	5
1	1862	730.020799105526	4
1	1866	731.840863740987	3
1	1868	732.542187025804	3
1	1872	734.66890187278	3
1	1876	736.117810585402	3
1	1879	737.542019520741	4
1	1883	738.177001048645	5
1	1886	739.007167320174	6
1	1888	740.396650488936	7
1	1890	740.75146253518	8
1	1892	740.774128669292	9
1	1893	743.678291832485	9
1	1895	743.819913068349	9
1	1899	744.118295104943	10
1	1901	744.27213350574	11
1	1903	744.668331493446	11
1	1905	745.538836355119	11
1	1909	747.623831516128	11
1	1911	747.707632101056	11
1	1913	748.384465604458	12
1	1915	749.063980082679	13
1	1916	749.595108074121	13
1	1918	750.889505019228	13
1	1920	752.404468571746	14
1	1921	754.413600989138	14
1	1922	755.36890260094	13
1	1923	755.469461858878	12
1	1924	756.156915027105	11
1	1931	758.02141583563	10
1	1933	758.719683582219	10
1	1935	758.838675310118	11
1	1940	760.840214411661	12
1	1941	761.151493234211	12
1	1942	761.378105912578	11
1	1944	763.19862105183	11
1	1946	766.235207770811	12
1	1947	766.938261486565	12
1	1948	766.999339282617	11
1	1949	767.458123039588	10
1	1950	767.468930235869	9
1	1952	768.36956120115	9
1	1953	769.108955258317	9
1	1954	769.598325619992	8
1	1956	769.75132678248	8
1	1963	773.523658109033	8
1	1965	774.571027706617	8
1	1975	775.835938665561	9
1	1978	776.445301446103	10
1	1979	776.563218656835	10
1	1983	776.731582053712	10
1	1988	777.504107972723	11
1	1990	779.330673683186	11
1	1991	779.615181471489	10
1	2002	782.801852276907	10
1	2004	782.841811527598	11
1	2012	783.905792971552	12
1	2013	784.157265527807	12
1	2017	785.631133066464	11
1	2018	785.670430804737	10
1	2019	786.918118336868	9
1	2020	789.904800795481	8
1	2021	790.290907799609	7
1	2022	790.480537806623	6
1	2026	791.359245738821	5
1	2036	792.891677088824	5
1	2039	794.430701316334	6
1	2040	795.34483671831	6
1	2042	797.421442972892	6
1	2046	797.951257951986	7
1	2054	799.314988286109	7
1	2055	800.255877108792	6
1	2060	801.70194000472	6
1	2061	802.063950093853	6
1	2063	802.065936585999	6
1	2065	803.0301141553	7
1	2073	804.34511970243	8
1	2077	805.367746775683	8
1	2079	805.933789890641	8
1	2080	806.512126324178	8
1	2081	807.000153733039	7
1	2082	807.999675426618	6
1	2087	808.48287061781	6
1	2088	809.466592844885	6
1	2089	809.81627237651	5
1	2090	809.831226558221	4
1	2097	811.760255037701	4
1	2105	814.267859402743	4
1	2112	816.472924195367	4
1	2114	817.860478861579	4
1	2115	818.708927232539	3
1	2117	818.81721370655	3
1	2119	820.099203862293	4
1	2124	821.461912656827	5
1	2126	821.475859581201	6
1	2136	824.869037502162	6
1	2137	825.903340054075	5
1	2139	828.624038607675	5
1	2140	829.799740394316	5
1	2144	831.37279571566	4
1	2146	831.911382326216	4
1	2147	832.150251739725	4
1	2149	832.735598933863	4
1	2151	833.289810303001	5
1	2156	834.36916771163	6
1	2158	835.725590047537	7
1	2159	835.904739656233	7
1	2160	835.995685716845	6
1	2161	836.083614697924	5
1	2163	836.235206771203	5
1	2167	837.631663656297	5
1	2169	838.267739435851	5
1	2170	840.383429315491	5
1	2172	840.727348383552	5
1	2174	842.05323630712	6
1	2175	842.610883130902	6
1	2177	843.85750346273	6
1	2179	844.310070379618	7
1	2180	845.372586595381	7
1	2182	846.457006547118	7
1	2183	847.337040341554	7
1	2188	849.494744779659	7
1	2189	850.532234915247	7
1	2194	853.090746515647	7
1	2195	853.159896655845	7
1	2196	856.404251035298	6
1	2198	857.341953380609	6
1	2200	857.540648975851	7
1	2201	859.686572189706	7
1	2202	860.817539038145	6
1	2203	861.467066567234	5
1	2213	864.202558824956	5
1	2216	865.219033729752	6
1	2217	865.320011078115	6
1	2219	865.498399701071	6
1	2221	865.499175614861	7
1	2223	865.904001556679	8
1	2224	867.111349194201	8
1	2225	867.473116600668	7
1	2226	868.255748345273	6
1	2227	868.518492143361	5
1	2229	868.86102963602	5
1	2230	868.900050558937	5
1	2231	869.021647637492	4
1	2232	869.065381635673	3
1	2233	869.953974788015	2
1	2234	871.574663419625	1
1	2235	871.958327652216	0
1	2246	878.26363438322	0
1	2247	878.704043156662	0
1	2252	881.15367925776	0
1	2253	881.469652362935	0
1	2255	882.14703599392	0
1	2256	882.90467103189	0
1	2273	887.893815937531	0
1	2274	889.710371102322	0
1	2285	894.02220852304	0
1	2286	895.305902039086	0
1	2308	903.287404801678	0
1	2317	905.381075370248	1
1	2318	905.45110943967	1
1	2320	905.476450851148	1
1	2322	906.906495903709	2
1	2323	912.338228306952	2
1	2327	916.217350129248	1
1	2332	917.519255140427	1
1	2333	918.11309942167	1
1	2340	921.352674868093	0
1	2347	927.301108667785	0
1	2349	927.488145667439	1
1	2351	928.048927411963	2
1	2357	930.386822025694	3
1	2358	931.011967274395	3
1	2359	931.075881974448	2
1	2363	931.282974704608	2
1	2365	933.473431903544	2
1	2367	934.367173347975	2
1	2368	935.199965110497	2
1	2372	938.319982245541	1
1	2377	939.024337122682	1
1	2379	941.898690942208	2
1	2380	941.960903726461	2
1	2382	942.044482182295	2
1	2383	942.491843587781	2
1	2384	943.250469359013	1
1	2385	943.777358790455	0
1	2389	944.747083820355	0
1	2392	945.825704825005	1
1	2394	945.90736482857	2
1	2395	946.290180310642	2
1	2397	947.095926231029	2
1	2398	948.104121556357	2
1	2402	949.269202224769	1
1	2403	950.16156230661	0
1	2407	950.435328942277	0
1	2409	951.528414779898	0
1	2411	951.932261965465	0
1	2412	952.998580248765	0
1	2416	954.683785688455	0
1	2418	956.214069186748	0
1	2420	956.291660412267	0
1	2422	957.060460507427	1
1	2423	957.43821706403	1
1	2424	958.547098539998	0
1	2432	960.865731891735	0
1	2433	962.124997284353	0
1	2435	962.284078574386	0
1	2436	963.302803911186	0
1	2438	967.627095398329	0
1	2439	968.738989622062	0
1	2445	971.012640345452	0
1	2449	971.433533804847	1
1	2456	973.917426825187	1
1	2458	973.924312817794	1
1	2460	975.822370729919	2
1	2470	977.316993780321	3
1	2476	979.373717803796	4
1	2481	982.374087842809	5
1	2482	983.755997040639	5
1	2483	985.488792856335	4
1	2485	985.637846058111	4
1	2490	986.312741775544	5
1	2491	986.807001265026	5
1	2493	986.984344668418	5
1	2501	988.528573537318	6
1	2503	988.618141401717	7
1	2506	989.563783679367	8
1	2512	991.42342745914	9
1	2514	992.114859055999	9
1	2518	993.5794601551	9
1	2523	996.737444936655	9
1	2530	999.224681190637	8
1	2531	999.535956659139	7
1	2536	999.716087981729	7
1	2537	1000.682045671546	7
1	2539	1002.377397060387	7
1	2540	1002.535479365162	7
1	2542	1002.997112873534	7
1	2544	1003.227768818845	8
1	2546	1003.641266440236	9
1	2548	1004.348702700247	10
1	2549	1004.662022773308	10
1	2550	1005.275497821649	9
1	2557	1006.262713151814	8
1	2558	1006.781449576934	7
1	2560	1007.23848661772	7
1	2562	1009.300644634444	8
1	2563	1009.864115476743	8
1	2567	1010.520420224076	7
1	2568	1010.664048935017	6
1	2569	1010.973626120886	5
1	2571	1012.526115642161	5
1	2582	1014.797226120232	6
1	2584	1015.774396605012	7
1	2586	1017.349300676085	8
1	2587	1017.722597521839	8
1	2591	1018.534573361932	7
1	2593	1018.743860139586	7
1	2594	1018.955360046221	7
1	2596	1021.820182102166	7
1	2597	1022.982019091629	7
1	2598	1023.003885291867	6
1	2599	1023.986948310323	5
1	2601	1026.425101142989	5
1	2609	1028.266831633874	6
1	2610	1028.814464150829	6
1	2614	1029.679759020833	6
1	2623	1031.211109088422	7
1	2627	1032.53821107061	7
1	2631	1032.746083512194	6
1	2633	1032.768474484593	6
1	2635	1033.003712466699	7
1	2637	1033.769396009524	8
1	2639	1033.969465599547	9
1	2640	1034.254966925062	9
1	2642	1035.220997242542	9
1	2646	1035.577586637027	10
1	2648	1036.035299725834	10
1	2650	1036.46227151243	10
1	2651	1037.811934202386	10
1	2652	1037.986319622916	9
1	2656	1043.948646346202	8
1	2660	1044.223354938472	7
1	2662	1044.748513889521	7
1	2663	1044.818739566713	7
1	2664	1045.122303010163	6
1	2665	1045.263995010519	5
1	2667	1045.569759489668	5
1	2669	1046.77359746107	6
1	2673	1049.070431548115	7
1	2679	1051.367112939901	8
1	2683	1051.832697304528	8
1	2687	1052.201417552821	8
1	2689	1052.664781437077	8
1	2691	1052.863242384961	8
1	2692	1053.652958607115	8
1	2694	1054.02669801257	8
1	2696	1054.679002196592	9
1	2698	1054.753939048099	10
1	2699	1056.353347269756	10
1	2700	1056.830711467114	9
1	2701	1057.491104990321	8
1	2708	1058.702042647467	8
1	2713	1060.054467989518	9
1	2715	1060.089175455319	10
1	2721	1060.848189542855	11
1	2723	1061.288067859303	12
1	2728	1062.992237455697	13
1	2730	1065.03090556004	14
1	2735	1067.745108941182	15
1	2736	1068.066442203115	15
1	2738	1068.58454730462	15
1	2739	1070.368959259502	15
1	2743	1071.66649816036	14
1	2744	1072.219429356713	13
1	2745	1072.530129413007	12
1	2746	1072.764237709255	11
1	2748	1073.320486351225	11
1	2749	1073.997412239135	11
1	2753	1075.783308099458	10
1	2754	1076.62566080878	9
1	2755	1076.705770953766	8
1	2760	1077.965585366333	8
1	2761	1078.136047616209	8
1	2763	1078.18724305422	8
1	2768	1081.853617523015	9
1	2769	1082.296090939481	9
1	2776	1082.8499277508	8
1	2778	1083.622883913453	8
1	2779	1084.369769269743	8
1	2780	1086.137492448186	7
1	2781	1086.331244390598	6
1	2786	1087.750002990612	6
1	2787	1088.200531812078	6
1	2794	1089.719882552069	5
1	2795	1089.978129577262	4
1	2797	1090.547032228399	4
1	2799	1091.095190209427	5
1	2800	1094.138295858445	5
1	2801	1094.356311569997	4
1	2805	1094.754261497188	3
1	2809	1095.779040384541	3
1	2815	1097.958627644395	4
1	2817	1098.499228557321	5
1	2819	1098.586896271255	6
1	2832	1101.294245906874	6
1	2834	1103.75173609228	6
1	2835	1104.091313035184	6
1	2842	1107.787489338189	5
1	2847	1110.230577546404	5
1	2849	1110.637675354562	6
1	2851	1111.209889714289	7
1	2853	1111.303835913696	8
1	2857	1113.154870787476	8
1	2859	1113.217478070926	8
1	2860	1113.26810209641	8
1	2864	1113.845008251404	8
1	2866	1115.0382619358	8
1	2867	1115.186726865792	7
1	2868	1116.112837908567	6
1	2876	1119.949367970023	6
1	2878	1120.084110988537	7
1	2879	1120.57627546521	7
1	2881	1120.773039895647	7
1	2882	1121.399727454172	7
1	2886	1122.883764183213	6
1	2888	1124.167876292832	6
1	2890	1125.304764869312	7
1	2891	1126.513690468034	7
1	2892	1128.0013027471	6
1	2893	1128.939340340116	5
1	2894	1129.751843721998	4
1	2898	1130.914453738621	4
1	2901	1132.187116955072	5
1	2902	1134.295113344659	5
1	2904	1134.907020189897	5
1	2906	1136.887740288676	6
1	2913	1138.071814553225	6
1	2914	1138.215957420004	5
1	2923	1139.109599481152	5
1	2926	1140.03880036094	5
1	2927	1140.380434200548	4
1	2932	1142.360857151762	4
1	2937	1145.003497756257	5
1	2938	1145.761810302865	5
1	2940	1145.798885383639	5
1	2941	1145.908501712196	5
1	2942	1146.116675870652	4
1	2946	1148.024373128128	3
1	2954	1148.965416966624	3
1	2959	1149.626873119976	4
1	2960	1149.944449721527	4
1	2962	1150.068728159008	4
1	2963	1150.260108092659	4
1	2964	1150.620556035597	3
1	2965	1151.120235566247	2
1	2966	1152.677977060466	1
1	2971	1153.892600105208	1
1	2973	1155.020582107452	2
1	2977	1158.527593955066	2
1	2978	1160.061346999246	1
1	2979	1160.247786576062	0
1	2984	1162.733773432996	0
1	2989	1163.691102096838	1
1	2991	1164.507935121158	2
1	2992	1164.686988491615	2
1	2993	1165.848974300556	1
1	2994	1166.03962462455	0
1	2999	1167.438875449354	0
1	3000	1169.272407611357	0
1	3002	1170.754687983421	0
1	3006	1172.260654766602	1
1	3011	1173.545310963117	1
1	3012	1173.578648489905	0
1	3014	1174.109756023154	0
1	3019	1174.752173827299	1
1	3021	1175.181985337881	2
1	3022	1175.289148475108	2
1	3023	1176.376112161536	1
1	3025	1176.503607449911	1
1	3026	1177.106021249864	1
1	3034	1181.251487347738	1
1	3035	1181.457241961464	1
1	3036	1182.346242602658	0
1	3047	1185.615099389068	0
1	3048	1186.260755222801	0
1	3050	1186.764602489181	0
1	3052	1188.64189833668	1
1	3054	1190.137101187399	2
1	3056	1190.799247862609	3
1	3057	1191.404168608205	3
1	3058	1191.507844834516	2
1	3062	1192.347019246232	1
1	3072	1195.895162844878	1
1	3075	1196.398845099145	2
1	3076	1196.797333405714	2
1	3077	1197.617010553602	1
1	3090	1200.47909884533	0
1	3095	1202.515032593503	0
1	3097	1202.99038695195	1
1	3098	1204.544498427	1
1	3099	1204.545789920595	0
1	3101	1205.977268227262	0
1	3102	1206.190013188468	0
1	3104	1206.503044616417	0
1	3106	1207.784879716268	1
1	3108	1208.238720926478	2
1	3115	1212.987654634531	2
1	3116	1213.15636308316	1
1	3117	1213.974489847056	0
1	3119	1214.584174299131	0
1	3124	1216.473875934638	1
1	3129	1217.571400045619	2
1	3131	1218.388962603499	3
1	3138	1218.711675795971	3
1	3140	1219.064852422056	3
1	3141	1219.09195918035	3
1	3146	1220.166909566818	3
1	3151	1222.135820302781	4
1	3153	1222.738149246226	5
1	3155	1222.783129942829	6
1	3159	1223.116945353917	7
1	3161	1223.790550459563	8
1	3170	1226.308125901242	9
1	3175	1227.619012731525	10
1	3176	1227.808882628697	10
1	3177	1228.81113907503	9
1	3181	1229.653195703365	8
1	3183	1230.11979369413	8
1	3184	1231.635297569161	8
1	3188	1233.286929860887	7
1	3190	1233.895436797169	7
1	3191	1234.027463339475	7
1	3196	1234.789035911501	7
1	3198	1235.83655915728	8
1	3203	1237.737549034886	9
1	3204	1238.484409153127	9
1	3205	1238.871105061475	8
1	3212	1239.350176234336	8
1	3217	1240.027729377501	9
1	3223	1241.650272727639	10
1	3233	1246.485829252828	11
1	3235	1246.508879628319	12
1	3238	1247.2674412947	13
1	3240	1247.726061363215	14
1	3248	1248.459913327581	15
1	3250	1249.333999864146	16
1	3257	1253.668660234576	17
1	3259	1255.629372277115	17
1	3261	1255.692643564164	17
1	3268	1256.350447947451	17
1	3273	1257.439057868581	17
1	3274	1258.262604837135	17
1	3275	1260.739799314004	16
1	3277	1262.315195002423	16
1	3278	1262.7237037654	16
1	3285	1264.802973122962	15
1	3286	1265.443879296163	14
1	3287	1265.454696190891	13
1	3289	1265.957134142859	13
1	3290	1266.53007990751	13
1	3297	1269.729616050777	12
1	3299	1271.376691840056	12
1	3301	1271.427781290664	13
1	3303	1272.208396494514	14
1	3307	1272.984745819887	14
1	3308	1273.815854188347	13
1	3309	1273.851990418555	12
1	3310	1273.880560016643	11
1	3312	1275.133496065795	11
1	3313	1275.667956214275	11
1	3314	1275.978402507704	10
1	3319	1277.903675795929	10
1	3321	1278.063715731276	11
1	3322	1278.209253386725	11
1	3323	1278.70196766562	10
1	3325	1282.278741045587	10
1	3327	1282.614579788931	11
1	3329	1283.028034139118	12
1	3342	1286.399905028382	12
1	3343	1287.451205693054	11
1	3344	1290.5579636193	10
1	3348	1291.443697935098	9
1	3353	1291.799620562149	9
1	3354	1292.237442927969	9
1	3355	1292.277499416477	8
1	3356	1292.371529805227	7
1	3357	1293.424108092697	6
1	3359	1293.776531837389	6
1	3360	1293.896332819671	6
1	3362	1295.363550695728	6
1	3369	1298.043402670844	7
1	3374	1299.181485215855	7
1	3375	1299.336199058091	6
1	3376	1299.952314806386	5
1	3377	1299.989072312604	4
1	3378	1303.505562267839	3
1	3385	1304.283372941117	2
1	3390	1306.981037516742	2
1	3392	1307.09969416135	3
1	3399	1308.410435506188	4
1	3401	1309.590537206163	4
1	3403	1309.7803686657	4
1	3407	1312.691884798056	4
1	3408	1313.110495148111	3
1	3409	1313.420761003572	2
1	3410	1314.748463244432	1
1	3412	1314.777672771371	1
1	3416	1316.175697937311	2
1	3424	1319.519913309814	2
1	3426	1320.564075437269	2
1	3428	1320.566968671348	3
1	3429	1321.910899361043	3
1	3431	1322.259710016519	3
1	3435	1323.425156600752	4
1	3437	1324.462060425505	4
1	3438	1325.765178983853	3
1	3440	1325.827974108142	3
1	3444	1327.438089933167	4
1	3452	1332.603318638636	4
1	3454	1332.644664626977	4
1	3456	1333.424631763745	5
1	3457	1333.707081373721	5
1	3458	1334.310996015943	4
1	3460	1335.020744670459	4
1	3462	1335.084077509279	5
1	3466	1336.802846773857	5
1	3468	1337.317810664558	5
1	3472	1340.551071495154	5
1	3474	1342.027103182304	5
1	3476	1342.583024632778	6
1	3477	1342.785159107297	6
1	3478	1342.918900478622	5
1	3488	1344.946568821094	5
1	3491	1346.530265562507	6
1	3496	1347.271024694246	7
1	3501	1348.499121115964	8
1	3502	1351.509563033221	8
1	3503	1354.270265411553	7
1	3504	1354.283831569211	6
1	3506	1354.587741996341	6
1	3508	1357.086987881721	7
1	3512	1357.701319212486	7
1	3514	1358.552299905475	7
1	3518	1359.450794744402	7
1	3523	1362.024365132129	7
1	3525	1362.121274553022	8
1	3529	1363.470738977933	9
1	3532	1363.955777210463	10
1	3537	1366.827291128094	11
1	3539	1368.340233643464	12
1	3546	1370.028278172097	13
1	3548	1372.025325106566	13
1	3552	1372.667048830718	13
1	3554	1373.354425508389	13
1	3556	1373.683998592214	13
1	3557	1373.719047782771	13
1	3562	1374.47362200494	13
1	3564	1377.170679575817	14
1	3565	1378.318441764437	14
1	3567	1378.967833561368	14
1	3571	1380.067210038626	14
1	3573	1381.923521635682	14
1	3575	1382.581096139935	15
1	3586	1385.358491153498	16
1	3587	1387.055988287639	16
1	3589	1387.713236018062	16
1	3593	1390.135109370228	16
1	3595	1390.201763356259	16
1	3599	1392.295076240936	16
1	3607	1395.866819192088	16
1	3608	1396.151242824557	16
1	3615	1398.618123131297	15
1	3623	1400.110341328605	15
1	3624	1400.575088351652	15
1	3625	1401.647692150238	14
1	3626	1402.302300165085	13
1	3631	1403.699402102567	13
1	3633	1405.171372894751	14
1	3634	1405.311209676784	14
1	3639	1407.815847872088	14
1	3644	1408.591435847842	15
1	3646	1408.806098192431	16
1	3648	1409.071645823194	17
1	3649	1409.840630741288	17
1	3651	1410.010602976052	17
1	3655	1413.929200921958	17
1	3656	1414.656737323603	16
1	3657	1414.987579932061	15
1	3658	1416.105691354193	14
1	3662	1417.879728393527	13
1	3664	1418.463721851748	13
1	3665	1418.502370438305	13
1	3673	1420.586920264985	13
1	3674	1421.613703651845	13
1	3676	1421.956971576449	13
1	3677	1422.239350165348	13
1	3678	1422.583615155692	12
1	3680	1422.619146709526	12
1	3681	1423.78617571829	12
1	3682	1425.762478754053	11
1	3693	1428.815819006746	11
1	3695	1428.925575937399	12
1	3700	1430.291069274993	13
1	3701	1431.015153325772	13
1	3702	1431.40701775971	12
1	3704	1431.45709285637	12
1	3705	1431.96179799639	12
1	3707	1432.723539095668	12
1	3708	1433.22750170989	12
1	3710	1433.556673853417	12
1	3712	1434.842443622464	13
1	3713	1437.395802214528	13
1	3714	1437.671133257689	12
1	3718	1439.17388603888	12
1	3720	1439.224038561482	13
1	3726	1441.493669940447	14
1	3727	1442.218151955816	14
1	3731	1443.55607521708	13
1	3733	1444.096149688879	13
1	3734	1444.301790104743	13
1	3735	1445.000624076987	12
1	3736	1445.257158398339	11
1	3738	1445.379411782229	11
1	3739	1446.026474018344	11
1	3741	1446.764087371167	11
1	3742	1447.216114075437	11
1	3746	1447.934439020625	11
1	3748	1448.932613499549	11
1	3752	1453.282900296628	10
1	3754	1453.812439329953	10
1	3755	1454.174146375492	10
1	3765	1460.292082364491	9
1	3770	1460.999049712991	9
1	3771	1461.478322478973	9
1	3773	1462.021426883261	9
1	3775	1462.320393331375	10
1	3776	1463.223465154381	10
1	3777	1463.512544383769	9
1	3778	1463.93328465449	8
1	3780	1464.22340504094	8
1	3782	1464.385771288794	9
1	3784	1465.32661864777	10
1	3786	1465.653374561455	11
1	3787	1467.017331256341	11
1	3788	1467.920826524061	10
1	3789	1468.517634031023	9
1	3793	1470.300412821003	9
1	3798	1470.99249184513	10
1	3801	1471.535309816107	11
1	3805	1472.027501343701	12
1	3807	1472.806933223327	13
1	3812	1473.054124767838	14
1	3815	1474.034575061276	15
1	3816	1474.578429041188	15
1	3818	1474.942334830581	15
1	3831	1478.460262078062	16
1	3833	1479.072425495677	16
1	3834	1479.09017523489	15
1	3836	1479.224833512284	15
1	3837	1479.416527988673	15
1	3838	1480.685092356592	14
1	3840	1480.903116682233	14
1	3844	1482.262528020011	14
1	3846	1483.54056776455	14
1	3851	1485.19567913052	15
1	3855	1487.422315488481	15
1	3862	1490.751863037663	15
1	3867	1491.99809660985	16
1	3869	1492.662863509789	16
1	3873	1494.5518590332	16
1	3876	1495.862087300372	17
1	3878	1496.665062439961	18
1	3879	1497.140896053233	18
1	3881	1497.870997085519	18
1	3882	1498.136156726235	18
1	3883	1498.988035544767	17
1	3891	1502.116817563038	17
1	3893	1505.890592038702	18
1	3895	1507.217533194949	19
1	3899	1507.676129531385	20
1	3901	1508.106449303126	21
1	3903	1508.594703320559	21
1	3904	1509.401591458959	20
1	3914	1510.574021228722	20
1	3916	1511.793258244107	20
1	3921	1512.811689632454	20
1	3935	1515.781607490844	21
1	3939	1518.509345473804	21
1	3940	1519.359062907774	20
1	3941	1520.469622349039	19
1	3943	1520.969647765612	19
1	3944	1522.099226455279	19
1	3946	1522.210563680739	19
1	3948	1522.412098313169	20
1	3952	1523.183480642105	20
1	3954	1523.757042166101	20
1	3958	1527.55612805535	20
1	3963	1528.812252039255	20
1	3965	1529.141790695837	21
1	3973	1534.16905801856	22
1	3978	1536.346159423618	23
1	3979	1536.399738310304	23
1	3981	1536.968397251109	23
1	3982	1537.369178940752	23
1	3984	1537.378619209513	23
1	3985	1537.703433182786	23
1	3989	1539.230870738797	22
1	3991	1539.308494555148	22
1	3992	1539.36262197797	22
1	3996	1540.77895395975	21
1	3997	1542.884535621982	20
1	3999	1544.856396818635	20
1	4004	1545.726319331794	21
1	4005	1545.911166616168	21
1	4014	1547.035045450246	21
1	4017	1547.824911437181	22
1	4023	1549.759676497376	23
1	4024	1550.271720675796	23
1	4028	1552.791590772719	22
1	4029	1553.075167972974	21
1	4031	1553.26260772865	21
1	4032	1553.504430185229	21
1	4034	1553.877573156879	21
1	4036	1554.330067715551	22
1	4037	1554.889377530962	22
1	4039	1555.453535050243	22
1	4040	1556.812319033901	22
1	4042	1556.98921826718	22
1	4043	1558.151153861525	22
1	4051	1561.071017707008	22
1	4061	1563.83841509434	23
1	4067	1565.916637790028	24
1	4069	1566.634064341316	25
1	4071	1566.825562113357	26
1	4072	1566.989740500715	26
1	4080	1569.964791192078	26
1	4081	1570.364999438221	26
1	4082	1571.684153769095	25
1	4088	1572.599849880402	25
1	4090	1572.613947965883	26
1	4093	1574.383117607166	26
1	4094	1574.796594380149	25
1	4095	1575.42311907176	24
1	4100	1579.221449071111	24
1	4101	1579.354937390376	24
1	4102	1579.474177333304	23
1	4106	1579.927678853443	23
1	4109	1581.208146428583	24
1	4111	1581.250881235314	25
1	4112	1581.659620316925	25
1	4122	1585.426961984732	25
1	4142	1590.183975316161	26
1	4151	1591.369029218866	27
1	4152	1591.987468199216	27
1	4157	1592.610562645317	27
1	4158	1593.196333078094	27
1	4162	1595.128430938417	26
1	4163	1595.67979790563	25
1	4168	1597.45560525786	25
1	4170	1598.908313387896	26
1	4172	1599.075512835904	27
1	4179	1601.408968651609	27
1	4196	1603.982202846418	27
1	4197	1604.248344802366	27
1	4199	1604.831605844587	27
1	4203	1606.513324770832	27
1	4208	1607.277242220518	27
1	4210	1607.342497694144	28
1	4212	1607.969517722107	29
1	4214	1608.477478363623	30
1	4215	1608.599128186594	30
1	4217	1609.847256914368	30
1	4219	1610.319930328961	31
1	4224	1611.283772624908	32
1	4226	1611.357644478511	33
1	4228	1612.585161688312	34
1	4230	1613.4023163759	35
1	4235	1614.475345493282	36
1	4239	1615.093060817579	37
1	4241	1615.944160471078	37
1	4245	1617.258769900591	37
1	4247	1617.931823116133	37
1	4254	1621.539955438749	36
1	4256	1624.534596978993	36
1	4257	1624.752954132899	36
1	4259	1625.476993328322	36
1	4260	1625.542772515785	36
1	4261	1625.785808802486	35
1	4263	1625.866270965121	35
1	4264	1626.793260793231	35
1	4265	1627.505894455978	34
1	4267	1627.622516017047	34
1	4269	1627.773475288603	35
1	4271	1627.959037065627	36
1	4273	1629.022197849367	37
1	4274	1629.694300495035	37
1	4275	1629.709642601613	36
1	4279	1630.919741457671	35
1	4281	1631.787422187016	35
1	4292	1637.226027019949	36
1	4294	1637.528621511766	37
1	4295	1637.871504834776	37
1	4296	1638.379769689844	36
1	4297	1638.639645736195	35
1	4299	1638.842242003351	35
1	4300	1640.910037140696	35
1	4301	1641.954924592156	34
1	4303	1642.981696261453	34
1	4304	1644.057060911939	34
1	4305	1644.111253277742	33
1	4306	1644.208894422276	32
1	4308	1644.327456617658	32
1	4312	1646.346760190144	32
1	4314	1646.813365827226	32
1	4319	1649.802326393309	33
1	4323	1650.598520775352	34
1	4325	1652.334494411812	34
1	4327	1652.809778152209	34
1	4334	1655.744566748524	34
1	4336	1655.956658910548	34
1	4337	1656.753378589982	34
1	4339	1657.135686277262	34
1	4340	1657.680886316865	34
1	4342	1657.727206073072	34
1	4350	1659.655722485974	35
1	4356	1662.299328459799	36
1	4358	1662.623754336611	37
1	4363	1663.826106088911	38
1	4366	1664.521685968904	39
1	4369	1664.774570916558	40
1	4370	1664.952689116743	40
1	4372	1665.277040037853	40
1	4373	1665.317980739671	40
1	4380	1668.398429494087	40
1	4385	1669.524025272184	40
1	4386	1669.632030226939	39
1	4387	1669.905700425475	38
1	4388	1671.462806855497	37
1	4389	1671.479678397158	36
1	4390	1671.596623234054	35
1	4392	1671.766993323122	35
1	4394	1671.781122148862	36
1	4395	1672.16120994891	36
1	4396	1673.883650028133	35
1	4397	1674.393965864897	34
1	4402	1675.593072593636	34
1	4404	1677.070653611954	35
1	4405	1677.372765231191	35
1	4406	1677.875166956403	34
1	4407	1678.027554791102	33
1	4412	1682.211171531174	33
1	4413	1682.73607314803	33
1	4423	1685.059475785903	32
1	4427	1685.330129898584	32
1	4432	1688.788683189185	32
1	4434	1688.930714546341	32
1	4435	1689.21165657547	32
1	4437	1690.503237378317	32
1	4439	1690.941325140291	33
1	4440	1691.217002227528	33
1	4445	1693.002986349808	33
1	4449	1695.490098573093	33
1	4451	1695.84724876557	33
1	4452	1696.47473693361	33
1	4453	1697.948228592717	32
1	4455	1698.679195331488	32
1	4459	1699.836560387133	32
1	4460	1700.403840103537	31
1	4465	1701.65012418267	31
1	4467	1701.732601271197	32
1	4468	1702.331368513117	32
1	4470	1702.354874950314	32
1	4472	1702.729221081663	33
1	4477	1703.477293480646	34
1	4478	1705.064625700189	34
1	4480	1705.305357862772	34
1	4485	1707.637841650086	35
1	4486	1707.730406074514	35
1	4488	1708.164821822737	35
1	4490	1711.386312405567	36
1	4491	1712.320911255144	36
1	4493	1713.472162626456	36
1	4494	1714.280629959178	36
1	4501	1714.908613485252	36
1	4504	1715.913636162904	37
1	4506	1716.577595322615	38
1	4510	1717.110496707409	38
1	4511	1718.337858291199	37
1	4512	1718.842121490641	36
1	4514	1720.454459012788	36
1	4515	1720.660081173859	36
1	4516	1720.807020707443	35
1	4524	1724.28397604373	35
1	4529	1725.779440187805	36
1	4531	1726.17261814156	37
1	4533	1726.593175644398	38
1	4537	1727.881227945735	39
1	4539	1727.901288666473	40
1	4547	1731.013588258845	40
1	4548	1731.069616888321	39
1	4550	1731.874438024606	39
1	4552	1732.507419262261	40
1	4554	1734.107280064838	41
1	4556	1735.710271280266	42
1	4567	1738.956012191776	43
1	4568	1738.988350611235	43
1	4569	1739.003503885653	42
1	4571	1740.089783081974	42
1	4578	1741.109911205827	43
1	4580	1741.196543769225	44
1	4588	1743.570310748952	44
1	4590	1744.112369957239	44
1	4592	1744.186013414332	45
1	4594	1744.380663004429	46
1	4595	1744.831392778607	46
1	4596	1745.612217564056	45
1	4607	1747.427487035831	45
1	4608	1747.874866724788	45
1	4610	1748.000455725586	45
1	4611	1748.27176114236	45
1	4612	1748.3601377454	44
1	4613	1748.561157010127	43
1	4617	1748.801332040208	42
1	4621	1753.162428112757	41
1	4623	1753.941150590349	41
1	4628	1754.544478182403	42
1	4632	1754.90704148444	43
1	4634	1755.016884400942	44
1	4637	1757.117348105721	45
1	4639	1757.677828445248	46
1	4640	1758.095733760935	46
1	4641	1759.046130585358	45
1	4643	1759.623422658859	45
1	4645	1759.663847574381	46
1	4647	1760.570453271754	47
1	4648	1760.630796351669	47
1	4649	1761.000869322808	46
1	4650	1761.948062309453	45
1	4651	1762.417943539523	44
1	4655	1764.846504937244	43
1	4660	1766.068917369727	43
1	4662	1767.938391472156	44
1	4663	1769.954874616785	44
1	4664	1771.143323922876	43
1	4665	1771.190411037444	42
1	4666	1771.256977608908	41
1	4667	1771.399341124152	40
1	4668	1771.46045664407	39
1	4676	1773.586642951987	39
1	4678	1774.408590544659	40
1	4679	1774.429208497413	40
1	4683	1777.213148337737	39
1	4684	1777.843042655599	38
1	4700	1782.644016322316	37
1	4701	1783.352737135622	36
1	4708	1785.400701704236	35
1	4713	1786.961627527285	35
1	4715	1788.365376482704	36
1	4716	1789.974376808011	36
1	4718	1792.234942078184	36
1	4720	1792.398843207271	37
1	4722	1793.023218788765	38
1	4727	1793.824032470405	39
1	4732	1794.420369012568	40
1	4733	1794.833547981784	40
1	4735	1795.093622675648	40
1	4736	1795.433147678903	40
1	4741	1799.385592982264	40
1	4742	1800.106435445558	40
1	4743	1802.500673582669	39
1	4745	1803.161712619681	39
1	4747	1803.701629937521	40
1	4751	1804.953528711047	41
1	4753	1804.992165054294	42
1	4758	1807.197199577668	42
1	4759	1809.275795796192	41
1	4760	1811.106231165278	40
1	4764	1813.144992954003	39
1	4765	1813.357061272595	38
1	4766	1813.440788720498	37
1	4767	1815.151392171893	36
1	4769	1815.221038614358	36
1	4770	1815.59553695196	36
1	4771	1816.370012961431	35
1	4773	1817.77771687408	35
1	4774	1817.785796670814	35
1	4776	1818.745147574026	35
1	4777	1819.422226993003	35
1	4779	1822.380915458874	35
1	4786	1823.721479059687	36
1	4791	1824.171922339893	37
1	4794	1824.962491804339	38
1	4796	1825.494290545926	39
1	4797	1825.985676252149	39
1	4802	1827.238040814437	39
1	4810	1830.400417755837	40
1	4812	1831.545560249507	41
1	4813	1831.97545596728	41
1	4815	1832.053312899554	41
1	4816	1832.797185379012	41
1	4826	1834.25785691533	41
1	4831	1839.559361442471	42
1	4839	1842.20228108903	42
1	4843	1844.234687176823	41
1	4844	1844.924489540137	40
1	4845	1844.952918916009	39
1	4847	1845.01464653265	39
1	4848	1845.611844859538	39
1	4859	1846.796297139584	39
1	4869	1852.669370254313	39
1	4870	1852.910518118273	38
1	4871	1854.032548952118	37
1	4873	1854.710824443049	37
1	4875	1855.651228551382	38
1	4877	1856.094284361478	39
1	4878	1858.611130410429	39
1	4882	1859.953063571773	39
1	4885	1861.904092516694	40
1	4889	1862.794943649902	40
1	4890	1862.84458669533	39
1	4891	1863.908321804029	38
1	4896	1865.122949263976	38
1	4898	1865.999319204243	39
1	4906	1868.806677428131	40
1	4907	1869.236792399848	40
1	4912	1870.731602261455	40
1	4913	1870.997659190944	40
1	4918	1871.931908152566	40
1	4922	1872.487835044693	41
1	4925	1873.852451388003	42
1	4926	1874.034204430007	42
1	4931	1874.807531210197	42
1	4933	1874.841552040168	43
1	4940	1876.755477934705	44
1	4942	1878.695443468858	44
1	4944	1879.099436388291	44
1	4945	1880.294715869598	44
1	4955	1885.067045840463	43
1	4960	1885.895214517331	43
1	4961	1886.222124043985	43
1	4963	1886.770710997963	43
1	4965	1886.776179954113	44
1	4972	1889.032900375787	45
1	4977	1890.277417642029	46
1	4980	1890.653804027801	47
1	4981	1890.854604274478	47
1	4983	1891.525746169617	47
1	4985	1891.702533619969	48
1	4989	1893.971775977746	48
1	4999	1897.960759909992	47
1	5003	1898.888941935722	47
1	5005	1898.898511244373	48
1	5007	1899.253867291059	48
1	5008	1901.328131007681	47
1	5010	1903.08331727017	47
1	5014	1903.323987394293	47
1	5018	1904.863873206872	46
1	5019	1906.029457381456	45
1	5029	1909.758847342588	44
1	5030	1909.850298444647	43
1	5038	1912.113921505573	43
1	5043	1913.397293088248	44
1	5044	1914.867900410617	44
1	5046	1915.606359347648	44
1	5048	1917.479231987888	45
1	5049	1919.351405787972	45
1	5057	1921.262261123839	45
1	5058	1921.548101834672	45
1	5060	1922.563474850074	45
1	5074	1926.787109501152	46
1	5078	1927.55290704438	47
1	5081	1928.084127019147	48
1	5083	1928.129151696753	49
1	5084	1928.402577023356	49
1	5086	1928.569998341093	49
1	5088	1930.326970670275	50
1	5090	1930.912535864844	51
1	5092	1931.86566333686	52
1	5093	1932.888795228756	52
1	5095	1933.019205241208	52
1	5096	1935.861465552154	52
1	5097	1936.26983333131	51
1	5101	1938.602726705702	50
1	5102	1939.708810240236	49
1	5103	1939.887793337318	48
1	5109	1943.169011853892	48
1	5122	1945.664694747804	49
1	5124	1946.104217683181	50
1	5131	1946.914150178524	50
1	5135	1947.162606427756	50
1	5137	1948.104076379369	50
1	5138	1948.511543791981	49
1	5139	1949.527948568455	48
1	5140	1949.670424033304	47
1	5142	1950.103760610748	47
1	5143	1950.744569395396	47
1	5148	1953.539449270759	47
1	5152	1954.912379756149	48
1	5155	1956.181606263226	49
1	5157	1956.381507562037	50
1	5158	1957.77019275662	50
1	5160	1958.502674128438	50
1	5162	1959.248974631613	51
1	5170	1964.404676487599	52
1	5171	1964.567348318053	52
1	5172	1964.908297884093	51
1	5174	1965.622733422578	51
1	5178	1967.251772911834	52
1	5180	1967.79097860174	52
1	5182	1970.074718385465	52
1	5183	1971.736349894484	52
1	5184	1973.607763523906	51
1	5185	1974.224931693787	50
1	5186	1974.429939963595	49
1	5190	1977.133241117254	48
1	5192	1978.816662124445	48
1	5200	1982.114863294901	49
1	5205	1984.331541084197	50
1	5210	1985.624167062006	51
1	5212	1986.48829188178	52
1	5214	1987.227458716986	53
1	5218	1987.883864083165	54
1	5220	1987.924203215853	55
1	5226	1990.093008484237	56
1	5228	1990.095768870765	57
1	5230	1991.263113001546	58
1	5232	1993.685382357531	59
1	5236	1994.620521789935	60
1	5240	1994.915453266214	61
1	5244	1997.81286554222	62
1	5246	1999.17088201141	63
2	0	0	0
2	10	5.688681821968	1
2	17	8.232585646828	2
2	26	10.304914056908	3
2	29	10.876987312465	4
2	45	19.865322415745	5
2	48	20.317403571002	6
2	54	21.804153210895	7
2	68	24.190761436407	8
2	75	26.312367306306	9
2	90	31.610358097444	10
2	102	40.68055696468	11
2	108	41.736638818877	12
2	112	44.025634220238	13
2	125	52.716929711567	14
2	129	55.604818947643	15
2	142	61.809361106448	16
2	163	73.731388012531	17
2	169	75.837954077149	18
2	180	78.618006436206	19
2	183	79.112105118664	20
2	186	80.321858446617	21
2	204	84.662513120096	22
2	218	91.27328157954	23
2	221	92.407367417556	24
2	227	94.02489158462	25
2	233	94.763864496234	26
2	240	98.890486426062	27
2	257	107.138723131773	28
2	263	110.577106775715	29
2	271	113.755220687207	30
2	277	117.160050759181	31
2	312	131.553799503033	32
2	325	135.644789231212	33
2	328	136.764381624466	34
2	338	138.226181304182	35
2	350	143.435588563561	36
2	356	145.821418360272	37
2	364	148.363721741829	38
2	373	150.494314416825	39
2	381	152.160700226003	40
2	384	152.685628470008	41
2	411	157.811990932519	42
2	417	159.812816837731	43
2	424	161.424313022226	44
2	432	162.831177551396	45
2	439	164.898851147764	46
2	444	167.33722067679	47
2	457	172.229288784629	48
2	462	174.558286656879	49
2	466	175.922282209735	50
2	473	179.320105652321	51
2	477	182.277389750214	52
2	491	188.580520402127	53
2	497	189.852377625884	54
2	502	190.929543477849	55
2	514	192.908693560054	56
2	519	195.50637192679	57
2	522	196.276113183396	58
2	532	198.305278283748	59
2	540	199.276359513919	60
2	545	200.311544454696	61
2	572	207.694182718311	62
2	575	207.739757704418	63
2	583	212.169025422839	64
2	588	212.829123147273	65
2	596	215.749331633388	66
2	604	217.112161613881	67
2	612	220.696633926469	68
2	617	223.65997566688	69
2	627	229.336131269971	70
2	637	232.964877063158	71
2	641	235.199745637996	72
2	644	235.874745110814	73
2	647	236.047582346301	74
2	663	242.178953052872	75
2	666	243.078626399157	76
2	672	244.762197477886	77
2	684	250.699382094031	78
2	692	252.334992082346	79
2	699	254.519906078789	80
2	705	255.049688972687	81
2	712	257.67926637718	82
2	717	260.725559407888	83
2	722	263.09420256094	84
2	743	270.386280550355	85
2	753	275.118988478935	86
2	776	284.208341435914	87
2	783	285.170497069439	88
2	796	290.03784479566	89
2	803	292.734635919828	90
2	813	294.491210485983	91
2	818	295.635324917091	92
2	825	297.13711781684	93
2	834	299.849648761635	94
2	843	303.097194016891	95
2	853	305.040735831876	96
2	865	313.449556883061	97
2	876	317.193960909566	98
2	880	318.614579528928	99
2	886	320.565865536776	100
2	891	321.803468402573	101
2	898	324.781162703594	102
2	906	326.373160138248	103
2	912	327.378926771281	104
2	920	331.327285050023	105
2	923	332.834836915119	106
2	946	342.12056141394	107
2	957	347.0807374621	108
2	963	350.245966112533	109
2	971	354.042467766321	110
2	983	358.689005968846	111
2	987	359.866416487995	112
2	992	362.722565813113	113
2	997	363.727063159811	114
2	1004	366.873131719355	115
2	1007	367.768083595414	116
2	1032	376.635123506906	117
2	1038	378.817036507183	118
2	1047	382.88195174171	119
2	1054	384.638702170658	120
2	1066	390.270781056056	121
2	1082	396.613314917146	122
2	1094	404.06476954894	123
2	1115	414.878202417628	124
2	1118	415.113697035739	125
2	1121	415.557488257484	126
2	1125	416.040014649722	127
2	1128	417.011060084779	128
2	1131	418.002731880558	129
2	1134	418.090607174031	130
2	1141	420.696146565294	131
2	1147	424.640534716659	132
2	1156	428.177017314491	133
2	1179	438.659341146285	134
2	1192	445.727867290807	135
2	1195	446.495083867232	136
2	1224	458.337451277305	137
2	1227	459.061610713411	138
[...]
10	2132	823.322279822401	1.444035000228
10	2135	824.134181633265	0.325734437966
10	2143	830.311232877617	0.143130276314
10	2154	833.885046316637	0.44566202305
10	2166	836.880187692976	0.466305983546
10	2186	848.757592521676	0.46911142925
10	2192	852.765328590251	0.843873170402
10	2208	863.250485221043	0.228272964952
10	2209	863.817848533339	0.63163313027
10	2214	865.032688321183	0.94272097081
10	2240	873.210569115515	0.370014861622
10	2241	873.316358557891	0.168245252819
10	2244	877.853025986775	0.516612172108
10	2250	880.268648016765	1.140197139763
10	2259	883.247241157931	0.064197837739
10	2262	885.316850571876	0.044330969371
10	2265	885.803657830479	0.29733189023
10	2268	886.448140340169	0.110091828112
10	2271	886.741369611604	0.103058843743
10	2277	892.23516099387	0.104973349772
10	2280	893.749108190058	0.086027088798
10	2283	893.786629123931	0.011414957937
10	2289	896.083803664376	0.28034935927
10	2292	897.243879900507	0.921392072155
10	2295	900.143864862844	0.186487478151
10	2298	901.229118148497	0.324781243757
10	2301	902.566911417378	0.320384313959
10	2304	902.740076670682	0.007393559961
10	2313	903.801562859374	0.615234977972
10	2314	904.324778698116	0.902986430371
10	2315	904.737817536136	1.237852297339
10	2326	914.690963547425	0.17276887702
10	2330	917.429853208604	0.231350394384
10	2336	918.223792108285	0.061665657419
10	2339	920.580277676689	0.254428961301
10	2343	924.175116229551	1.131479651255
10	2352	928.134737460336	1.731051012773
10	2355	929.807447549638	0.400014793839
10	2364	931.637212383815	0.404966204488
10	2371	936.721371139084	1.069196473348
10	2375	938.658463207561	0.014151471632
10	2390	945.190890181539	0.758709284665
10	2401	948.671774460816	0.140503857526
10	2408	951.246886681098	1.025716563399
10	2417	954.923711685893	0.443695188324
10	2427	959.703774209511	0.677269051586
10	2430	960.586463076588	0.173438012411
10	2446	971.332411410678	1.225016848532
10	2447	971.426027124836	0.987151834464
10	2452	972.065806399383	0.042999297659
10	2455	972.362218398401	0.058560724088
10	2467	977.200394148132	1.073938067223
10	2468	977.232650702766	0.996341836387
10	2471	977.768262146901	1.08751416696
10	2474	978.320650019973	0.341744008878
10	2479	979.726539144204	0.127263946909
10	2488	986.177310645627	0.084783227157
10	2504	989.303900002319	1.976766856714
10	2507	989.777270670005	1.729126321498
10	2508	990.283906384823	1.940679867899
10	2513	991.458988929996	0.316171379764
10	2519	994.016988001933	0.587748506533
10	2522	995.818602599114	0.036410987513
10	2528	997.125398435633	0.355872605517
10	2529	997.570889327419	0.509859005812
10	2534	999.56489803219	0.001503993517
10	2555	1005.779955819931	0.398851612935
10	2556	1006.106366501113	0.591370276135
10	2566	1010.040324302326	0.070335114268
10	2576	1012.850076097963	0.2312762646
10	2579	1014.1513062841	1.420624171495
10	2580	1014.185822954683	0.121037040567
10	2590	1018.022092037179	0.100843641876
10	2604	1026.884809324007	0.293772178804
10	2607	1026.897257971969	0.005665143819
10	2619	1030.048356802898	0.635863105521
10	2620	1030.428837920959	0.735160890319
10	2621	1030.816527172577	1.024976195806
10	2626	1031.399639302211	0.067221187947
10	2630	1032.583227742359	0.000734671494
10	2647	1035.711914555359	0.206746201774
10	2655	1041.885018682292	0.194724974366
10	2659	1044.049653877445	0.068567952276
10	2674	1049.236826285204	0.617850510642
10	2677	1050.561024350316	0.554091801959
10	2682	1051.771597580847	0.157650939723
10	2688	1052.631210607504	0.570737434304
10	2704	1058.502141264044	0.724867961607
10	2709	1059.31725852763	0.626405989167
10	2718	1060.37203103151	0.690876532243
10	2719	1060.809865384961	0.562303388989
10	2726	1062.868946919098	0.573988698041
10	2733	1067.647672635045	0.243076878403
10	2742	1070.649964223576	0.19080834719
10	2752	1074.906983367452	0.156083879873
10	2758	1077.027678479781	0.172077418639
10	2766	1081.3861307395	0.030246288113
10	2774	1082.780761194931	0.253710805265
10	2775	1082.792254876808	0.2172170818
10	2784	1086.661378962949	0.129962224775
10	2792	1089.386150516687	0.409705921902
10	2793	1089.389788051365	0.062268658428
10	2804	1094.540230040913	0.031451120048
10	2812	1097.336482737834	2.49314691775
10	2813	1097.342925245519	0.967104924561
10	2822	1098.804301963241	0.010128035346
10	2827	1099.457598199509	0.098227460416
10	2828	1099.931243231398	0.565731303578
10	2831	1101.04787817766	0.938171546307
10	2838	1104.344983672327	0.05704400792
10	2841	1106.24292222319	0.166799948798
10	2845	1108.947701733976	0.205445774087
10	2856	1111.601624593647	0.14742752091
10	2865	1114.577329204815	0.960317578543
10	2873	1118.568068932574	0.850735316926
10	2874	1119.20791770304	0.836065657127
10	2885	1122.527126582778	0.548919685889
10	2899	1131.591586912791	0.763588175246
10	2911	1137.806051742935	0.41520326459
10	2912	1137.960792537611	0.550339979352
10	2921	1139.042530194586	0.699541049715
10	2924	1139.190863207495	0.82664804918
10	2925	1139.869367184156	1.501982993439
10	2930	1142.052772452719	0.212407831585
10	2935	1144.769572919669	0.083981142566
10	2945	1146.574768034493	0.09683709258
10	2949	1148.128254204808	0.008247139399
10	2952	1148.217836277778	0.04586855943
10	2957	1149.406594176492	0.349636678893
10	2969	1153.418040098747	0.642643469759
10	2976	1155.84349471678	0.198204266938
10	2982	1161.46459780804	0.04930822386
10	2987	1163.371784978781	0.364319827378
10	2997	1167.071056687923	0.406817827416
10	3007	1172.361472310189	0.383580586965
10	3010	1173.482496656722	0.667167534176
10	3017	1174.590680387427	0.195505439878
10	3029	1179.280417053597	0.500426288947
10	3032	1180.372036563777	0.472416939332
10	3041	1183.02819805714	0.476657971959
10	3042	1184.247365197731	1.533257403448
10	3045	1185.267943917844	0.059782167842
10	3061	1191.729231149834	0.149708230581
10	3065	1193.213354881041	0.083104269882
10	3068	1194.099404487491	0.167354497802
10	3073	1196.254578857822	1.18681716269
10	3084	1198.216459474307	0.410880941494
10	3087	1198.636345500807	0.718258295543
10	3088	1199.041122265684	0.86159666477
10	3089	1200.254063500213	1.624789016903
10	3093	1202.189225366713	0.120663005337
10	3111	1208.55510518347	0.062865039142
10	3114	1212.007975004305	0.375802518326
10	3122	1215.371092189179	0.024022078823
10	3127	1217.21740702285	0.332105593214
10	3134	1218.414567481463	0.01533195254
10	3137	1218.526852040703	0.093972797543
10	3144	1219.915110005516	0.23174464141
10	3149	1221.905773607253	0.07931512388
10	3162	1223.91444020284	0.945448895032
10	3167	1225.570362679485	1.572582271868
10	3168	1225.600618391842	1.265495304519
10	3173	1227.073653404763	0.50853254004
10	3180	1229.436940456265	0.171618108709
10	3187	1233.084003692181	0.194637493875
10	3194	1234.165495243644	0.116557501869
10	3201	1237.03968606431	0.468051801734
10	3210	1239.164782706221	0.233309273323
10	3215	1239.566075648535	0.53465102368
10	3226	1243.770940732274	4.249943991395
10	3227	1244.46378515192	3.330535011088
10	3230	1246.354672474537	5.216176113222
10	3231	1246.473389777695	2.897178323215
10	3236	1246.674967059207	0.550391174715
10	3243	1247.882718822826	0.054231404715
10	3246	1248.449583914267	0.300339251011
10	3253	1251.069070515782	0.432960675557
10	3258	1254.047996457236	0.413697002477
10	3264	1256.042843108365	0.29770077224
10	3267	1256.285752735044	0.210180786577
10	3271	1257.327433117704	0.032546238223
10	3283	1263.779763130616	0.607748188445
10	3284	1263.938756067489	0.732030422639
10	3293	1267.961959769789	1.258368949568
10	3296	1269.356825903179	0.752998710252
10	3306	1272.543326090817	0.10802255866
10	3317	1276.809231539578	0.534735155023
10	3334	1284.820991881926	0.435382759973
10	3335	1284.943283498098	0.43203032831
10	3338	1285.495684539198	0.233300705967
10	3341	1286.327945141447	0.712563385884
10	3347	1291.098933634248	0.318103010512
10	3351	1291.646603365714	0.049669197747
10	3365	1296.25658825344	0.324682440498
10	3372	1298.321004719624	0.6656003847
10	3373	1298.690476722749	0.371249630054
10	3383	1303.873569332563	0.137874957888
10	3384	1304.093524762111	0.315356392331
10	3388	1306.12226520466	0.077759531224
10	3395	1307.635270671256	0.328284536035
10	3400	1308.835284808188	0.900302421865
10	3406	1312.039763560021	0.007903304716
10	3417	1316.536134758898	1.536597497205
10	3420	1316.994963419477	0.34213040015
10	3423	1318.89873200067	0.094070945404
10	3436	1324.04768210668	1.359013539974
10	3445	1327.589251304417	0.488435744814
10	3448	1328.076371285383	0.107433311556
10	3451	1330.411864359346	0.188878815045
10	3465	1336.174435306549	0.010378504872
10	3471	1338.287280228699	0.454508201801
10	3483	1343.646636037436	0.60682139535
10	3484	1343.830893857159	0.453793543219
10	3489	1345.524168654645	1.60028785247
10	3494	1346.865955968334	0.182228884295
10	3499	1347.893408427016	0.433034189159
10	3511	1357.596824450586	0.432727013279
10	3517	1358.777321111078	0.212840240697
10	3521	1361.570666393463	1.698669225162
10	3530	1363.843946005374	0.90403344973
10	3535	1366.712723673271	0.038281923289
10	3542	1369.249348871431	0.314332154373
10	3547	1371.231184918175	1.811423464778
10	3553	1372.946822134921	0.546882312511
10	3560	1374.257672754474	0.215266892048
10	3570	1379.317637594661	0.239224229395
10	3580	1383.64984778772	0.324845701895
10	3581	1383.811260975021	0.265920981508
10	3584	1385.02973084797	0.445847117163
10	3592	1388.966662184252	0.217961084271
10	3598	1391.153715094679	0.424920053742
10	3604	1392.5021989567	0.102787966703
10	3605	1393.019916954661	0.577370993562
10	3611	1396.946208522567	0.681762785097
10	3614	1398.055899610848	0.259657095973
10	3620	1399.465827211704	0.219067831385
10	3621	1400.046424977989	0.609067725763
10	3629	1402.587087905612	0.077467163281
10	3637	1406.397792606265	0.140543446986
10	3642	1408.319087762526	0.031177709791
10	3654	1412.024289783585	1.538583045175
10	3661	1417.841171804641	0.032657929445
10	3668	1418.970400217063	0.069413247233
10	3671	1419.563810104707	0.13403741149
10	3689	1426.902367756219	0.917975287868
10	3690	1426.963558036678	0.122524502145
10	3691	1426.995129562584	0.115158193866
10	3698	1429.38591229073	0.050491614715
10	3721	1439.311496069935	0.89657039804
10	3724	1440.955294322116	0.16842661551
10	3730	1442.500333300864	0.015322994608
10	3747	1448.369099943274	1.102384688816
10	3751	1451.475035875752	0.499091316895
10	3758	1457.11977100975	0.512179799521
10	3763	1458.964032480453	1.703669804835
10	3764	1459.07572629635	0.49213392365
10	3768	1460.994555232279	0.118629245019
10	3794	1470.50828515042	0.426047538843
10	3799	1471.484474194229	0.500722291756
10	3808	1472.91374077685	0.900717530744
10	3813	1473.623174107551	0.609395751093
10	3825	1477.19207344287	1.425134113863
10	3826	1477.26102677456	1.194732572468
10	3829	1478.306167673739	1.338695509306
10	3832	1478.783412745788	0.818383288096
10	3843	1481.344919378118	0.377168255646
10	3849	1485.178412820002	0.886940251472
10	3854	1486.505864277877	0.359077271385
10	3858	1489.353321586946	0.376962750417
10	3865	1491.538620948032	2.174592439884
10	3868	1492.056693978683	1.181446179624
10	3874	1494.792303505937	0.864301839683
10	3886	1501.532386844952	2.445458672238
10	3889	1502.024729413188	0.258471652496
10	3902	1508.508407623423	1.276605943809
10	3909	1509.848576749985	0.247118953836
10	3912	1510.313170928863	0.626310215202
10	3915	1510.919665854073	1.015243596398
10	3919	1512.012828970836	0.203522152582
10	3924	1513.430595185643	0.44594317599
10	3927	1513.509995303638	0.004717636215
10	3932	1514.372380580103	0.115109710678
10	3933	1514.824362318526	0.540153921743
10	3938	1518.001909833796	0.894016987558
10	3951	1522.867483937792	0.437866009452
10	3957	1525.508951375899	0.205104683197
10	3961	1528.776053018767	0.862861853384
10	3968	1531.372051739848	0.125946545208
10	3971	1533.250247055211	0.671002090989
10	3976	1535.991560315396	0.491159281402
10	3988	1538.367603738903	0.344653752744
10	3995	1540.311191829645	0.946076331869
10	4002	1545.587480539915	0.214289347803
10	4010	1546.90069091089	0.120656373022
10	4015	1547.124008834271	0.280137491122
10	4018	1548.538150508039	1.634349229976
10	4021	1549.086915121717	0.017384470785
10	4027	1550.463057050042	0.066036469784
10	4054	1562.792399570972	3.94112765177
10	4055	1562.872058558482	3.779838071556
10	4056	1562.927666262349	2.427345048588
10	4057	1563.396474334165	1.923215443005
10	4062	1563.876668119959	0.045896513314
10	4065	1564.176189658834	0.066855056183
10	4077	1567.525367805781	0.335523654635
10	4078	1567.52680404363	0.161393302745
10	4091	1573.086986612842	0.787144228588
10	4092	1573.505083423433	1.119784293128
10	4098	1578.360640586531	0.670787607775
10	4107	1580.188059446904	0.495042587836
10	4117	1583.42922505175	0.911320323242
10	4118	1583.578673653423	0.687059375705
10	4123	1585.512687377153	1.230782033069
10	4126	1586.677870416859	0.265107883196
10	4129	1587.495061158191	0.422403937073
10	4136	1589.467322007859	1.319444446812
10	4137	1589.822621550093	1.352382042761
10	4138	1590.037083708013	1.265396608836
10	4143	1590.463499516107	0.340386394533
10	4146	1590.820072047189	0.119682388957
10	4149	1591.113420343548	0.003982959116
10	4155	1592.603916646083	0.076102617661
10	4161	1594.527312899629	0.596202547809
10	4166	1597.203646784011	0.161270961941
10	4175	1599.419988386795	0.185879922204
10	4178	1600.929465686059	0.845321295389
10	4186	1602.646440355188	1.223242846883
10	4189	1602.776715963017	1.196181065452
10	4190	1602.800862641164	0.20547730067
10	4191	1602.840494922761	0.155893992848
10	4194	1602.975923408694	0.008909197537
10	4202	1606.412031262883	0.752488804232
10	4206	1607.183890681197	0.244733584632
10	4222	1610.57157964649	0.033397929905
10	4233	1614.283972030704	0.032343681264
10	4240	1615.814045816211	1.216731368736
10	4246	1617.516850457747	1.342143527562
10	4250	1618.290468829368	0.341111357651
10	4253	1621.417150271452	0.446940631845
10	4278	1630.195890637398	0.209297886083
10	4284	1633.362401740482	0.415323370225
10	4287	1633.962454949597	0.315924286621
10	4290	1636.658673222166	0.204846272727
10	4311	1645.10205867337	0.05054478994
10	4317	1648.63774320384	0.931408411167
10	4324	1651.211189128757	1.090189509157
10	4330	1653.171269904059	0.064586269254
10	4333	1655.62619400048	0.398540325176
10	4345	1658.196229868371	0.270119449204
10	4348	1658.78540478658	0.263190141845
10	4359	1663.076976177946	3.26797204115
10	4364	1664.344777548281	2.359010602087
10	4367	1664.735516618337	1.105626656409
10	4376	1666.43212106351	0.175496619379
10	4383	1668.780605328705	1.055431011122
10	4384	1668.854501664945	0.102102571288
10	4400	1674.596124842727	0.102678375953
10	4410	1680.342998240011	1.236378445122
10	4416	1683.996352234417	1.07123801606
10	4419	1684.183361047947	0.07331697966
10	4422	1684.602911118393	0.227185255843
10	4428	1686.065762734612	0.813313036662
10	4431	1688.521207765104	2.035026567232
10	4443	1692.885692065243	0.063060395931
10	4448	1694.504110496064	0.817474532312
10	4458	1699.633149448751	0.256633621274
10	4463	1701.270956954018	0.677832806949
10	4475	1703.357033992633	0.342897880126
10	4483	1705.979371804124	0.026188516453
10	4499	1714.901369415412	0.183224339669
10	4502	1714.960902190876	0.159102612286
10	4509	1716.747571446795	0.134264622821
10	4519	1722.261487621272	0.198230861759
10	4522	1723.951111942223	0.165878654266
10	4527	1725.708890110726	0.581194817295
10	4540	1728.058593794466	0.781826047887
10	4545	1730.754239400084	1.322000721259
10	4546	1730.770245037295	0.976429897954
10	4561	1738.482620229014	0.325261730507
10	4562	1738.70539212932	0.527883663201
10	4565	1738.936206853274	0.139490558624
10	4576	1740.965524312299	0.489598116981
10	4581	1741.347711987799	0.796768462815
10	4584	1742.438153433474	0.699630697062
10	4587	1743.411702363414	0.418738067346
10	4599	1745.885231167242	0.025799237926
10	4604	1746.363572746612	0.419436018445
10	4605	1746.637786156907	0.284307774976
10	4616	1748.709215008231	0.056623414546
10	4620	1750.737802389732	0.101497168252
10	4626	1754.531789219382	0.098180837002
10	4635	1755.717502554411	1.156029963654
10	4654	1763.321583249137	0.098792687651
10	4658	1765.776851426865	0.719158513606
10	4673	1772.621644530917	1.000004299722
10	4674	1772.936749246997	0.985236008
10	4682	1776.296164595661	0.388670188103
10	4689	1779.001911580416	0.990935659474
10	4690	1779.144073943835	0.513854599478
10	4695	1781.0692659497	1.729440463454
10	4696	1781.655060301784	0.617805440335
10	4699	1782.218234742102	0.332792239208
10	4704	1784.334206143378	0.422167521923
10	4707	1784.797397920249	0.174547456948
10	4711	1785.820407264917	0.165942263876
10	4725	1793.802246297322	0.103283424383
10	4730	1794.019536070027	0.022743938247
10	4739	1797.760249930932	0.933696900783
10	4754	1805.222160356466	0.398964625265
10	4757	1806.090412944993	0.536930056752
10	4763	1811.781089424838	0.450886622917
10	4782	1823.453911023265	0.302019094112
10	4787	1823.760408551233	0.11502062907
10	4792	1824.239661309839	0.170606436451
10	4800	1826.430375104491	0.263967830905
10	4805	1827.863170147222	0.214595976291
10	4808	1828.723846826947	0.701912519354
10	4819	1833.007093462406	0.16671556712
10	4824	1834.112310474852	0.266644134888
10	4827	1834.568846888128	0.674393241388
10	4832	1840.277128398615	0.734939132376
10	4835	1841.316937837646	0.084021473543
10	4838	1842.157531755059	0.37867387565
10	4842	1843.376789881562	0.59987442237
10	4857	1846.584882414996	0.903081526886
10	4862	1846.850027985958	0.866531752618
10	4863	1847.22118900126	0.930482107247
10	4864	1847.797825028336	1.501402996915
10	4865	1848.046447853452	1.215367412304
10	4868	1850.632373160946	0.819412378401
10	4883	1861.452161885916	1.839824228611
10	4888	1862.471869571389	0.151918249006
10	4894	1864.915615892656	0.424135246496
10	4901	1867.144474537636	0.24942295928
10	4904	1867.964426174808	0.07842354794
10	4910	1870.716767191603	0.822213330665
10	4916	1871.777365558309	0.054950304552
10	4923	1873.539449600484	1.11876679663
10	4929	1874.613784097165	0.373689506466
10	4938	1875.866715186455	0.175159949471
10	4941	1877.291007612286	1.594627481948
10	4950	1882.337391213768	1.769113126541
10	4951	1882.515096227972	0.850809998752
10	4954	1882.795774131159	0.254338262746
10	4958	1885.631073802223	0.492047827229
10	4970	1887.958427987887	0.791632667796
10	4975	1889.559707624294	1.917470067431
10	4978	1890.449111489961	1.204271300706
10	4988	1892.679725319047	0.312819446478
10	4992	1894.474346128358	0.191680607569
10	4997	1896.096811977819	0.344662219725
10	4998	1896.356282251561	0.346870040575
10	5006	1899.040221277155	0.245563533294
10	5013	1903.242427507166	0.043174956522
10	5017	1904.721008025764	0.969557500574
10	5022	1907.858789164473	1.707583973318
10	5027	1908.936842993734	0.910225643299
10	5028	1909.35165942817	0.846350347131
10	5035	1911.764702710938	0.877259114593
10	5036	1912.101527220571	1.109527468691
10	5041	1913.36355070594	0.494607715033
10	5052	1920.461678949748	0.275522884154
10	5055	1921.122364958128	0.22247208088
10	5065	1923.938404033745	0.30109250565
10	5066	1924.200554696287	0.265370011138
10	5071	1925.358810576015	0.97140608656
10	5072	1925.589436041688	0.309074101956
10	5079	1927.766349581043	0.529381331212
10	5100	1938.396601377587	0.861630251784
10	5110	1943.372556085344	1.776476030838
10	5111	1943.614971774503	0.721900037837
10	5116	1944.542749163534	0.859562836109
10	5117	1944.777115731671	0.709061118141
10	5120	1945.03454474746	0.034739238711
10	5129	1946.707470514434	0.522787492336
10	5130	1946.715744227394	0.22771987204
10	5136	1947.301860346957	0.330269424419
10	5146	1952.452792939049	1.14170330067
10	5153	1955.892614723305	1.258902836256
10	5165	1960.122123412163	0.113481222234
10	5168	1964.096303560233	0.173434015664
10	5179	1967.421077850372	0.522601788086
10	5189	1977.003929555533	0.567068645441
10	5195	1979.400767388857	0.025038127176
10	5198	1981.458893590747	0.555051721366
10	5203	1983.552315793562	0.31738542329
10	5208	1984.993845355256	0.112580295071
10	5223	1988.280742657849	0.537729598837
10	5224	1989.561500303469	1.533573994191
10	5241	1995.523735134656	0.905621072634
10	5242	1996.710675188867	2.048143230257
11	5247	2000	0.4455
12	5247	2000	0.4075

