version 2
run Monotonicity_test_recover_rate-74-20221219-18:27:27-14837
attr configname Monotonicity_test_recover_rate
attr datetime 20221219-18:27:27
attr experiment Monotonicity_test_recover_rate
attr inifile omnetpp.ini
attr iterationvars $0=0
attr iterationvarsf 0-
attr measurement $0=0
attr network Network
attr processid 14837
attr repetition 74
attr replication #74
attr resultdir results
attr runnumber 74
attr seedset 74
param *.minion.arrival_mean 2
param *.minion.service_mean 1.5
param *.boss.arrival_mean 2.5
param *.boss.service_mean 0.5
param *.player.recover_rate_x 0
param **.minion.arrival_distribution 0
param **.minion.service_distribution 0
param **.boss.arrival_distribution 0
param **.boss.service_distribution 0

vector 0 Network.player minion_jobs_number_stat:vector ETV
attr source signal_minion_jobs_number
vector 1 Network.player minion_jobs_queue_number_stat:vector ETV
attr source signal_minion_jobs_queue_number
vector 2 Network.player minion_recovered_stat:vector ETV
attr source signal_minion_recovered
vector 3 Network.player minion_defeated_stat:vector ETV
attr source signal_minion_defeated
vector 4 Network.player boss_jobs_number_stat:vector ETV
attr source signal_boss_jobs_number
vector 5 Network.player boss_jobs_queue_number_stat:vector ETV
attr source signal_boss_jobs_queue_number
vector 6 Network.player boss_defeated_stat:vector ETV
attr source signal_boss_defeated
vector 7 Network.player minion_waiting_time_stat:vector ETV
attr source signal_minion_waiting_time
vector 8 Network.player boss_waiting_time_stat:vector ETV
attr source signal_boss_waiting_time
vector 9 Network.player boss_response_time_stat:vector ETV
attr source signal_boss_response_time
vector 10 Network.player minion_response_time_stat:vector ETV
attr source signal_minion_response_time
vector 11 Network.player minion_throughput:vector ETV
attr source signal_minion_throughput
vector 12 Network.player boss_throughput:vector ETV
attr source signal_boss_throughput
0	0	0	0
0	2	0.726740697242	1
0	9	4.074479086088	2
0	15	6.64615186887	3
0	17	6.796131899154	4
0	23	11.746999005669	1
0	26	12.299649220259	1
0	28	12.564753349385	2
0	32	13.544022058247	1
0	35	15.096518470789	1
0	38	17.161795944192	1
0	40	17.167685433827	2
0	42	17.30926511246	3
0	47	18.918144376345	4
0	49	20.915426756108	5
0	54	22.669777442648	6
0	57	24.754705788926	6
0	64	27.141525513306	7
0	67	27.716032499881	8
0	76	29.058091196611	9
0	81	30.197154301745	10
0	86	32.391905641316	10
0	95	37.051531282622	10
0	97	38.452333826761	11
0	104	41.052025569501	10
0	106	41.092882590234	11
0	108	41.164612952218	12
0	110	43.11485691196	13
0	114	43.75895958776	14
0	118	44.581740773555	14
0	125	46.901023824329	13
0	141	52.174575695679	5
0	145	52.31104689392	6
0	153	56.067856971235	6
0	169	61.676454581597	2
0	175	62.942649774361	2
0	187	67.26756549757	2
0	192	68.338816540275	3
0	197	71.742753161066	4
0	200	73.134225649954	4
0	202	73.465638574266	5
0	206	76.070905133941	4
0	208	76.288637300813	5
0	212	76.59404357872	6
0	217	79.836352619124	5
0	232	83.834174970034	5
0	240	86.982303350387	3
0	247	91.606738757203	2
0	250	92.735685066916	2
0	260	97.24736646027	1
0	266	100.252845907889	1
0	273	101.05958327206	2
0	278	105.097816824418	1
0	280	105.271153960577	2
0	282	105.573910485754	3
0	284	105.583022720579	4
0	290	106.563435134304	4
0	295	108.686716430787	2
0	297	109.92427025969	3
0	301	111.179088047298	4
0	308	115.307893881476	4
0	313	120.398658691728	2
0	316	123.41048668799	2
0	326	129.988299874636	1
0	332	132.598068375974	1
0	334	133.938702812455	2
0	343	137.097512131718	2
0	346	138.06869585946	2
0	349	139.112358862153	2
0	361	141.882384208986	2
0	364	142.505010409821	2
0	369	144.11686044874	2
0	372	145.457826967977	3
0	378	147.332051406907	4
0	382	147.785844040726	5
0	386	149.411984519867	4
0	389	150.089353284753	4
0	399	159.248787900254	3
0	404	160.724275418116	1
0	409	163.277384666805	1
0	416	166.445738861776	1
0	421	168.473414243174	2
0	423	169.215977259451	3
0	429	173.691893635357	3
0	433	174.108860858635	4
0	445	177.522967119776	2
0	464	188.563934155137	1
0	466	188.804326070245	2
0	472	190.567676388385	3
0	478	191.811239595089	4
0	489	193.937178052323	4
0	502	197.987437139727	2
0	504	198.597261431823	3
0	512	203.065836922423	4
0	514	203.180305312379	5
0	516	205.102066834863	6
0	534	211.260398096922	2
0	537	212.771700350604	3
0	539	212.930228411883	4
0	542	213.938547632438	4
0	544	213.999409538106	5
0	547	215.973019833827	5
0	549	216.128451654006	6
0	563	225.133343863497	1
0	566	227.189993140031	1
0	571	228.614811982539	1
0	574	229.90722468476	2
0	578	231.06167769288	3
0	583	232.979311808915	4
0	596	237.663779329214	3
0	599	238.875677336508	4
0	603	239.18560116263	5
0	612	241.494987530263	3
0	617	242.457956185127	3
0	621	244.991353685751	3
0	624	245.634107714572	3
0	627	247.167070670913	3
0	629	247.317263369132	4
0	635	250.094929922432	4
0	637	250.318349789638	5
0	642	251.637936305808	6
0	658	255.666789332038	5
0	660	256.114187662602	6
0	662	256.21956307237	7
0	668	257.840894427105	7
0	671	258.510583648147	7
0	673	259.234022130237	8
0	676	260.574220423342	8
0	688	264.590276319362	6
0	698	266.952613778043	6
0	703	268.234551011357	5
0	706	269.504921591394	5
0	708	269.69351843079	6
0	721	271.940715389114	7
0	733	277.921534345001	8
0	738	280.291365890755	9
0	748	284.292243498636	8
0	751	284.51564511341	8
0	753	285.200984860647	9
0	755	285.610104068331	10
0	760	287.173030467765	11
0	764	288.840614767259	10
0	766	289.121508074252	11
0	768	289.624429285489	12
0	771	291.045737475257	12
0	773	291.082739301925	13
0	792	295.190728005041	13
0	796	296.530809377914	14
0	801	297.778908273957	15
0	805	300.803042196296	14
0	807	301.02269270087	15
0	814	305.763223167505	14
0	830	310.587615495268	13
0	834	312.691713912615	14
0	838	314.163251133553	15
0	840	314.431547380813	16
0	842	314.633523931838	17
0	846	315.945265511569	18
0	853	318.238150503964	19
0	857	319.337111893078	20
0	861	320.924259552646	21
0	863	321.320357209477	22
0	866	321.797818510855	22
0	869	322.664543194332	22
0	871	322.695807126414	23
0	876	325.293685977841	24
0	879	325.966304635888	24
0	891	334.06636192222	24
0	893	334.424984301492	25
0	898	338.087209014826	23
0	903	340.66271043697	21
0	914	342.410525415635	21
0	917	342.595268586753	22
0	945	356.540891509444	12
0	952	360.605973796904	11
0	960	362.831547728689	10
0	969	366.747351416901	9
0	971	366.938972429802	10
0	976	368.143403063446	8
0	978	368.486505670335	9
0	980	370.179506499333	10
0	984	371.563974013612	9
0	988	373.113419213795	8
0	1002	378.004344590945	6
0	1004	379.163079239299	7
0	1008	380.311168977484	6
0	1010	381.116141612584	7
0	1012	381.682574458897	8
0	1025	388.237897429305	4
0	1029	391.22762505038	3
0	1034	395.130625787605	4
0	1036	396.696818736253	5
0	1039	398.187129361115	5
0	1044	399.669050734172	6
0	1063	405.503316482185	5
0	1067	405.664628431744	6
0	1070	406.15515028266	7
0	1072	407.167834666029	8
0	1076	409.571712378459	7
0	1078	409.757406213156	8
0	1080	409.83502306268	9
0	1082	409.994921290562	10
0	1085	410.016777601179	10
0	1089	412.205608010759	9
0	1102	418.776888204267	7
0	1112	421.560143002968	6
0	1120	422.771262146398	5
0	1122	422.847095304311	6
0	1136	426.647915457552	4
0	1143	428.018032911587	3
0	1149	430.638095309602	3
0	1154	431.365651619136	4
0	1156	431.939256127581	5
0	1163	435.904159478523	4
0	1169	436.791425163817	5
0	1188	443.216204057248	3
0	1200	445.723412288995	3
0	1203	446.734428586336	3
0	1205	447.444987221647	4
0	1207	447.671418596734	5
0	1212	448.044719862097	6
0	1219	449.927485492886	7
0	1222	450.706422608986	8
0	1225	451.204742424312	8
0	1227	451.626107085049	9
0	1229	452.566500445306	10
0	1236	455.075051580826	9
0	1239	456.758996842421	9
0	1252	459.814017007407	8
0	1254	461.313368505882	9
0	1256	463.177830453431	10
0	1262	465.985375959761	10
0	1274	470.673242585052	10
0	1287	477.499386185849	9
0	1289	478.41226058301	10
0	1298	481.469512992155	10
0	1300	482.401938650624	11
0	1302	483.279257652802	12
0	1314	486.15437525755	13
0	1317	486.849671996824	14
0	1325	489.420305950962	13
0	1327	492.989906953569	14
0	1332	495.101940862462	14
0	1345	500.084524724821	14
0	1356	505.939363593109	9
0	1360	507.071294261288	8
0	1373	513.528125644877	1
0	1376	514.584435385521	1
0	1378	515.603976479178	2
0	1381	516.465828645779	2
0	1383	516.815917500476	3
0	1385	517.399981847343	4
0	1387	518.726821459664	5
0	1391	519.082127804032	6
0	1394	521.688043564528	7
0	1400	526.264850614914	4
0	1402	526.972554701239	5
0	1409	531.682295810117	4
0	1421	536.645243000572	1
0	1429	539.081774916972	2
0	1433	540.836267643491	3
0	1438	541.516986310154	4
0	1443	542.264188330075	5
0	1446	543.673437191956	6
0	1452	545.622128621027	7
0	1455	546.261503512873	8
0	1459	549.277001968493	8
0	1467	551.848149566031	6
0	1472	553.214422339612	7
0	1474	554.310696320869	8
0	1480	557.798945753314	8
0	1483	558.447103332839	8
0	1485	559.366853478846	9
0	1489	561.453569181267	8
0	1514	573.115390851222	1
0	1522	576.300016524818	1
0	1528	578.215698201995	2
0	1541	583.789347656218	1
0	1544	585.257345571242	1
0	1550	589.094303668655	1
0	1553	591.305312056662	1
0	1557	592.678895508788	2
0	1565	596.518048976541	1
0	1567	596.853925940496	2
0	1572	597.188432478699	2
0	1585	604.405478947634	1
0	1591	604.931036028354	2
0	1596	606.454652246704	3
0	1610	611.665021740193	1
0	1619	614.941327856284	1
0	1621	615.048025183217	2
0	1623	615.258555900266	3
0	1628	617.969073440244	4
0	1641	621.118009041994	1
0	1644	622.275146528058	2
0	1647	622.670012496354	3
0	1650	624.79370274645	3
0	1652	625.691219447153	4
0	1656	625.881013949446	5
0	1663	628.210127519449	5
0	1673	631.288757250414	4
0	1675	631.466337333222	5
0	1678	632.161223762757	5
0	1689	634.084887669387	2
0	1694	634.796461862728	3
0	1697	635.876113729763	4
0	1699	635.931331664093	5
0	1710	639.942994855557	3
0	1712	640.094493421628	4
0	1715	644.46176734601	4
0	1719	645.12617503365	5
0	1728	648.318883606168	3
0	1730	648.360073855896	4
0	1743	655.814893558911	3
0	1750	660.199322574739	2
0	1752	660.403908209471	3
0	1761	663.87164571115	2
0	1768	665.544867885523	2
0	1771	668.314764606999	2
0	1773	668.369794879433	3
0	1775	670.62482547781	4
0	1782	672.816503122095	3
0	1789	675.724472835112	1
0	1792	675.810744830692	2
0	1795	676.941346218227	2
0	1797	677.655665022148	3
0	1805	679.609219170468	4
0	1808	680.220240788002	4
0	1815	680.967725094776	5
0	1817	681.020433061008	6
0	1825	683.275290644088	4
0	1829	684.700179142219	4
0	1831	684.746893782399	5
0	1840	687.396204084666	2
0	1847	688.426764610148	1
0	1852	689.964389989927	2
0	1854	690.05618074282	3
0	1856	690.332735606316	4
0	1860	690.839182519958	5
0	1862	690.861476759034	6
0	1865	692.02271955988	7
0	1869	693.933757026397	8
0	1872	696.69512698542	9
0	1897	705.755513875901	3
0	1901	706.336428437687	4
0	1903	708.949164612278	5
0	1906	709.65736944718	5
0	1908	709.762574656235	6
0	1920	713.796626913179	3
0	1922	714.111847473799	4
0	1925	714.539820511398	4
0	1930	717.454834805337	2
0	1937	719.555968991678	1
0	1949	724.926420157576	1
0	1954	726.941084694025	1
0	1956	727.391034403033	2
0	1966	730.61428674396	2
0	1973	734.397135400253	1
0	1985	739.228313613049	1
0	1993	742.801156464137	1
0	1996	742.923658851466	2
0	1999	743.393234571467	2
0	2001	744.160656342197	3
0	2003	744.526820211162	4
0	2007	744.854383214997	5
0	2010	746.244722331159	6
0	2018	749.284981596077	4
0	2024	751.798204573445	4
0	2026	752.382788868011	5
0	2031	753.096786098697	6
0	2039	755.222351954984	4
0	2041	755.698831970471	5
0	2043	755.698969923194	6
0	2045	756.910913378429	7
0	2048	757.406090271721	7
0	2053	760.767480722899	7
0	2056	762.001040545483	8
0	2061	763.370652042965	9
0	2063	763.764936210993	10
0	2074	767.907349379495	8
0	2077	769.163494459779	8
0	2079	769.273110381623	9
0	2083	770.294816180256	10
0	2087	770.687828483947	11
0	2096	772.395323219032	10
0	2098	772.395994765048	11
0	2101	772.805317410387	11
0	2103	772.978907956155	12
0	2107	773.762454371519	13
0	2110	775.990432275596	14
0	2119	779.682762969595	13
0	2122	780.62104015382	14
0	2128	783.422583174447	14
0	2130	783.442264951047	15
0	2137	784.71458177835	16
0	2141	786.358795164532	16
0	2146	786.553353286019	17
0	2148	786.706711998866	18
0	2157	789.600493857648	18
0	2163	791.405476084593	15
0	2166	791.550396222929	15
0	2171	793.554063057536	13
0	2176	793.708156107449	14
0	2183	796.975192809618	10
0	2186	797.296647561632	10
0	2192	798.371360090082	10
0	2195	798.743404202304	10
0	2198	799.488350816995	10
0	2209	801.77497083781	10
0	2215	804.818668046614	11
0	2220	806.027772700005	12
0	2222	806.71815830936	13
0	2225	810.292174192755	13
0	2230	810.716296554868	14
0	2236	814.160350855223	14
0	2244	815.958175528325	14
0	2248	817.030478630464	15
0	2252	817.733954536836	16
0	2254	817.88041908715	17
0	2257	820.052212264767	17
0	2260	820.54252915854	17
0	2262	820.842325880767	18
0	2274	830.646343238448	15
0	2277	831.43525843824	15
0	2279	831.971674909256	16
0	2287	837.727893598557	14
0	2292	841.446022633101	15
0	2300	842.74246930327	15
0	2307	845.384603349414	15
0	2317	846.574754876813	16
0	2324	851.39501338935	13
0	2342	854.599346793924	13
0	2346	858.194405392048	12
0	2348	858.327474242708	13
0	2352	860.518412460875	12
0	2355	860.888547435187	12
0	2357	861.701210761046	13
0	2366	867.485939516495	13
0	2368	868.795302557184	14
0	2371	870.51609904201	14
0	2374	872.578981963062	14
0	2377	873.0969764615	14
0	2379	873.749345290468	15
0	2395	879.860513112842	14
0	2397	880.205661364951	15
0	2399	881.163911175042	16
0	2401	882.486763060204	17
0	2407	883.799875765993	17
0	2410	884.37025438002	17
0	2412	884.79079863064	18
0	2414	885.66177999474	19
0	2416	886.143991810872	20
0	2418	886.308833116219	21
0	2423	888.047096463554	22
0	2427	888.27068682831	23
0	2430	888.562437614894	24
0	2440	894.536415759605	20
0	2443	895.650704059201	20
0	2453	898.345623412868	19
0	2457	900.221214590841	20
0	2460	900.75962237496	21
0	2462	901.695878544985	22
0	2480	907.45214436317	19
0	2484	909.277671426097	18
0	2489	909.398102829401	19
0	2502	914.479859300153	17
0	2506	915.392484430577	17
0	2510	915.481831626909	18
0	2513	916.600508390068	19
0	2518	917.085547937716	20
0	2522	918.112094842832	21
0	2525	918.419750340901	22
0	2534	922.462922026049	21
0	2537	925.247534576014	22
0	2539	926.482822528522	23
0	2546	929.875116063419	22
0	2548	931.931129726862	23
0	2550	932.253640783593	24
0	2554	935.178038912941	23
0	2556	935.559387463514	24
0	2558	936.305415217464	25
0	2564	937.226629257602	24
0	2566	937.249786544242	25
0	2568	937.910545070654	26
0	2574	939.141459106583	27
0	2578	939.804600899864	28
0	2581	939.884922071412	29
0	2596	945.365735774602	26
0	2601	946.193687818693	26
0	2604	946.642031897078	27
0	2607	947.409386173769	27
0	2609	947.514094970938	28
0	2611	948.881041673453	29
0	2613	950.034657049131	30
0	2624	957.216503948497	31
0	2628	958.516466527238	32
0	2632	961.036386038965	32
0	2637	962.607001134384	33
0	2640	965.088416524521	33
0	2646	966.164466858374	33
0	2652	969.162762413025	32
0	2657	970.570002323998	33
0	2663	973.825725749164	34
0	2667	974.975284152444	33
0	2676	976.830532292625	34
0	2680	977.432445818605	35
0	2683	977.920447420945	35
0	2687	979.936468184532	36
0	2690	980.644779536679	37
0	2698	990.409047592481	35
0	2701	991.590301576083	35
0	2705	992.334863794351	34
0	2707	992.971143771383	35
0	2729	998.375474277253	31
0	2732	999.165147581087	31
0	2736	1000.630780760382	30
0	2740	1002.14450956923	29
0	2742	1002.704486818994	30
0	2744	1002.80879696179	31
0	2748	1003.262344613646	32
0	2760	1004.984780688419	33
0	2763	1006.193777302782	33
0	2765	1006.232918230588	34
0	2783	1012.292457781235	31
0	2786	1014.736484793073	31
0	2788	1015.301427381712	32
0	2791	1015.477729340876	32
0	2796	1017.842662795946	30
0	2798	1018.334041461693	31
0	2800	1018.364427516415	32
0	2806	1018.655034199908	32
0	2814	1023.733643657448	30
0	2817	1024.678009814573	30
0	2819	1024.77799820928	31
0	2823	1028.210864029406	30
0	2826	1029.487689455326	30
0	2830	1031.697952239641	31
0	2834	1033.097407698496	31
0	2836	1034.949793288747	32
0	2843	1035.811148487203	33
0	2846	1037.776572897173	34
0	2850	1037.960541463193	35
0	2863	1043.687535989156	35
0	2866	1045.479564590708	35
0	2873	1047.320092780757	31
0	2878	1049.702395168509	32
0	2882	1052.481348927138	31
0	2885	1052.790505705317	31
0	2889	1054.091814578906	32
0	2901	1059.175294079389	30
0	2905	1063.607417687249	29
0	2909	1064.039085708159	30
0	2916	1065.492912384902	30
0	2932	1069.301961154451	29
0	2934	1069.446320869763	30
0	2940	1072.062891802459	30
0	2942	1072.314060794609	31
0	2946	1074.25150113752	30
0	2948	1074.44687157519	31
0	2953	1076.516662080034	32
0	2955	1076.916024031814	33
0	2958	1077.769675575091	33
0	2963	1079.44609807043	34
0	2968	1080.633534117479	35
0	2971	1080.929212256222	35
0	2973	1081.197269029311	36
0	2975	1081.614981702548	37
0	2981	1083.086382135795	37
0	2988	1085.029793546965	38
0	2992	1086.449434569522	38
0	2997	1086.743628861257	39
0	3009	1088.315570613759	39
0	3012	1090.030224640311	40
0	3014	1090.046783392914	41
0	3024	1094.061777777011	41
0	3029	1094.350710875949	42
0	3032	1094.936361035761	43
0	3036	1095.240896070767	44
0	3043	1096.426674998554	43
0	3049	1097.576689919855	44
0	3068	1100.053452787458	42
0	3071	1101.060497139707	43
0	3073	1101.56808601171	44
0	3075	1102.541243899323	45
0	3081	1104.72515272349	45
0	3089	1106.647231088795	42
0	3100	1109.221079056957	43
0	3102	1109.229410087759	44
0	3107	1111.216250212462	45
0	3117	1114.897080977751	45
0	3119	1114.931614035463	46
0	3122	1116.013162959526	46
0	3129	1120.633416703915	42
0	3131	1121.013239115696	43
0	3142	1122.976766202165	41
0	3150	1124.363063849925	42
0	3160	1127.446509119485	38
0	3169	1131.290526674885	38
0	3181	1135.816343478248	34
0	3184	1136.145051712105	35
0	3190	1137.356907625174	35
0	3206	1142.15240486199	33
0	3209	1142.60256937996	34
0	3219	1147.999813580461	33
0	3221	1149.531988431854	34
0	3223	1151.926426964059	35
0	3239	1164.038647013191	25
0	3241	1164.181258477777	26
0	3246	1166.499922825017	26
0	3262	1169.717412631226	23
0	3264	1171.000635905183	24
0	3267	1171.913786555353	24
0	3269	1172.565313107398	25
0	3271	1172.716844322064	26
0	3274	1174.829562103385	26
0	3279	1177.057736713135	26
0	3282	1177.705964904192	27
0	3286	1178.951739801669	26
0	3288	1179.887309296183	27
0	3293	1180.949235685174	28
0	3301	1182.853996129462	29
0	3316	1188.433155979415	29
0	3320	1189.409651722036	30
0	3322	1189.51851322081	31
0	3329	1192.336517551013	32
0	3334	1194.208061489181	32
0	3337	1194.840324261901	32
0	3343	1196.167500520723	32
0	3352	1203.696518870376	32
0	3356	1206.214433764296	33
0	3358	1206.309489742082	34
0	3360	1206.365289652026	35
0	3376	1213.085304347559	35
0	3378	1214.256107984752	36
0	3389	1217.73942010611	34
0	3394	1219.659214144582	35
0	3398	1221.967063885418	36
0	3400	1222.341212381355	37
0	3402	1222.608314384184	38
0	3408	1225.421262087603	38
0	3416	1227.759201630726	39
0	3424	1230.416689523782	40
0	3427	1231.48009136273	41
0	3429	1231.926486927682	42
0	3431	1232.23494928604	43
0	3441	1236.950543487741	42
0	3446	1240.502587679152	40
0	3450	1241.908467860838	39
0	3465	1248.753780338205	33
0	3470	1251.241831690451	34
0	3479	1255.696212231249	34
0	3481	1255.758058056257	35
0	3484	1256.296843718863	35
0	3491	1260.118160518081	34
0	3496	1260.509694804004	35
0	3500	1263.33347107599	36
0	3504	1265.527030127324	36
0	3507	1266.094218111205	36
0	3509	1266.207647505456	37
0	3511	1266.975318042024	38
0	3533	1273.714503159665	37
0	3538	1274.565309236288	38
0	3540	1278.12962145442	39
0	3545	1280.885739746386	37
0	3547	1281.457846613194	38
0	3558	1286.709593086604	36
0	3564	1290.400991732796	36
0	3571	1290.806662158104	37
0	3579	1293.670817510727	36
0	3583	1296.230380899577	35
0	3595	1299.03076317475	34
0	3604	1299.87015130974	32
0	3608	1301.530082017688	31
0	3614	1303.700992392413	28
0	3616	1304.225828800515	29
0	3638	1309.333850226787	28
0	3640	1310.712406790149	29
0	3645	1312.255184332901	30
0	3647	1312.280058158214	31
0	3652	1314.723055262173	29
0	3661	1318.309248833745	23
0	3665	1319.954441242409	24
0	3670	1321.248982745754	23
0	3672	1321.662552459649	24
0	3680	1322.756658922146	24
0	3684	1322.801750216286	24
0	3686	1322.966559585957	25
0	3691	1324.441216773919	25
0	3694	1324.581171334946	26
0	3697	1326.681890099377	26
0	3699	1327.124950931665	27
0	3707	1330.544288434429	22
0	3721	1335.999718093547	20
0	3733	1347.354656525675	17
0	3735	1347.482969942315	18
0	3747	1351.289846202822	15
0	3753	1352.921542930718	14
0	3761	1355.920075718953	13
0	3763	1357.162195606385	14
0	3768	1358.11136137932	15
0	3770	1358.260253713078	16
0	3772	1358.581999421961	17
0	3786	1363.588634376222	15
0	3796	1367.365433667897	14
0	3800	1369.255897822059	13
0	3802	1369.278849037814	14
0	3807	1371.076310145398	14
0	3810	1371.946487296896	15
0	3818	1374.10652100118	16
0	3829	1378.441838473475	14
0	3832	1381.009998394292	14
0	3834	1381.60924414804	15
0	3836	1381.863212719753	16
0	3838	1382.110673803503	17
0	3840	1382.312418393411	18
0	3846	1384.206317852845	18
0	3856	1386.874142838685	14
0	3859	1387.275514215782	14
0	3862	1389.614336793243	14
0	3875	1393.237011168085	13
0	3879	1394.94784980191	12
0	3885	1397.875013818758	9
0	3887	1398.05737377381	10
0	3895	1404.258968497961	11
0	3900	1407.871346372688	12
0	3906	1410.015687700788	9
0	3908	1410.362139261464	10
0	3910	1411.080110168392	11
0	3912	1412.07179160015	12
0	3919	1414.370462828942	11
0	3927	1416.273550159428	12
0	3931	1418.13519012517	13
0	3938	1421.801246062527	10
0	3945	1425.495816432092	6
0	3954	1428.576416117026	5
0	3956	1428.698641910104	6
0	3962	1430.129398397159	7
0	3968	1432.135171229088	7
0	3975	1435.769362221769	5
0	3978	1436.53942167562	6
0	3987	1439.848288386739	6
0	3994	1441.98815355998	2
0	3996	1442.756052006466	3
0	4008	1445.717223180931	2
0	4011	1446.759582856042	3
0	4014	1449.38439511444	3
0	4017	1454.035734743449	3
0	4021	1456.880090508168	4
0	4030	1459.531878625153	5
0	4032	1460.048400150179	6
0	4043	1461.407053677756	6
0	4048	1462.621377025048	7
0	4057	1465.325501084934	8
0	4069	1468.602770623495	8
0	4072	1469.23375219056	8
0	4074	1470.448783537698	9
0	4076	1470.596745263004	10
0	4078	1470.654985573422	11
0	4080	1471.472479876172	12
0	4083	1473.568431172792	12
0	4085	1473.575503275902	13
0	4092	1476.872594385311	12
0	4094	1478.846884595919	13
0	4096	1479.547143725657	14
0	4099	1479.660181612141	14
0	4101	1479.714355540902	15
0	4106	1480.68302646657	13
0	4116	1484.906487516842	12
0	4125	1488.870466379821	11
0	4129	1489.960692337919	11
0	4135	1491.418087300635	12
0	4141	1493.185440531622	13
0	4147	1493.724680243538	14
0	4149	1494.035955652654	15
0	4158	1495.320251495948	16
0	4165	1496.586251368477	17
0	4170	1498.125081166008	18
0	4176	1498.801631775763	18
0	4182	1500.594954118498	17
0	4194	1503.930158930231	18
0	4201	1507.962956274638	17
0	4209	1512.808160225619	17
0	4211	1512.850588505332	18
0	4217	1514.149218986231	19
0	4225	1518.16851049863	20
0	4235	1522.173799431344	20
0	4238	1522.692563362801	21
0	4249	1529.224493041582	20
0	4254	1530.055101097567	20
0	4258	1532.153491410012	20
0	4263	1532.754978814134	21
0	4274	1535.889305368022	19
0	4283	1539.507244842844	16
0	4292	1541.729365840309	15
0	4296	1544.553005202485	15
0	4298	1544.610220885004	16
0	4309	1549.371506573827	13
0	4319	1551.554348637473	13
0	4330	1553.780036331867	14
0	4333	1554.795411323412	14
0	4338	1557.926990501047	15
0	4340	1558.690717159354	16
0	4343	1560.342285676402	16
0	4345	1560.49847538446	17
0	4350	1562.984530490071	18
0	4357	1563.874865067931	19
0	4369	1568.675254359277	14
0	4384	1577.575999416335	8
0	4390	1579.485581989771	8
0	4403	1581.88050695604	8
0	4408	1583.60274878213	8
0	4412	1587.985853400275	7
0	4418	1589.453261138751	7
0	4420	1589.706637276062	8
0	4422	1589.942528438959	9
0	4433	1593.97280858571	4
0	4435	1594.235899043073	5
0	4439	1595.013705842691	4
0	4441	1595.09749324112	5
0	4449	1596.104389538282	6
0	4451	1597.152569701857	7
0	4453	1600.546327152804	8
0	4470	1606.22816054195	6
0	4474	1607.030046953401	5
0	4479	1609.741057753595	6
0	4488	1612.24160096569	6
0	4490	1614.10223290672	7
0	4492	1614.281025188635	8
0	4500	1616.836807509375	9
0	4508	1620.116776719311	4
0	4511	1620.809568389859	4
0	4514	1622.089572452817	4
0	4528	1625.434440371044	2
0	4533	1626.583764233685	2
0	4536	1627.008212687955	3
0	4540	1629.007695293502	2
0	4552	1634.017871862047	2
0	4559	1636.199833021017	1
0	4570	1637.844057577682	1
0	4572	1637.845144464236	2
0	4578	1639.539428169101	3
0	4591	1646.299972548195	2
0	4593	1646.685857037371	3
0	4596	1647.694458287486	3
0	4607	1650.935614004205	1
0	4609	1653.528783605029	2
0	4616	1656.93450656188	1
0	4620	1657.360568056503	2
0	4627	1661.161811007523	2
0	4629	1661.722936713675	3
0	4634	1663.86810833432	4
0	4640	1664.497561149267	5
0	4642	1664.614621484039	6
0	4645	1665.130705201036	7
0	4651	1666.809985499023	8
0	4653	1667.178279583142	9
0	4662	1668.766792191321	9
0	4664	1668.939137842938	10
0	4675	1671.834723907275	8
0	4677	1672.260301631079	9
0	4683	1674.708262948132	9
0	4685	1675.127470214531	10
0	4687	1675.673887139888	11
0	4692	1678.818400427264	12
0	4697	1681.715472543723	10
0	4703	1683.601611543152	10
0	4705	1684.262464823187	11
0	4721	1689.900267044557	7
0	4725	1692.129015886138	6
0	4729	1693.027706941182	7
0	4731	1693.945493440855	8
0	4734	1696.583545772721	9
0	4737	1698.819658128555	9
0	4744	1702.698824900235	7
0	4747	1702.91751542701	8
0	4749	1703.12514644246	9
0	4758	1710.511024677026	6
0	4764	1711.783815640881	6
0	4766	1712.672516842828	7
0	4768	1713.691895135854	8
0	4773	1715.407177919499	9
0	4775	1715.880192807775	10
0	4784	1718.44419402616	10
0	4800	1725.104623352684	9
0	4803	1725.541577228337	9
0	4806	1726.112410541123	9
0	4808	1726.438358149554	10
0	4815	1727.914037832975	11
0	4826	1730.376243699722	10
0	4832	1730.828280746109	9
0	4849	1736.46127629275	8
0	4854	1737.224560651025	9
0	4856	1737.943259429638	10
0	4868	1741.532896962045	9
0	4873	1743.981883710885	8
0	4877	1744.984031050567	9
0	4888	1751.32847710018	8
0	4892	1752.686255079871	7
0	4894	1753.559175571077	8
0	4897	1754.009742236722	8
0	4899	1754.511873849669	9
0	4901	1754.678106230136	10
0	4903	1754.76229188737	11
0	4905	1755.565497668379	12
0	4908	1757.84632953508	12
0	4916	1760.652406551409	12
0	4919	1761.073562825796	13
0	4921	1761.351465725914	14
0	4926	1763.168965406738	14
0	4940	1768.492040598605	13
0	4950	1774.293117793556	12
0	4955	1776.920470159625	13
0	4963	1780.793963328312	11
0	4968	1782.94971366669	12
0	4974	1785.439557556265	9
0	4977	1786.882255079946	9
0	4982	1788.180983891679	10
0	4984	1789.517083126523	11
0	5000	1793.924107920931	9
0	5002	1793.983374583615	10
0	5005	1795.713570166287	11
0	5007	1796.435521768317	12
0	5012	1798.256100645304	10
0	5014	1798.803530737377	11
0	5017	1800.805716832637	11
0	5023	1803.614656749302	8
0	5025	1804.273489132108	9
0	5033	1807.418448669183	10
0	5037	1808.543746149012	9
0	5040	1808.581232404171	9
0	5042	1809.229035905693	10
0	5044	1809.31893597513	11
0	5047	1809.879647441628	11
0	5049	1809.901721789431	12
0	5051	1809.961190251433	13
0	5058	1811.276572638337	14
0	5061	1812.062917058304	15
0	5067	1813.329895434594	16
0	5093	1824.558077047657	10
0	5103	1828.044159248389	9
0	5111	1831.114699662924	7
0	5114	1831.88439557932	7
0	5117	1833.332157900237	7
0	5120	1833.921410394773	7
0	5122	1834.381303303781	8
0	5126	1837.302898018567	7
0	5132	1839.230892752248	4
0	5136	1840.195847548467	5
0	5141	1840.923262457933	6
0	5144	1842.924476492651	7
0	5149	1844.529926913228	5
0	5152	1846.379628671353	5
0	5155	1848.978816724013	5
0	5157	1849.258253939038	6
0	5162	1853.31160371857	7
0	5170	1858.573675342256	8
0	5173	1860.477012625963	8
0	5175	1860.578362899179	9
0	5177	1861.062308611911	10
0	5179	1862.308878986734	11
0	5188	1867.801983523248	8
0	5192	1868.292877165751	9
0	5195	1869.484842777956	10
0	5198	1870.195744152382	10
0	5201	1872.912970469373	10
0	5205	1874.900273926013	9
0	5211	1876.886887043879	9
0	5213	1877.104380975347	10
0	5224	1880.773129629056	10
0	5231	1882.396032511483	10
0	5233	1882.546754417982	11
0	5244	1884.477476598658	10
0	5248	1885.087744510941	11
0	5251	1886.048268589875	12
0	5255	1886.751193939276	13
0	5258	1889.48706154442	13
0	5263	1890.088387991303	14
0	5265	1891.16637646761	15
0	5281	1894.108658258494	16
0	5290	1897.818508874741	17
0	5294	1899.383728878449	18
0	5301	1902.15141036098	18
0	5304	1902.609772731205	18
0	5306	1903.390238694798	19
0	5314	1906.32107612706	17
0	5319	1907.817112355001	18
0	5325	1913.089109641187	18
0	5328	1913.462994104212	18
0	5330	1913.794354426157	19
0	5348	1924.587531905281	16
0	5364	1930.254659201053	14
0	5366	1930.437432950058	15
0	5372	1931.961768536601	15
0	5387	1940.56267577016	12
0	5389	1941.092848890654	13
0	5394	1942.381898086083	12
0	5396	1943.418462060695	13
0	5399	1943.713677017846	13
0	5402	1944.646105593316	13
0	5404	1944.942788428015	14
0	5406	1945.066620600141	15
0	5410	1946.617650217309	14
0	5412	1946.890122710097	15
0	5417	1949.393185590077	16
0	5420	1950.377283288758	16
0	5423	1951.020309627476	16
0	5428	1953.007058106634	17
0	5431	1953.462507114874	17
0	5436	1957.189106903774	15
0	5440	1959.775935176216	14
0	5443	1960.217716015132	14
0	5445	1961.033749407588	15
0	5447	1961.26879188362	16
0	5457	1967.623649507829	14
0	5469	1970.450996502634	12
0	5483	1976.517314067281	8
0	5488	1977.945675813323	9
0	5494	1981.736285126255	8
0	5496	1982.269505873049	9
0	5499	1982.691744108046	9
0	5519	1989.32385999289	7
0	5521	1990.452144208317	8
0	5527	1991.560104809946	8
0	5535	1994.872924619909	3
1	0	0	0
1	2	0.726740697242	0
1	9	4.074479086088	1
1	15	6.64615186887	2
1	17	6.796131899154	3
1	18	6.963526322377	3
1	19	7.394558675312	2
1	20	7.475834119525	1
1	21	9.758321990572	0
1	23	11.746999005669	0
1	24	11.85920415374	0
1	26	12.299649220259	0
1	28	12.564753349385	1
1	29	13.350563100936	1
1	30	13.426811851461	0
1	32	13.544022058247	0
1	33	13.635153400597	0
1	35	15.096518470789	0
1	36	15.939961299984	0
1	38	17.161795944192	0
1	40	17.167685433827	1
1	42	17.30926511246	2
1	47	18.918144376345	3
1	49	20.915426756108	4
1	54	22.669777442648	5
1	55	23.283591332421	5
1	57	24.754705788926	5
1	64	27.141525513306	6
1	67	27.716032499881	7
1	76	29.058091196611	8
1	81	30.197154301745	9
1	84	31.764011379432	9
1	86	32.391905641316	9
1	93	36.951309206078	9
1	95	37.051531282622	9
1	97	38.452333826761	10
1	101	38.988486875086	10
1	102	39.77399931689	9
1	104	41.052025569501	9
1	106	41.092882590234	10
1	108	41.164612952218	11
1	110	43.11485691196	12
1	114	43.75895958776	13
1	116	44.281152297914	13
1	118	44.581740773555	13
1	119	44.67211526081	13
1	123	46.549725991106	12
1	125	46.901023824329	12
1	129	48.228268720191	12
1	130	48.35550853213	11
1	131	49.505883461715	10
1	132	49.955485071508	9
1	133	50.303321439474	8
1	134	51.201252039286	7
1	135	51.789267566547	6
1	136	51.906298976935	5
1	137	51.956128669105	4
1	141	52.174575695679	4
1	145	52.31104689392	5
1	151	55.746296277952	5
1	153	56.067856971235	5
1	154	56.980416151387	5
1	155	58.076504389354	4
1	159	59.358080553341	3
1	163	59.919383942785	2
1	164	60.197910889704	1
1	169	61.676454581597	1
1	170	62.05149871692	1
1	175	62.942649774361	1
1	182	63.44669743767	1
1	187	67.26756549757	1
1	192	68.338816540275	2
1	197	71.742753161066	3
1	198	72.625459209707	3
1	200	73.134225649954	3
1	202	73.465638574266	4
1	203	74.566093710248	4
1	204	75.461409189371	3
1	206	76.070905133941	3
1	208	76.288637300813	4
1	212	76.59404357872	5
1	214	78.822502551393	5
1	215	79.803266515068	4
1	217	79.836352619124	4
1	227	81.233797317674	4
1	232	83.834174970034	4
1	236	85.664670407487	4
1	237	85.72027065802	3
1	238	86.57499073143	2
1	240	86.982303350387	2
1	244	88.044085063808	2
1	245	89.371406696692	1
1	247	91.606738757203	1
1	248	91.941753801399	1
1	250	92.735685066916	1
1	251	92.772495442222	1
1	252	93.188463668739	0
1	260	97.24736646027	0
1	264	99.029622729788	0
1	266	100.252845907889	0
1	273	101.05958327206	1
1	275	102.486312511525	1
1	276	103.644543759967	0
1	278	105.097816824418	0
1	280	105.271153960577	1
1	282	105.573910485754	2
1	284	105.583022720579	3
1	288	106.452315421426	3
1	290	106.563435134304	3
1	291	107.521819690575	3
1	292	107.651664727391	2
1	293	108.248415751222	1
1	295	108.686716430787	1
1	297	109.92427025969	2
1	301	111.179088047298	3
1	306	113.780480016803	3
1	308	115.307893881476	3
1	309	117.064131488655	3
1	310	117.357572600587	2
1	311	120.111719439365	1
1	313	120.398658691728	1
1	314	123.221863642922	1
1	316	123.41048668799	1
1	317	124.221830579253	1
1	321	127.265597519213	0
1	326	129.988299874636	0
1	327	130.326557114976	0
1	332	132.598068375974	0
1	334	133.938702812455	1
1	341	136.873051822409	1
1	343	137.097512131718	1
1	344	137.951066217267	1
1	346	138.06869585946	1
1	347	139.08380158879	1
1	349	139.112358862153	1
1	359	141.639475892823	1
1	361	141.882384208986	1
1	362	142.268018935123	1
1	364	142.505010409821	1
1	365	143.023013151257	1
1	369	144.11686044874	1
1	372	145.457826967977	2
1	378	147.332051406907	3
1	382	147.785844040726	4
1	383	148.449495222218	4
1	384	148.606288914299	3
1	386	149.411984519867	3
1	387	149.859280008204	3
1	389	150.089353284753	3
1	390	151.768982811852	3
1	394	156.120173842744	2
1	399	159.248787900254	2
1	400	159.369619835762	2
1	401	159.730655674843	1
1	402	159.913842972847	0
1	404	160.724275418116	0
1	405	161.864982005493	0
1	409	163.277384666805	0
1	411	163.829629106826	0
1	416	166.445738861776	0
1	421	168.473414243174	1
1	423	169.215977259451	2
1	427	173.037970443504	2
1	429	173.691893635357	2
1	433	174.108860858635	3
1	441	176.217058266762	3
1	442	176.325886607798	2
1	443	176.363917226983	1
1	445	177.522967119776	1
1	446	178.47635695226	1
1	447	180.119549830935	0
1	464	188.563934155137	0
1	466	188.804326070245	1
1	472	190.567676388385	2
1	478	191.811239595089	3
1	483	193.487553188739	3
1	489	193.937178052323	3
1	492	194.628197790092	3
1	493	196.350898228454	2
1	500	197.843282855857	1
1	502	197.987437139727	1
1	504	198.597261431823	2
1	512	203.065836922423	3
1	514	203.180305312379	4
1	516	205.102066834863	5
1	517	205.88649783138	5
1	518	206.016354513639	4
1	525	207.808847073195	3
1	526	208.498257528405	2
1	530	209.768610738766	1
1	534	211.260398096922	1
1	537	212.771700350604	2
1	539	212.930228411883	3
1	540	213.428606937567	3
1	542	213.938547632438	3
1	544	213.999409538106	4
1	545	215.926436831422	4
1	547	215.973019833827	4
1	549	216.128451654006	5
1	550	216.353110063527	5
1	551	216.354821408292	4
1	558	221.052545872088	3
1	559	222.12901136573	2
1	560	223.538904172969	1
1	561	223.752818812624	0
1	563	225.133343863497	0
1	564	226.302373128797	0
1	566	227.189993140031	0
1	567	227.267929049647	0
1	571	228.614811982539	0
1	574	229.90722468476	1
1	578	231.06167769288	2
1	583	232.979311808915	3
1	585	234.628577096826	3
1	586	234.854643398528	2
1	596	237.663779329214	2
1	599	238.875677336508	3
1	603	239.18560116263	4
1	605	239.463732117894	4
1	609	240.723796793643	3
1	610	240.877716620957	2
1	612	241.494987530263	2
1	613	241.71896013894	2
1	617	242.457956185127	2
1	619	244.079152766477	2
1	621	244.991353685751	2
1	622	245.550701972039	2
1	624	245.634107714572	2
1	625	245.686968248621	2
1	627	247.167070670913	2
1	629	247.317263369132	3
1	630	247.369913330695	3
1	635	250.094929922432	3
1	637	250.318349789638	4
1	642	251.637936305808	5
1	649	252.828631922387	5
1	653	254.198946909814	4
1	658	255.666789332038	4
1	660	256.114187662602	5
1	662	256.21956307237	6
1	663	256.829223065339	6
1	668	257.840894427105	6
1	669	258.375835215999	6
1	671	258.510583648147	6
1	673	259.234022130237	7
1	674	260.388201478685	7
1	676	260.574220423342	7
1	677	261.900410241593	7
1	678	262.061766581788	6
1	682	263.456109347065	5
1	688	264.590276319362	5
1	691	265.695434725173	5
1	698	266.952613778043	5
1	700	267.899279418924	5
1	701	268.201402410657	4
1	703	268.234551011357	4
1	704	268.780120889663	4
1	706	269.504921591394	4
1	708	269.69351843079	5
1	721	271.940715389114	6
1	733	277.921534345001	7
1	738	280.291365890755	8
1	739	280.548034089689	8
1	746	281.835974139595	7
1	748	284.292243498636	7
1	749	284.328836714328	7
1	751	284.51564511341	7
1	753	285.200984860647	8
1	755	285.610104068331	9
1	760	287.173030467765	10
1	761	287.360746629758	10
1	762	288.601747494879	9
1	764	288.840614767259	9
1	766	289.121508074252	10
1	768	289.624429285489	11
1	769	290.428556501915	11
1	771	291.045737475257	11
1	773	291.082739301925	12
1	774	291.885396151488	12
1	792	295.190728005041	12
1	796	296.530809377914	13
1	801	297.778908273957	14
1	802	298.30221140631	14
1	803	300.077821093329	13
1	805	300.803042196296	13
1	807	301.02269270087	14
1	808	302.809068343177	14
1	809	303.84179390526	13
1	814	305.763223167505	13
1	815	306.467538483065	13
1	825	309.570680538147	12
1	830	310.587615495268	12
1	834	312.691713912615	13
1	838	314.163251133553	14
1	840	314.431547380813	15
1	842	314.633523931838	16
1	846	315.945265511569	17
1	853	318.238150503964	18
1	857	319.337111893078	19
1	861	320.924259552646	20
1	863	321.320357209477	21
1	864	321.741108555586	21
1	866	321.797818510855	21
1	867	321.811278644395	21
1	869	322.664543194332	21
1	871	322.695807126414	22
1	876	325.293685977841	23
1	877	325.54167930137	23
1	879	325.966304635888	23
1	886	330.61227773242	23
1	891	334.06636192222	23
1	893	334.424984301492	24
1	894	334.709849552416	24
1	895	335.870394267052	23
1	896	337.928763483334	22
1	898	338.087209014826	22
1	899	338.465038873236	22
1	900	339.235220546495	21
1	901	340.635169967511	20
1	903	340.66271043697	20
1	907	341.772680675798	20
1	914	342.410525415635	20
1	917	342.595268586753	21
1	918	342.788174183466	21
1	919	343.485080285971	20
1	920	343.71906804527	19
1	921	344.111851434723	18
1	922	344.1156513222	17
1	923	344.167850918767	16
1	927	344.895033392523	15
1	931	348.078645749519	14
1	932	348.118728283314	13
1	933	348.884796806758	12
1	943	355.53396728984	11
1	945	356.540891509444	11
1	946	357.940974299012	11
1	947	358.307388129709	10
1	952	360.605973796904	10
1	953	361.040185438386	10
1	954	362.23458110527	9
1	960	362.831547728689	9
1	963	364.615274145185	9
1	964	364.965571022752	8
1	969	366.747351416901	8
1	971	366.938972429802	9
1	972	367.445604286059	9
1	973	367.596020917622	8
1	974	367.979223105423	7
1	976	368.143403063446	7
1	978	368.486505670335	8
1	980	370.179506499333	9
1	981	371.2447886422	9
1	982	371.346549812533	8
1	984	371.563974013612	8
1	985	371.670822966805	8
1	986	371.792886715087	7
1	988	373.113419213795	7
1	989	373.354368953752	7
1	999	377.706168348957	6
1	1000	377.910732494164	5
1	1002	378.004344590945	5
1	1004	379.163079239299	6
1	1005	379.331298375607	6
1	1006	380.220494212762	5
1	1008	380.311168977484	5
1	1010	381.116141612584	6
1	1012	381.682574458897	7
1	1013	382.107494420333	7
1	1014	382.846329065143	6
1	1018	384.782086252141	5
1	1019	384.825078584478	4
1	1023	387.377189458396	3
1	1025	388.237897429305	3
1	1026	388.332070273107	3
1	1027	389.894899449897	2
1	1029	391.22762505038	2
1	1034	395.130625787605	3
1	1036	396.696818736253	4
1	1037	398.168591457983	4
1	1039	398.187129361115	4
1	1044	399.669050734172	5
1	1054	403.242769671975	5
1	1055	404.403182323467	4
1	1063	405.503316482185	4
1	1067	405.664628431744	5
1	1070	406.15515028266	6
1	1072	407.167834666029	7
1	1073	408.10851266369	7
1	1074	408.948714174001	6
1	1076	409.571712378459	6
1	1078	409.757406213156	7
1	1080	409.83502306268	8
1	1082	409.994921290562	9
1	1083	410.013903351709	9
1	1085	410.016777601179	9
1	1086	410.049504615629	9
1	1087	411.289717900746	8
1	1089	412.205608010759	8
1	1090	413.58732123588	8
1	1091	414.27857052602	7
1	1095	415.634431559458	6
1	1102	418.776888204267	6
1	1107	419.761167041679	6
1	1108	419.9505010431	5
1	1112	421.560143002968	5
1	1114	422.058034251584	5
1	1115	422.577110533816	4
1	1120	422.771262146398	4
1	1122	422.847095304311	5
1	1123	423.03067695199	5
1	1124	423.031886989184	4
1	1134	426.270158004676	3
1	1136	426.647915457552	3
1	1137	426.891587014642	3
1	1141	427.630529053813	2
1	1143	428.018032911587	2
1	1147	429.862262309118	2
1	1149	430.638095309602	2
1	1154	431.365651619136	3
1	1156	431.939256127581	4
1	1157	432.315312016533	4
1	1161	434.505538265932	3
1	1163	435.904159478523	3
1	1169	436.791425163817	4
1	1178	439.270536300601	4
1	1179	439.902034831813	3
1	1186	443.102212194422	2
1	1188	443.216204057248	2
1	1189	443.406048690715	2
1	1200	445.723412288995	2
1	1201	446.362546770711	2
1	1203	446.734428586336	2
1	1205	447.444987221647	3
1	1207	447.671418596734	4
1	1212	448.044719862097	5
1	1219	449.927485492886	6
1	1222	450.706422608986	7
1	1223	450.878775019075	7
1	1225	451.204742424312	7
1	1227	451.626107085049	8
1	1229	452.566500445306	9
1	1230	453.336203824307	9
1	1234	453.925210069646	8
1	1236	455.075051580826	8
1	1237	456.692166404558	8
1	1239	456.758996842421	8
1	1243	458.066460256187	8
1	1244	458.430362203449	7
1	1252	459.814017007407	7
1	1254	461.313368505882	8
1	1256	463.177830453431	9
1	1260	465.931523920637	9
1	1262	465.985375959761	9
1	1263	467.138435991654	9
1	1274	470.673242585052	9
1	1275	472.76220441984	9
1	1276	473.290886799263	8
1	1287	477.499386185849	8
1	1289	478.41226058301	9
1	1296	481.407608163716	9
1	1298	481.469512992155	9
1	1300	482.401938650624	10
1	1302	483.279257652802	11
1	1314	486.15437525755	12
1	1317	486.849671996824	13
1	1322	488.623876462091	13
1	1323	488.745565075688	12
1	1325	489.420305950962	12
1	1327	492.989906953569	13
1	1328	494.548369384057	13
1	1332	495.101940862462	13
1	1343	498.188563092793	13
1	1345	500.084524724821	13
1	1346	501.03141756799	13
1	1350	503.858150511358	12
1	1351	504.038245921777	11
1	1352	504.538288854346	10
1	1353	505.358366214946	9
1	1354	505.921697328799	8
1	1356	505.939363593109	8
1	1357	506.605633110704	8
1	1358	506.819494810007	7
1	1360	507.071294261288	7
1	1361	507.272818220754	7
1	1362	507.68781868899	6
1	1363	508.023707220869	5
1	1364	508.351073911832	4
1	1368	509.572383206256	3
1	1369	509.633594411125	2
1	1370	510.830730477078	1
1	1371	512.50491816414	0
1	1373	513.528125644877	0
1	1374	513.717871888899	0
1	1376	514.584435385521	0
1	1378	515.603976479178	1
1	1379	516.323061124934	1
1	1381	516.465828645779	1
1	1383	516.815917500476	2
1	1385	517.399981847343	3
1	1387	518.726821459664	4
1	1391	519.082127804032	5
1	1394	521.688043564528	6
1	1395	522.388888366439	6
1	1396	523.055853704585	5
1	1397	523.218504438986	4
1	1398	525.451520659185	3
1	1400	526.264850614914	3
1	1402	526.972554701239	4
1	1403	527.409436805682	4
1	1407	531.417930697597	3
1	1409	531.682295810117	3
1	1413	532.740679280504	3
1	1414	532.767631333408	2
1	1415	533.054464762819	1
1	1419	536.108321213183	0
1	1421	536.645243000572	0
1	1429	539.081774916972	1
1	1433	540.836267643491	2
1	1438	541.516986310154	3
1	1443	542.264188330075	4
1	1446	543.673437191956	5
1	1452	545.622128621027	6
1	1455	546.261503512873	7
1	1457	546.764276749889	7
1	1459	549.277001968493	7
1	1460	550.236259057719	7
1	1461	550.899011061994	6
1	1465	551.773281108928	5
1	1467	551.848149566031	5
1	1472	553.214422339612	6
1	1474	554.310696320869	7
1	1475	554.576358741177	7
1	1480	557.798945753314	7
1	1481	558.129526451572	7
1	1483	558.447103332839	7
1	1485	559.366853478846	8
1	1486	560.226839189802	8
1	1487	561.023218697824	7
1	1489	561.453569181267	7
1	1490	561.519775140762	7
1	1494	562.71940336247	6
1	1495	564.57786019316	5
1	1499	565.320004004103	4
1	1503	566.450736810743	3
1	1507	569.515271888889	2
1	1511	571.690069155501	1
1	1512	571.77613316282	0
1	1514	573.115390851222	0
1	1515	574.51371545991	0
1	1522	576.300016524818	0
1	1528	578.215698201995	1
1	1529	578.35434906455	1
1	1530	579.120613940447	0
1	1541	583.789347656218	0
1	1542	584.783414311584	0
1	1544	585.257345571242	0
1	1545	585.421230052027	0
1	1550	589.094303668655	0
1	1551	589.254325628959	0
1	1553	591.305312056662	0
1	1557	592.678895508788	1
1	1559	593.228001050478	1
1	1563	595.359733224811	0
1	1565	596.518048976541	0
1	1567	596.853925940496	1
1	1568	596.92365828533	1
1	1572	597.188432478699	1
1	1577	599.049040006779	1
1	1578	599.492566185397	0
1	1585	604.405478947634	0
1	1591	604.931036028354	1
1	1596	606.454652246704	2
1	1606	611.044332743069	2
1	1607	611.415044750303	1
1	1608	611.445629473811	0
1	1610	611.665021740193	0
1	1614	611.823699254739	0
1	1619	614.941327856284	0
1	1621	615.048025183217	1
1	1623	615.258555900266	2
1	1628	617.969073440244	3
1	1632	619.012824761953	3
1	1633	619.488393007827	2
1	1634	619.794169408693	1
1	1635	620.195385019309	0
1	1641	621.118009041994	0
1	1644	622.275146528058	1
1	1647	622.670012496354	2
1	1648	623.284240492546	2
1	1650	624.79370274645	2
1	1652	625.691219447153	3
1	1656	625.881013949446	4
1	1658	627.108396992615	4
1	1663	628.210127519449	4
1	1664	628.887016881383	4
1	1668	630.778962123491	3
1	1673	631.288757250414	3
1	1675	631.466337333222	4
1	1676	631.766170891197	4
1	1678	632.161223762757	4
1	1679	632.474720550103	4
1	1680	632.891225300787	3
1	1681	633.274666220566	2
1	1682	633.311663172627	1
1	1689	634.084887669387	1
1	1694	634.796461862728	2
1	1697	635.876113729763	3
1	1699	635.931331664093	4
1	1700	635.939758068414	4
1	1701	636.293904393891	3
1	1708	639.754410864748	2
1	1710	639.942994855557	2
1	1712	640.094493421628	3
1	1713	644.178568677922	3
1	1715	644.46176734601	3
1	1719	645.12617503365	4
1	1721	646.888833679071	4
1	1722	647.071035650054	3
1	1726	647.763251430572	2
1	1728	648.318883606168	2
1	1730	648.360073855896	3
1	1740	653.941250802667	3
1	1741	655.607459096358	2
1	1743	655.814893558911	2
1	1744	658.077629795112	2
1	1745	658.5434260612	1
1	1750	660.199322574739	1
1	1752	660.403908209471	2
1	1756	662.115249385517	2
1	1757	662.716147984759	1
1	1761	663.87164571115	1
1	1766	664.72910217313	1
1	1768	665.544867885523	1
1	1769	666.763628914731	1
1	1771	668.314764606999	1
1	1773	668.369794879433	2
1	1775	670.62482547781	3
1	1776	670.892028529742	3
1	1780	672.506436404769	2
1	1782	672.816503122095	2
1	1783	673.238377793217	2
1	1784	673.310376130963	1
1	1785	673.875054893555	0
1	1789	675.724472835112	0
1	1792	675.810744830692	1
1	1793	676.426315238472	1
1	1795	676.941346218227	1
1	1797	677.655665022148	2
1	1805	679.609219170468	3
1	1806	679.70584137392	3
1	1808	680.220240788002	3
1	1815	680.967725094776	4
1	1817	681.020433061008	5
1	1819	681.752230630691	5
1	1820	681.997654741378	4
1	1821	682.460200283147	3
1	1825	683.275290644088	3
1	1827	684.21150953833	3
1	1829	684.700179142219	3
1	1831	684.746893782399	4
1	1832	685.52104931004	4
1	1833	685.608966409827	3
1	1834	685.795068457809	2
1	1835	686.498003954417	1
1	1840	687.396204084666	1
1	1841	687.805362649725	1
1	1845	688.367983399109	0
1	1847	688.426764610148	0
1	1852	689.964389989927	1
1	1854	690.05618074282	2
1	1856	690.332735606316	3
1	1860	690.839182519958	4
1	1862	690.861476759034	5
1	1865	692.02271955988	6
1	1869	693.933757026397	7
1	1872	696.69512698542	8
1	1873	696.734741278708	8
1	1877	698.553463742551	7
1	1878	699.206293705043	6
1	1879	699.484057579975	5
1	1889	702.736142414951	4
1	1890	703.182859389669	3
1	1891	703.340332461897	2
1	1897	705.755513875901	2
1	1901	706.336428437687	3
1	1903	708.949164612278	4
1	1904	709.173198391421	4
1	1906	709.65736944718	4
1	1908	709.762574656235	5
1	1909	710.495107826073	5
1	1913	711.625834266581	4
1	1914	711.639775982486	3
1	1918	712.671595103867	2
1	1920	713.796626913179	2
1	1922	714.111847473799	3
1	1923	714.21675082548	3
1	1925	714.539820511398	3
1	1926	715.183871628752	3
1	1927	715.360003374596	2
1	1928	716.033429637458	1
1	1930	717.454834805337	1
1	1931	717.792132573428	1
1	1932	718.488168161096	0
1	1937	719.555968991678	0
1	1944	722.548393256448	0
1	1949	724.926420157576	0
1	1950	725.121601603418	0
1	1954	726.941084694025	0
1	1956	727.391034403033	1
1	1964	729.361459808337	1
1	1966	730.61428674396	1
1	1970	732.029209842923	1
1	1971	732.425701063742	0
1	1973	734.397135400253	0
1	1983	737.084750465505	0
1	1985	739.228313613049	0
1	1986	739.768738088513	0
1	1993	742.801156464137	0
1	1996	742.923658851466	1
1	1997	743.382860796368	1
1	1999	743.393234571467	1
1	2001	744.160656342197	2
1	2003	744.526820211162	3
1	2007	744.854383214997	4
1	2010	746.244722331159	5
1	2011	746.419470941311	5
1	2012	747.45543338576	4
1	2013	748.445034057938	3
1	2018	749.284981596077	3
1	2022	751.303162554428	3
1	2024	751.798204573445	3
1	2026	752.382788868011	4
1	2031	753.096786098697	5
1	2032	753.17375100212	5
1	2036	754.337444278155	4
1	2037	754.741261280455	3
1	2039	755.222351954984	3
1	2041	755.698831970471	4
1	2043	755.698969923194	5
1	2045	756.910913378429	6
1	2046	756.948782932301	6
1	2048	757.406090271721	6
1	2049	759.497106659403	6
1	2053	760.767480722899	6
1	2056	762.001040545483	7
1	2061	763.370652042965	8
1	2063	763.764936210993	9
1	2070	765.377547316195	9
1	2071	767.143806598197	8
1	2072	767.752701554549	7
1	2074	767.907349379495	7
1	2075	768.508596683141	7
1	2077	769.163494459779	7
1	2079	769.273110381623	8
1	2083	770.294816180256	9
1	2087	770.687828483947	10
1	2093	772.151466000347	10
1	2094	772.3040960563	9
1	2096	772.395323219032	9
1	2098	772.395994765048	10
1	2099	772.427949550533	10
1	2101	772.805317410387	10
1	2103	772.978907956155	11
1	2107	773.762454371519	12
1	2110	775.990432275596	13
1	2111	777.3990864114	13
1	2112	778.034679554656	12
1	2119	779.682762969595	12
1	2122	780.62104015382	13
1	2126	783.307694755071	13
1	2128	783.422583174447	13
1	2130	783.442264951047	14
1	2137	784.71458177835	15
1	2139	784.89852915348	15
1	2141	786.358795164532	15
1	2146	786.553353286019	16
1	2148	786.706711998866	17
1	2155	788.965973054951	17
1	2157	789.600493857648	17
1	2158	789.69080537642	17
1	2159	789.738228275595	16
1	2160	789.997109959607	15
1	2161	790.74979085069	14
1	2163	791.405476084593	14
1	2164	791.518987205658	14
1	2166	791.550396222929	14
1	2167	792.091029307077	14
1	2168	792.402800833191	13
1	2169	792.739806875536	12
1	2171	793.554063057536	12
1	2176	793.708156107449	13
1	2177	793.785860202517	13
1	2178	794.858233660998	12
1	2179	795.093650488805	11
1	2180	795.245414452327	10
1	2181	796.649162557752	9
1	2183	796.975192809618	9
1	2184	797.073209697166	9
1	2186	797.296647561632	9
1	2187	797.385807737032	9
1	2192	798.371360090082	9
1	2193	798.514897362318	9
1	2195	798.743404202304	9
1	2196	799.130460581005	9
1	2198	799.488350816995	9
1	2199	799.668125561077	9
1	2209	801.77497083781	9
1	2215	804.818668046614	10
1	2220	806.027772700005	11
1	2222	806.71815830936	12
1	2223	808.142731888643	12
1	2225	810.292174192755	12
1	2230	810.716296554868	13
1	2234	813.283046208989	13
1	2236	814.160350855223	13
1	2240	815.801168016652	13
1	2244	815.958175528325	13
1	2248	817.030478630464	14
1	2252	817.733954536836	15
1	2254	817.88041908715	16
1	2255	818.214181774613	16
1	2257	820.052212264767	16
1	2258	820.37504134884	16
1	2260	820.54252915854	16
1	2262	820.842325880767	17
1	2263	822.334520166203	17
1	2264	822.649744509636	16
1	2265	823.171750388664	15
1	2266	823.914346019793	14
1	2274	830.646343238448	14
1	2275	831.1313541721	14
1	2277	831.43525843824	14
1	2279	831.971674909256	15
1	2283	834.972075012911	15
1	2284	835.510412294863	14
1	2285	836.76115062996	13
1	2287	837.727893598557	13
1	2292	841.446022633101	14
1	2293	841.611519865601	14
1	2300	842.74246930327	14
1	2302	843.258289623165	14
1	2307	845.384603349414	14
1	2317	846.574754876813	15
1	2319	848.907704855798	15
1	2320	849.017627050457	14
1	2321	850.576120842785	13
1	2322	851.214170028023	12
1	2324	851.39501338935	12
1	2334	852.879907038119	12
1	2342	854.599346793924	12
1	2343	855.129737686489	12
1	2344	858.091648803812	11
1	2346	858.194405392048	11
1	2348	858.327474242708	12
1	2349	858.578828758225	12
1	2350	859.446396315037	11
1	2352	860.518412460875	11
1	2353	860.562449147684	11
1	2355	860.888547435187	11
1	2357	861.701210761046	12
1	2358	861.936623862373	12
1	2366	867.485939516495	12
1	2368	868.795302557184	13
1	2369	869.34883768238	13
1	2371	870.51609904201	13
1	2372	871.157117989001	13
1	2374	872.578981963062	13
1	2375	872.717261241402	13
1	2377	873.0969764615	13
1	2379	873.749345290468	14
1	2380	874.987600975092	14
1	2381	875.344694204839	13
1	2395	879.860513112842	13
1	2397	880.205661364951	14
1	2399	881.163911175042	15
1	2401	882.486763060204	16
1	2405	883.659161368348	16
1	2407	883.799875765993	16
1	2408	884.310855457646	16
1	2410	884.37025438002	16
1	2412	884.79079863064	17
1	2414	885.66177999474	18
1	2416	886.143991810872	19
1	2418	886.308833116219	20
1	2423	888.047096463554	21
1	2427	888.27068682831	22
1	2430	888.562437614894	23
1	2431	888.681547814967	23
1	2432	889.607696065973	22
1	2433	890.693091128522	21
1	2437	893.735289819054	20
1	2438	894.136552123401	19
1	2440	894.536415759605	19
1	2441	895.018665159206	19
1	2443	895.650704059201	19
1	2444	895.77826798317	19
1	2451	897.592988853226	18
1	2453	898.345623412868	18
1	2457	900.221214590841	19
1	2460	900.75962237496	20
1	2462	901.695878544985	21
1	2463	901.821097910512	21
1	2467	902.850512483118	20
1	2474	904.270165043929	19
1	2478	906.141870457388	18
1	2480	907.45214436317	18
1	2481	907.593966178108	18
1	2482	908.208810123253	17
1	2484	909.277671426097	17
1	2489	909.398102829401	18
1	2490	910.309572356731	18
1	2491	910.764584189671	17
1	2492	911.219312001471	16
1	2502	914.479859300153	16
1	2504	914.792373907557	16
1	2506	915.392484430577	16
1	2510	915.481831626909	17
1	2513	916.600508390068	18
1	2518	917.085547937716	19
1	2522	918.112094842832	20
1	2525	918.419750340901	21
1	2526	919.012609350509	21
1	2530	921.577552678676	20
1	2534	922.462922026049	20
1	2537	925.247534576014	21
1	2539	926.482822528522	22
1	2543	929.587271283987	22
1	2544	929.6557920011	21
1	2546	929.875116063419	21
1	2548	931.931129726862	22
1	2550	932.253640783593	23
1	2551	932.259566051967	23
1	2552	933.345627801846	22
1	2554	935.178038912941	22
1	2556	935.559387463514	23
1	2558	936.305415217464	24
1	2559	936.420443044623	24
1	2560	936.760550685784	23
1	2564	937.226629257602	23
1	2566	937.249786544242	24
1	2568	937.910545070654	25
1	2574	939.141459106583	26
1	2578	939.804600899864	27
1	2581	939.884922071412	28
1	2582	940.472575821301	28
1	2583	940.566271435565	27
1	2587	942.043436511708	26
1	2594	944.804919479681	25
1	2596	945.365735774602	25
1	2597	945.764599876322	25
1	2601	946.193687818693	25
1	2604	946.642031897078	26
1	2605	946.943462704963	26
1	2607	947.409386173769	26
1	2609	947.514094970938	27
1	2611	948.881041673453	28
1	2613	950.034657049131	29
1	2624	957.216503948497	30
1	2628	958.516466527238	31
1	2630	959.10724928909	31
1	2632	961.036386038965	31
1	2637	962.607001134384	32
1	2638	964.893510865308	32
1	2640	965.088416524521	32
1	2644	965.76753154067	32
1	2646	966.164466858374	32
1	2647	966.320263397478	32
1	2648	966.380012619607	31
1	2652	969.162762413025	31
1	2657	970.570002323998	32
1	2663	973.825725749164	33
1	2664	974.051806770903	33
1	2665	974.808270709682	32
1	2667	974.975284152444	32
1	2676	976.830532292625	33
1	2680	977.432445818605	34
1	2681	977.520391775014	34
1	2683	977.920447420945	34
1	2687	979.936468184532	35
1	2690	980.644779536679	36
1	2694	987.386993026005	36
1	2695	988.97101111525	35
1	2696	989.179577052025	34
1	2698	990.409047592481	34
1	2699	990.805379436561	34
1	2701	991.590301576083	34
1	2702	992.275389704657	34
1	2703	992.288440612955	33
1	2705	992.334863794351	33
1	2707	992.971143771383	34
1	2711	993.54638824318	34
1	2712	994.085540808642	33
1	2725	997.356324301277	32
1	2726	997.646423566948	31
1	2727	997.920369416857	30
1	2729	998.375474277253	30
1	2730	998.800601003667	30
1	2732	999.165147581087	30
1	2733	999.504811693275	30
1	2734	1000.042359637372	29
1	2736	1000.630780760382	29
1	2737	1000.681297265083	29
1	2738	1001.176227197053	28
1	2740	1002.14450956923	28
1	2742	1002.704486818994	29
1	2744	1002.80879696179	30
1	2748	1003.262344613646	31
1	2760	1004.984780688419	32
1	2761	1005.536955785254	32
1	2763	1006.193777302782	32
1	2765	1006.232918230588	33
1	2772	1008.485360598762	33
1	2776	1009.800783132937	32
1	2780	1011.781597240203	31
1	2781	1011.892410297752	30
1	2783	1012.292457781235	30
1	2784	1012.594188411979	30
1	2786	1014.736484793073	30
1	2788	1015.301427381712	31
1	2789	1015.437484009722	31
1	2791	1015.477729340876	31
1	2792	1016.077947219178	31
1	2793	1016.078301395	30
1	2794	1016.500694142271	29
1	2796	1017.842662795946	29
1	2798	1018.334041461693	30
1	2800	1018.364427516415	31
1	2804	1018.648508689465	31
1	2806	1018.655034199908	31
1	2807	1019.270158366631	31
1	2811	1022.6649946591	30
1	2812	1023.579022281586	29
1	2814	1023.733643657448	29
1	2815	1024.219287300285	29
1	2817	1024.678009814573	29
1	2819	1024.77799820928	30
1	2820	1025.403205894947	30
1	2821	1027.760641937395	29
1	2823	1028.210864029406	29
1	2824	1028.757936070308	29
1	2826	1029.487689455326	29
1	2830	1031.697952239641	30
1	2832	1032.940759201765	30
1	2834	1033.097407698496	30
1	2836	1034.949793288747	31
1	2843	1035.811148487203	32
1	2846	1037.776572897173	33
1	2850	1037.960541463193	34
1	2861	1043.326086797037	34
1	2863	1043.687535989156	34
1	2864	1045.364333697198	34
1	2866	1045.479564590708	34
1	2867	1045.614932546593	34
1	2868	1045.730975603687	33
1	2869	1046.123545302679	32
1	2870	1046.745311426557	31
1	2871	1046.986650120729	30
1	2873	1047.320092780757	30
1	2878	1049.702395168509	31
1	2879	1050.299797666806	31
1	2880	1051.780748621528	30
1	2882	1052.481348927138	30
1	2883	1052.511962443983	30
1	2885	1052.790505705317	30
1	2889	1054.091814578906	31
1	2894	1055.839229000435	31
1	2895	1056.344246883957	30
1	2896	1057.221007608391	29
1	2901	1059.175294079389	29
1	2902	1060.583659919716	29
1	2903	1061.746945906306	28
1	2905	1063.607417687249	28
1	2909	1064.039085708159	29
1	2911	1065.05236111834	29
1	2916	1065.492912384902	29
1	2929	1068.453951756735	29
1	2930	1069.108042924459	28
1	2932	1069.301961154451	28
1	2934	1069.446320869763	29
1	2938	1071.243468164056	29
1	2940	1072.062891802459	29
1	2942	1072.314060794609	30
1	2943	1073.829702930245	30
1	2944	1073.917573740201	29
1	2946	1074.25150113752	29
1	2948	1074.44687157519	30
1	2953	1076.516662080034	31
1	2955	1076.916024031814	32
1	2956	1077.369451406508	32
1	2958	1077.769675575091	32
1	2963	1079.44609807043	33
1	2968	1080.633534117479	34
1	2969	1080.729108858502	34
1	2971	1080.929212256222	34
1	2973	1081.197269029311	35
1	2975	1081.614981702548	36
1	2976	1081.75616320399	36
1	2981	1083.086382135795	36
1	2988	1085.029793546965	37
1	2990	1086.245876213839	37
1	2992	1086.449434569522	37
1	2997	1086.743628861257	38
1	2998	1086.808056678604	38
1	3009	1088.315570613759	38
1	3012	1090.030224640311	39
1	3014	1090.046783392914	40
1	3017	1091.308032193391	40
1	3024	1094.061777777011	40
1	3029	1094.350710875949	41
1	3032	1094.936361035761	42
1	3036	1095.240896070767	43
1	3038	1095.637401206675	43
1	3039	1095.890309363398	42
1	3043	1096.426674998554	42
1	3049	1097.576689919855	43
1	3056	1098.5646270676	43
1	3057	1098.981874303183	42
1	3058	1098.995065983986	41
1	3068	1100.053452787458	41
1	3071	1101.060497139707	42
1	3073	1101.56808601171	43
1	3075	1102.541243899323	44
1	3076	1103.488799201365	44
1	3081	1104.72515272349	44
1	3082	1105.172581077986	44
1	3083	1105.607880944144	43
1	3084	1106.067436144054	42
1	3085	1106.264845858899	41
1	3089	1106.647231088795	41
1	3100	1109.221079056957	42
1	3102	1109.229410087759	43
1	3107	1111.216250212462	44
1	3112	1112.870982806778	44
1	3117	1114.897080977751	44
1	3119	1114.931614035463	45
1	3120	1115.843946116108	45
1	3122	1116.013162959526	45
1	3123	1116.103944461298	45
1	3124	1117.042783434473	44
1	3125	1118.116277108482	43
1	3126	1118.46157723308	42
1	3127	1119.419979727692	41
1	3129	1120.633416703915	41
1	3131	1121.013239115696	42
1	3132	1121.1171307865	42
1	3133	1121.607276466273	41
1	3134	1121.818079768514	40
1	3142	1122.976766202165	40
1	3150	1124.363063849925	41
1	3154	1124.999081623612	41
1	3155	1125.076732281884	40
1	3156	1125.627951701418	39
1	3157	1126.299923160472	38
1	3158	1126.811242749906	37
1	3160	1127.446509119485	37
1	3167	1131.068291895793	37
1	3169	1131.290526674885	37
1	3170	1131.349409377236	37
1	3174	1132.174942659713	36
1	3175	1132.627412320032	35
1	3176	1133.730328090613	34
1	3177	1135.249112439563	33
1	3181	1135.816343478248	33
1	3184	1136.145051712105	34
1	3188	1137.214571590257	34
1	3190	1137.356907625174	34
1	3191	1138.132537280979	34
1	3192	1138.192992139667	33
1	3196	1140.397828905953	32
1	3206	1142.15240486199	32
1	3209	1142.60256937996	33
1	3213	1143.424478029966	33
1	3217	1147.78216808126	32
1	3219	1147.999813580461	32
1	3221	1149.531988431854	33
1	3223	1151.926426964059	34
1	3224	1152.389050637878	34
1	3225	1152.828444944645	33
1	3226	1154.27473717448	32
1	3227	1154.797467326149	31
1	3228	1155.40854979398	30
1	3229	1155.942916922305	29
1	3230	1156.866171889164	28
1	3234	1157.795656789971	27
1	3235	1158.137541375063	26
1	3236	1159.246112702476	25
1	3237	1163.056750892627	24
1	3239	1164.038647013191	24
1	3241	1164.181258477777	25
1	3242	1164.651746690533	25
1	3246	1166.499922825017	25
1	3251	1167.505523088848	25
1	3258	1168.499076409129	24
1	3259	1169.3979735895	23
1	3260	1169.702226961602	22
1	3262	1169.717412631226	22
1	3264	1171.000635905183	23
1	3265	1171.035958318345	23
1	3267	1171.913786555353	23
1	3269	1172.565313107398	24
1	3271	1172.716844322064	25
1	3272	1172.863605750049	25
1	3274	1174.829562103385	25
1	3275	1175.349690840553	25
1	3279	1177.057736713135	25
1	3282	1177.705964904192	26
1	3283	1178.657163390932	26
1	3284	1178.661044320708	25
1	3286	1178.951739801669	25
1	3288	1179.887309296183	26
1	3293	1180.949235685174	27
1	3301	1182.853996129462	28
1	3314	1187.381282678617	28
1	3316	1188.433155979415	28
1	3320	1189.409651722036	29
1	3322	1189.51851322081	30
1	3329	1192.336517551013	31
1	3332	1192.991681303076	31
1	3334	1194.208061489181	31
1	3335	1194.476786430088	31
1	3337	1194.840324261901	31
1	3338	1194.916260475474	31
1	3343	1196.167500520723	31
1	3344	1197.565454075439	31
1	3352	1203.696518870376	31
1	3356	1206.214433764296	32
1	3358	1206.309489742082	33
1	3360	1206.365289652026	34
1	3371	1209.834191589392	34
1	3376	1213.085304347559	34
1	3378	1214.256107984752	35
1	3382	1217.182647687636	35
1	3386	1217.585920670118	34
1	3387	1217.607746253088	33
1	3389	1217.73942010611	33
1	3394	1219.659214144582	34
1	3398	1221.967063885418	35
1	3400	1222.341212381355	36
1	3402	1222.608314384184	37
1	3404	1224.217377701769	37
1	3408	1225.421262087603	37
1	3416	1227.759201630726	38
1	3424	1230.416689523782	39
1	3427	1231.48009136273	40
1	3429	1231.926486927682	41
1	3431	1232.23494928604	42
1	3438	1233.713559545932	42
1	3439	1236.007011265578	41
1	3441	1236.950543487741	41
1	3442	1238.056001112741	41
1	3443	1238.073400917146	40
1	3444	1240.167503985837	39
1	3446	1240.502587679152	39
1	3447	1240.673319728338	39
1	3448	1240.92398998933	38
1	3450	1241.908467860838	38
1	3457	1243.130043305893	38
1	3458	1244.015833853117	37
1	3459	1244.236477319126	36
1	3460	1245.216517778923	35
1	3461	1246.42917559489	34
1	3462	1248.199771826367	33
1	3463	1248.31285732609	32
1	3465	1248.753780338205	32
1	3470	1251.241831690451	33
1	3474	1253.656556050937	33
1	3479	1255.696212231249	33
1	3481	1255.758058056257	34
1	3482	1255.765679691351	34
1	3484	1256.296843718863	34
1	3488	1258.753775585247	34
1	3489	1259.856827434137	33
1	3491	1260.118160518081	33
1	3496	1260.509694804004	34
1	3500	1263.33347107599	35
1	3502	1265.01942023723	35
1	3504	1265.527030127324	35
1	3505	1265.943372201162	35
1	3507	1266.094218111205	35
1	3509	1266.207647505456	36
1	3511	1266.975318042024	37
1	3512	1267.154040574594	37
1	3516	1267.82441046911	36
1	3533	1273.714503159665	36
1	3538	1274.565309236288	37
1	3540	1278.12962145442	38
1	3541	1278.227685453224	38
1	3542	1279.700419709392	37
1	3543	1279.921635759331	36
1	3545	1280.885739746386	36
1	3547	1281.457846613194	37
1	3548	1281.742406779046	37
1	3552	1282.94142140932	36
1	3553	1283.27844792627	35
1	3558	1286.709593086604	35
1	3559	1287.004021864673	35
1	3564	1290.400991732796	35
1	3571	1290.806662158104	36
1	3573	1291.779039968731	36
1	3577	1293.216462674838	35
1	3579	1293.670817510727	35
1	3580	1294.820855955061	35
1	3581	1295.987563045792	34
1	3583	1296.230380899577	34
1	3584	1296.307609549335	34
1	3588	1297.425762668478	33
1	3595	1299.03076317475	33
1	3597	1299.170136388864	33
1	3598	1299.231752607809	32
1	3599	1299.264402018462	31
1	3604	1299.87015130974	31
1	3605	1300.347684434309	31
1	3606	1300.698731685526	30
1	3608	1301.530082017688	30
1	3609	1301.634265632823	30
1	3610	1301.909704628207	29
1	3611	1302.102888109851	28
1	3612	1303.696496285916	27
1	3614	1303.700992392413	27
1	3616	1304.225828800515	28
1	3617	1304.537962893911	28
1	3624	1306.012979125467	27
1	3638	1309.333850226787	27
1	3640	1310.712406790149	28
1	3645	1312.255184332901	29
1	3647	1312.280058158214	30
1	3648	1312.649255937693	30
1	3649	1314.064865102613	29
1	3650	1314.647587461287	28
1	3652	1314.723055262173	28
1	3653	1315.250504884817	28
1	3654	1315.775180196846	27
1	3655	1316.040468804355	26
1	3656	1316.177897139346	25
1	3657	1316.35290788609	24
1	3658	1316.72560804792	23
1	3659	1317.914055493639	22
1	3661	1318.309248833745	22
1	3665	1319.954441242409	23
1	3667	1320.357892127146	23
1	3668	1320.699128108657	22
1	3670	1321.248982745754	22
1	3672	1321.662552459649	23
1	3673	1322.037667222792	23
1	3680	1322.756658922146	23
1	3682	1322.792764248453	23
1	3684	1322.801750216286	23
1	3686	1322.966559585957	24
1	3687	1323.344792080897	24
1	3691	1324.441216773919	24
1	3694	1324.581171334946	25
1	3695	1325.634651309879	25
1	3697	1326.681890099377	25
1	3699	1327.124950931665	26
1	3700	1329.428765296554	26
1	3701	1329.48869873163	25
1	3702	1329.859081097998	24
1	3703	1329.995678971755	23
1	3704	1330.19894808151	22
1	3705	1330.294064515251	21
1	3707	1330.544288434429	21
1	3711	1331.729026130785	21
1	3712	1332.689111066515	20
1	3719	1335.027527779185	19
1	3721	1335.999718093547	19
1	3722	1336.372069887041	19
1	3729	1341.575848896633	18
1	3730	1342.685976070863	17
1	3731	1346.325937897484	16
1	3733	1347.354656525675	16
1	3735	1347.482969942315	17
1	3736	1347.585948524226	17
1	3737	1347.747614563842	16
1	3738	1348.136261560057	15
1	3745	1351.095311196994	14
1	3747	1351.289846202822	14
1	3748	1351.976404204185	14
1	3749	1352.396447015565	13
1	3753	1352.921542930718	13
1	3758	1353.829231692191	13
1	3759	1355.5705097915	12
1	3761	1355.920075718953	12
1	3763	1357.162195606385	13
1	3768	1358.11136137932	14
1	3770	1358.260253713078	15
1	3772	1358.581999421961	16
1	3776	1359.361843220326	16
1	3780	1361.110452181824	15
1	3781	1362.014768280538	14
1	3786	1363.588634376222	14
1	3787	1365.174510967474	14
1	3788	1365.500761063075	13
1	3796	1367.365433667897	13
1	3797	1367.846101103179	13
1	3798	1369.080341371788	12
1	3800	1369.255897822059	12
1	3802	1369.278849037814	13
1	3803	1370.226446448457	13
1	3807	1371.076310145398	13
1	3810	1371.946487296896	14
1	3818	1374.10652100118	15
1	3825	1376.60451529773	15
1	3826	1376.946332733544	14
1	3827	1377.463118156849	13
1	3829	1378.441838473475	13
1	3830	1380.111316854371	13
1	3832	1381.009998394292	13
1	3834	1381.60924414804	14
1	3836	1381.863212719753	15
1	3838	1382.110673803503	16
1	3840	1382.312418393411	17
1	3844	1382.89385201251	17
1	3846	1384.206317852845	17
1	3847	1384.210851151211	17
1	3848	1384.735759057615	16
1	3852	1386.412164362862	15
1	3853	1386.488006570728	14
1	3854	1386.830760490903	13
1	3856	1386.874142838685	13
1	3857	1387.16977371821	13
1	3859	1387.275514215782	13
1	3860	1387.721626672524	13
1	3862	1389.614336793243	13
1	3872	1392.798587406347	13
1	3873	1393.108987199445	12
1	3875	1393.237011168085	12
1	3876	1393.848456311135	12
1	3877	1394.428271646656	11
1	3879	1394.94784980191	11
1	3880	1395.099912504197	11
1	3881	1395.560767826519	10
1	3882	1395.577288879689	9
1	3883	1396.509615459226	8
1	3885	1397.875013818758	8
1	3887	1398.05737377381	9
1	3895	1404.258968497961	10
1	3900	1407.871346372688	11
1	3901	1407.990732074538	11
1	3902	1408.426763707711	10
1	3903	1408.551311581707	9
1	3904	1409.128712058876	8
1	3906	1410.015687700788	8
1	3908	1410.362139261464	9
1	3910	1411.080110168392	10
1	3912	1412.07179160015	11
1	3916	1413.744504994875	11
1	3917	1414.195650592855	10
1	3919	1414.370462828942	10
1	3927	1416.273550159428	11
1	3931	1418.13519012517	12
1	3933	1418.886599549366	12
1	3934	1419.737083251673	11
1	3935	1420.591016205941	10
1	3936	1421.310028831529	9
1	3938	1421.801246062527	9
1	3939	1422.296938468472	9
1	3940	1422.308716985448	8
1	3941	1422.675098559386	7
1	3942	1425.046541078107	6
1	3943	1425.425726424385	5
1	3945	1425.495816432092	5
1	3946	1425.661164612948	5
1	3947	1427.679103967874	4
1	3954	1428.576416117026	4
1	3956	1428.698641910104	5
1	3962	1430.129398397159	6
1	3966	1431.470067431128	6
1	3968	1432.135171229088	6
1	3969	1433.069119714157	6
1	3970	1433.35741305129	5
1	3971	1433.677123592349	4
1	3975	1435.769362221769	4
1	3978	1436.53942167562	5
1	3979	1436.908730918499	5
1	3987	1439.848288386739	5
1	3988	1440.884552174362	5
1	3989	1440.984697357947	4
1	3990	1441.069644012584	3
1	3991	1441.294612824339	2
1	3992	1441.875306322345	1
1	3994	1441.98815355998	1
1	3996	1442.756052006466	2
1	3997	1444.25827615787	2
1	3998	1444.536301805368	1
1	4008	1445.717223180931	1
1	4011	1446.759582856042	2
1	4012	1447.626292626449	2
1	4014	1449.38439511444	2
1	4015	1452.526439751177	2
1	4017	1454.035734743449	2
1	4021	1456.880090508168	3
1	4030	1459.531878625153	4
1	4032	1460.048400150179	5
1	4039	1461.327395104012	5
1	4043	1461.407053677756	5
1	4048	1462.621377025048	6
1	4057	1465.325501084934	7
1	4064	1468.300137808387	7
1	4069	1468.602770623495	7
1	4070	1468.757050262973	7
1	4072	1469.23375219056	7
1	4074	1470.448783537698	8
1	4076	1470.596745263004	9
1	4078	1470.654985573422	10
1	4080	1471.472479876172	11
1	4081	1473.436581254078	11
1	4083	1473.568431172792	11
1	4085	1473.575503275902	12
1	4089	1476.343796053329	12
1	4090	1476.593965572804	11
1	4092	1476.872594385311	11
1	4094	1478.846884595919	12
1	4096	1479.547143725657	13
1	4097	1479.56487998989	13
1	4099	1479.660181612141	13
1	4101	1479.714355540902	14
1	4102	1479.719227966947	14
1	4103	1480.161620562867	13
1	4104	1480.219591384814	12
1	4106	1480.68302646657	12
1	4113	1483.842912153306	12
1	4114	1484.557614046026	11
1	4116	1484.906487516842	11
1	4117	1485.206429132325	11
1	4118	1486.660044320874	10
1	4125	1488.870466379821	10
1	4127	1489.443253506979	10
1	4129	1489.960692337919	10
1	4135	1491.418087300635	11
1	4141	1493.185440531622	12
1	4147	1493.724680243538	13
1	4149	1494.035955652654	14
1	4158	1495.320251495948	15
1	4165	1496.586251368477	16
1	4170	1498.125081166008	17
1	4171	1498.149540019671	17
1	4176	1498.801631775763	17
1	4177	1499.760839802612	17
1	4178	1499.966178249653	16
1	4182	1500.594954118498	16
1	4194	1503.930158930231	17
1	4198	1506.390241779269	17
1	4199	1506.864861860162	16
1	4201	1507.962956274638	16
1	4202	1509.95271520641	16
1	4209	1512.808160225619	16
1	4211	1512.850588505332	17
1	4217	1514.149218986231	18
1	4225	1518.16851049863	19
1	4229	1520.484394629898	19
1	4235	1522.173799431344	19
1	4238	1522.692563362801	20
1	4243	1524.691269264426	20
1	4244	1526.656810474406	19
1	4249	1529.224493041582	19
1	4250	1529.578685547567	19
1	4254	1530.055101097567	19
1	4256	1531.146876632086	19
1	4258	1532.153491410012	19
1	4263	1532.754978814134	20
1	4267	1533.810346663989	20
1	4268	1534.989652816126	19
1	4269	1535.300064174144	18
1	4274	1535.889305368022	18
1	4275	1535.999484959032	18
1	4279	1537.134808633256	17
1	4280	1538.420824143338	16
1	4281	1539.247385570918	15
1	4283	1539.507244842844	15
1	4284	1539.515804781633	15
1	4285	1539.572419027039	14
1	4292	1541.729365840309	14
1	4294	1543.323838532804	14
1	4296	1544.553005202485	14
1	4298	1544.610220885004	15
1	4299	1545.713511698374	15
1	4303	1546.570367461382	14
1	4304	1547.325429344465	13
1	4305	1547.740635722583	12
1	4309	1549.371506573827	12
1	4317	1551.175467049489	12
1	4319	1551.554348637473	12
1	4330	1553.780036331867	13
1	4331	1553.926208526867	13
1	4333	1554.795411323412	13
1	4338	1557.926990501047	14
1	4340	1558.690717159354	15
1	4341	1560.325675921617	15
1	4343	1560.342285676402	15
1	4345	1560.49847538446	16
1	4350	1562.984530490071	17
1	4357	1563.874865067931	18
1	4359	1564.109275816621	18
1	4363	1565.012624180023	17
1	4364	1567.149618394722	16
1	4365	1567.939540625684	15
1	4366	1568.477680009004	14
1	4367	1568.632836747153	13
1	4369	1568.675254359277	13
1	4370	1568.855157946541	13
1	4371	1569.521350144306	12
1	4372	1569.8921930786	11
1	4373	1574.017501400969	10
1	4377	1575.396488133931	9
1	4378	1575.711465823065	8
1	4379	1576.535826241874	7
1	4384	1577.575999416335	7
1	4388	1579.237056591622	7
1	4390	1579.485581989771	7
1	4391	1579.775702098382	7
1	4403	1581.88050695604	7
1	4406	1583.20230082886	7
1	4408	1583.60274878213	7
1	4409	1585.414275173999	7
1	4410	1587.699621677337	6
1	4412	1587.985853400275	6
1	4413	1588.590358505227	6
1	4418	1589.453261138751	6
1	4420	1589.706637276062	7
1	4422	1589.942528438959	8
1	4423	1591.439076339439	8
1	4424	1591.997090559283	7
1	4425	1592.148870577031	6
1	4429	1592.386471924463	5
1	4430	1592.44216694735	4
1	4431	1593.382922452344	3
1	4433	1593.97280858571	3
1	4435	1594.235899043073	4
1	4436	1594.740310394611	4
1	4437	1595.009626569863	3
1	4439	1595.013705842691	3
1	4441	1595.09749324112	4
1	4449	1596.104389538282	5
1	4451	1597.152569701857	6
1	4453	1600.546327152804	7
1	4454	1601.488699878399	7
1	4455	1601.78821961134	6
1	4468	1605.801470990219	5
1	4470	1606.22816054195	5
1	4471	1606.832632128102	5
1	4472	1606.936017131014	4
1	4474	1607.030046953401	4
1	4479	1609.741057753595	5
1	4480	1610.250352467878	5
1	4488	1612.24160096569	5
1	4490	1614.10223290672	6
1	4492	1614.281025188635	7
1	4500	1616.836807509375	8
1	4501	1618.580951645614	8
1	4502	1619.095193097885	7
1	4503	1619.10693497174	6
1	4504	1619.194147155066	5
1	4505	1619.383987338319	4
1	4506	1619.560864967195	3
1	4508	1620.116776719311	3
1	4509	1620.439085769995	3
1	4511	1620.809568389859	3
1	4512	1621.398525424982	3
1	4514	1622.089572452817	3
1	4515	1622.197833789091	3
1	4516	1622.208834081196	2
1	4517	1622.2872597103	1
1	4528	1625.434440371044	1
1	4529	1625.487196111491	1
1	4533	1626.583764233685	1
1	4536	1627.008212687955	2
1	4537	1627.520474509542	2
1	4538	1628.31696458458	1
1	4540	1629.007695293502	1
1	4547	1632.371500493129	1
1	4552	1634.017871862047	1
1	4556	1635.506552592419	1
1	4557	1635.644662188362	0
1	4559	1636.199833021017	0
1	4560	1636.245080266043	0
1	4570	1637.844057577682	0
1	4572	1637.845144464236	1
1	4578	1639.539428169101	2
1	4582	1643.645270498607	2
1	4589	1646.034107017854	1
1	4591	1646.299972548195	1
1	4593	1646.685857037371	2
1	4594	1646.834019346393	2
1	4596	1647.694458287486	2
1	4597	1648.428780970666	2
1	4601	1649.36248915431	1
1	4602	1649.887239481106	0
1	4607	1650.935614004205	0
1	4609	1653.528783605029	1
1	4610	1654.531356258989	1
1	4611	1654.867746085013	0
1	4616	1656.93450656188	0
1	4620	1657.360568056503	1
1	4622	1659.156082849395	1
1	4627	1661.161811007523	1
1	4629	1661.722936713675	2
1	4634	1663.86810833432	3
1	4640	1664.497561149267	4
1	4642	1664.614621484039	5
1	4645	1665.130705201036	6
1	4651	1666.809985499023	7
1	4653	1667.178279583142	8
1	4660	1668.679545778617	8
1	4662	1668.766792191321	8
1	4664	1668.939137842938	9
1	4665	1670.255484434071	9
1	4672	1671.643096526993	8
1	4673	1671.743292286998	7
1	4675	1671.834723907275	7
1	4677	1672.260301631079	8
1	4678	1672.652287368428	8
1	4683	1674.708262948132	8
1	4685	1675.127470214531	9
1	4687	1675.673887139888	10
1	4692	1678.818400427264	11
1	4693	1679.081365885169	11
1	4694	1681.320847059534	10
1	4695	1681.463035225117	9
1	4697	1681.715472543723	9
1	4698	1682.639266084727	9
1	4703	1683.601611543152	9
1	4705	1684.262464823187	10
1	4706	1684.430773040796	10
1	4713	1685.020338784022	9
1	4717	1688.364937336225	8
1	4718	1688.803368103971	7
1	4719	1689.464175543541	6
1	4721	1689.900267044557	6
1	4722	1690.594533926242	6
1	4723	1691.19084433662	5
1	4725	1692.129015886138	5
1	4729	1693.027706941182	6
1	4731	1693.945493440855	7
1	4734	1696.583545772721	8
1	4735	1697.78040705307	8
1	4737	1698.819658128555	8
1	4738	1700.212706593532	8
1	4739	1700.366824039328	7
1	4740	1701.052251521776	6
1	4744	1702.698824900235	6
1	4747	1702.91751542701	7
1	4749	1703.12514644246	8
1	4753	1704.868760225509	8
1	4754	1706.07828554246	7
1	4755	1706.139681431826	6
1	4756	1710.187783230671	5
1	4758	1710.511024677026	5
1	4762	1711.715681246789	5
1	4764	1711.783815640881	5
1	4766	1712.672516842828	6
1	4768	1713.691895135854	7
1	4773	1715.407177919499	8
1	4775	1715.880192807775	9
1	4782	1717.936964932644	9
1	4784	1718.44419402616	9
1	4785	1719.53913828038	9
1	4798	1724.438719471921	8
1	4800	1725.104623352684	8
1	4801	1725.264284300608	8
1	4803	1725.541577228337	8
1	4804	1725.780188034395	8
1	4806	1726.112410541123	8
1	4808	1726.438358149554	9
1	4815	1727.914037832975	10
1	4820	1729.053177430125	10
1	4824	1729.687603956776	9
1	4826	1730.376243699722	9
1	4827	1730.423962440787	9
1	4828	1730.504576519119	8
1	4832	1730.828280746109	8
1	4840	1733.882434479424	8
1	4847	1735.091623018558	7
1	4849	1736.46127629275	7
1	4854	1737.224560651025	8
1	4856	1737.943259429638	9
1	4863	1739.064834813727	9
1	4864	1740.332047901981	8
1	4868	1741.532896962045	8
1	4870	1741.947928399462	8
1	4871	1741.979587324616	7
1	4873	1743.981883710885	7
1	4877	1744.984031050567	8
1	4879	1745.280980909712	8
1	4880	1747.241574668028	7
1	4888	1751.32847710018	7
1	4889	1751.70985431144	7
1	4890	1752.560016782659	6
1	4892	1752.686255079871	6
1	4894	1753.559175571077	7
1	4895	1753.756911596218	7
1	4897	1754.009742236722	7
1	4899	1754.511873849669	8
1	4901	1754.678106230136	9
1	4903	1754.76229188737	10
1	4905	1755.565497668379	11
1	4906	1755.841598006061	11
1	4908	1757.84632953508	11
1	4909	1759.689805306814	11
1	4916	1760.652406551409	11
1	4919	1761.073562825796	12
1	4921	1761.351465725914	13
1	4922	1761.658648381457	13
1	4926	1763.168965406738	13
1	4934	1765.29290166794	13
1	4935	1765.679646152252	12
1	4940	1768.492040598605	12
1	4941	1769.201327223161	12
1	4942	1770.058929413493	11
1	4950	1774.293117793556	11
1	4955	1776.920470159625	12
1	4959	1778.458698348179	12
1	4960	1780.270962615035	11
1	4961	1780.520383255778	10
1	4963	1780.793963328312	10
1	4968	1782.94971366669	11
1	4969	1783.202882737092	11
1	4970	1784.667582024365	10
1	4971	1784.823907795605	9
1	4972	1785.082882014586	8
1	4974	1785.439557556265	8
1	4975	1785.986921458583	8
1	4977	1786.882255079946	8
1	4982	1788.180983891679	9
1	4984	1789.517083126523	10
1	4985	1790.1059981963	10
1	4989	1791.668329819473	9
1	4993	1792.485651070521	8
1	5000	1793.924107920931	8
1	5002	1793.983374583615	9
1	5005	1795.713570166287	10
1	5007	1796.435521768317	11
1	5008	1796.630760923454	11
1	5009	1796.812567536195	10
1	5010	1797.62394051109	9
1	5012	1798.256100645304	9
1	5014	1798.803530737377	10
1	5015	1800.44724654804	10
1	5017	1800.805716832637	10
1	5018	1800.861451040793	10
1	5019	1801.896335720491	9
1	5020	1802.249092845308	8
1	5021	1803.016002683023	7
1	5023	1803.614656749302	7
1	5025	1804.273489132108	8
1	5033	1807.418448669183	9
1	5034	1807.511422892393	9
1	5035	1807.662037203891	8
1	5037	1808.543746149012	8
1	5038	1808.566068337667	8
1	5040	1808.581232404171	8
1	5042	1809.229035905693	9
1	5044	1809.31893597513	10
1	5045	1809.830759888026	10
1	5047	1809.879647441628	10
1	5049	1809.901721789431	11
1	5051	1809.961190251433	12
1	5058	1811.276572638337	13
1	5061	1812.062917058304	14
1	5067	1813.329895434594	15
1	5073	1813.675287009145	15
1	5074	1813.675426454366	14
1	5075	1814.172809977491	13
1	5079	1815.346405344126	12
1	5080	1815.479966810221	11
1	5081	1815.704378772726	10
1	5082	1819.990653375236	9
1	5093	1824.558077047657	9
1	5100	1826.210626358315	9
1	5101	1826.335940392071	8
1	5103	1828.044159248389	8
1	5104	1828.231053866185	8
1	5105	1828.553959580433	7
1	5109	1831.009282967486	6
1	5111	1831.114699662924	6
1	5112	1831.147525526194	6
1	5114	1831.88439557932	6
1	5115	1832.790025514547	6
1	5117	1833.332157900237	6
1	5118	1833.827098131744	6
1	5120	1833.921410394773	6
1	5122	1834.381303303781	7
1	5123	1834.383846755364	7
1	5124	1835.311713597739	6
1	5126	1837.302898018567	6
1	5127	1837.353465074433	6
1	5128	1837.450543528115	5
1	5129	1838.936012031803	4
1	5130	1838.957162197139	3
1	5132	1839.230892752248	3
1	5136	1840.195847548467	4
1	5141	1840.923262457933	5
1	5144	1842.924476492651	6
1	5145	1843.082024844345	6
1	5146	1843.706169084885	5
1	5147	1844.108308577961	4
1	5149	1844.529926913228	4
1	5150	1844.852137462435	4
1	5152	1846.379628671353	4
1	5153	1846.883620198555	4
1	5155	1848.978816724013	4
1	5157	1849.258253939038	5
1	5162	1853.31160371857	6
1	5170	1858.573675342256	7
1	5171	1859.270618413659	7
1	5173	1860.477012625963	7
1	5175	1860.578362899179	8
1	5177	1861.062308611911	9
1	5179	1862.308878986734	10
[...]
10	3112	1112.870982806778	31.25600110423
10	3120	1115.843946116108	32.757563980313
10	3123	1116.103944461298	32.33363578251
10	3124	1117.042783434473	32.751494374701
10	3125	1118.116277108482	33.086483561517
10	3126	1118.46157723308	32.012142663558
10	3127	1119.419979727692	32.876009873789
10	3132	1121.1171307865	34.373501925243
10	3133	1121.607276466273	34.792700913488
10	3134	1121.818079768514	34.012960009335
10	3154	1124.999081623612	30.937303846601
10	3155	1125.076732281884	30.763638933716
10	3156	1125.627951701418	31.277240825469
10	3157	1126.299923160472	31.363562124711
10	3158	1126.811242749906	31.600483878046
10	3167	1131.068291895793	34.641616897239
10	3170	1131.349409377236	34.123837455216
10	3174	1132.174942659713	34.522698837169
10	3175	1132.627412320032	34.774902352007
10	3176	1133.730328090613	34.173697242041
10	3177	1135.249112439563	35.195659652105
10	3188	1137.214571590257	34.673327690934
10	3191	1138.132537280979	34.237050229929
10	3192	1138.192992139667	33.467839416177
10	3196	1140.397828905953	33.750597817158
10	3213	1143.424478029966	34.870858942672
10	3217	1147.78216808126	38.552757993501
10	3224	1152.389050637878	41.203137563844
10	3225	1152.828444944645	41.612194732183
10	3226	1154.27473717448	42.327845119869
10	3227	1154.797467326149	41.824945979459
10	3228	1155.40854979398	40.511468816229
10	3229	1155.942916922305	41.011302886842
10	3230	1156.866171889164	40.853008929638
10	3234	1157.795656789971	36.782417674275
10	3235	1158.137541375063	36.284932824605
10	3236	1159.246112702476	36.649822064968
10	3237	1163.056750892627	40.079984690462
10	3242	1164.651746690533	41.666602583023
10	3251	1167.505523088848	42.982383731014
10	3258	1168.499076409129	39.437073539386
10	3259	1169.3979735895	38.837582825798
10	3260	1169.702226961602	38.411700286717
10	3265	1171.035958318345	39.161576616189
10	3272	1172.863605750049	37.463397090033
10	3275	1175.349690840553	39.533347362305
10	3283	1178.657163390932	41.930169375291
10	3284	1178.661044320708	41.304136695534
10	3314	1187.381282678617	42.215737774345
10	3332	1192.991681303076	43.459692871222
10	3335	1194.476786430088	42.550359466029
10	3338	1194.916260475474	37.562132315997
10	3344	1197.565454075439	33.384195597662
10	3371	1209.834191589392	40.116778958166
10	3382	1217.182647687636	44.617334580238
10	3386	1217.585920670118	42.756358566733
10	3387	1217.607746253088	40.939706100035
10	3404	1224.217377701769	45.2656379001
10	3438	1233.713559545932	51.905404600337
10	3439	1236.007011265578	53.153015136116
10	3442	1238.056001112741	54.16158929277
10	3443	1238.073400917146	53.398882486299
10	3444	1240.167503985837	51.734348006422
10	3447	1240.673319728338	51.940753723146
10	3448	1240.92398998933	51.514338267294
10	3457	1243.130043305893	48.921981816712
10	3458	1244.015833853117	49.175509591216
10	3459	1244.236477319126	48.132718529079
10	3460	1245.216517778923	49.0490172582
10	3461	1246.42917559489	48.477489033778
10	3462	1248.199771826367	46.914747955987
10	3463	1248.31285732609	44.616338455714
10	3474	1253.656556050937	47.347066308855
10	3482	1255.765679691351	49.040422479565
10	3488	1258.753775585247	45.668471237688
10	3489	1259.856827434137	45.600719449385
10	3502	1265.01942023723	47.28000013112
10	3505	1265.943372201162	46.963788752223
10	3512	1267.154040574594	47.494826430012
10	3516	1267.82441046911	45.857346583692
10	3541	1278.227685453224	50.476414745075
10	3542	1279.700419709392	51.941218078666
10	3543	1279.921635759331	49.504946235549
10	3548	1281.742406779046	50.262315416316
10	3552	1282.94142140932	50.70647212328
10	3553	1283.27844792627	50.852714186659
10	3559	1287.004021864673	46.501434185521
10	3573	1291.779039968731	49.319151132379
10	3577	1293.216462674838	44.048345797033
10	3580	1294.820855955061	43.57902426461
10	3581	1295.987563045792	43.701694115148
10	3584	1296.307609549335	41.744891554541
10	3588	1297.425762668478	41.667704612221
10	3597	1299.170136388864	39.051975870783
10	3598	1299.231752607809	39.0173770611
10	3599	1299.264402018462	38.754707214458
10	3605	1300.347684434309	37.014213358319
10	3606	1300.698731685526	35.171701558202
10	3609	1301.634265632823	35.540047521618
10	3610	1301.909704628207	35.702057122751
10	3611	1302.102888109851	35.127570067827
10	3612	1303.696496285916	36.469613180939
10	3617	1304.537962893911	34.029516876212
10	3624	1306.012979125467	33.809249745567
10	3648	1312.649255937693	31.191409324499
10	3649	1314.064865102613	32.02045007197
10	3650	1314.647587461287	31.011137280994
10	3653	1315.250504884817	28.540911798213
10	3654	1315.775180196846	25.872779179082
10	3655	1316.040468804355	25.639477071559
10	3656	1316.177897139346	25.65572941912
10	3657	1316.35290788609	25.546245727986
10	3658	1316.72560804792	24.599955668854
10	3659	1317.914055493639	24.243237982912
10	3667	1320.357892127146	23.692572164428
10	3668	1320.699128108657	23.055583652011
10	3673	1322.037667222792	24.128858332176
10	3682	1322.792764248453	22.922612938713
10	3687	1323.344792080897	21.814710063209
10	3695	1325.634651309879	21.408822509364
10	3700	1329.428765296554	24.402359949364
10	3701	1329.48869873163	23.553805017438
10	3702	1329.859081097998	23.694690036445
10	3703	1329.995678971755	23.65972847112
10	3704	1330.19894808151	22.701314046521
10	3705	1330.294064515251	22.585767792318
10	3711	1331.729026130785	21.016619340636
10	3712	1332.689111066515	21.033105362783
10	3719	1335.027527779185	20.304472517012
10	3722	1336.372069887041	18.062821053296
10	3729	1341.575848896633	20.326866150879
10	3730	1342.685976070863	21.023423611214
10	3731	1346.325937897484	23.950506495217
10	3736	1347.585948524226	24.920192763801
10	3737	1347.747614563842	24.990955641696
10	3738	1348.136261560057	25.334511343771
10	3745	1351.095311196994	26.654094423075
10	3748	1351.976404204185	27.395232869239
10	3749	1352.396447015565	25.714556916188
10	3758	1353.829231692191	23.284943257762
10	3759	1355.5705097915	24.823112553478
10	3776	1359.361843220326	23.362125126779
10	3780	1361.110452181824	20.719488374891
10	3781	1362.014768280538	14.660111754863
10	3787	1365.174510967474	16.577705981235
10	3788	1365.500761063075	16.146848006731
10	3797	1367.846101103179	14.924558172461
10	3798	1369.080341371788	13.160265652835
10	3803	1370.226446448457	13.064250842072
10	3825	1376.60451529773	16.324559763595
10	3826	1376.946332733544	13.58022944578
10	3827	1377.463118156849	13.874483780627
10	3830	1380.111316854371	14.03691704316
10	3844	1382.89385201251	15.528418344613
10	3847	1384.210851151211	14.954953329152
10	3848	1384.735759057615	15.456910019801
10	3852	1386.412164362862	15.335854217464
10	3853	1386.488006570728	14.541519273832
10	3854	1386.830760490903	14.674722819397
10	3857	1387.16977371821	14.693283758978
10	3860	1387.721626672524	13.615105671344
10	3872	1392.798587406347	14.356748932872
10	3873	1393.108987199445	12.098988805153
10	3876	1393.848456311135	12.239212163095
10	3877	1394.428271646656	12.565058926903
10	3880	1395.099912504197	12.989238700694
10	3881	1395.560767826519	13.248349433108
10	3882	1395.577288879689	12.999653351228
10	3883	1396.509615459226	12.303297606381
10	3901	1407.990732074538	18.376395281295
10	3902	1408.426763707711	18.39022254113
10	3903	1408.551311581707	17.753872745537
10	3904	1409.128712058876	15.891700890791
10	3916	1413.744504994875	15.869491176117
10	3917	1414.195650592855	16.138276819045
10	3933	1418.886599549366	14.130650394727
10	3934	1419.737083251673	11.865736878985
10	3935	1420.591016205941	10.575328505153
10	3936	1421.310028831529	10.947889570065
10	3939	1422.296938468472	11.21682830008
10	3940	1422.308716985448	10.236925385298
10	3941	1422.675098559386	10.279433020069
10	3942	1425.046541078107	10.676078249165
10	3943	1425.425726424385	10.734344563561
10	3946	1425.661164612948	10.099324940492
10	3947	1427.679103967874	11.405553808446
10	3966	1431.470067431128	3.08904485652
10	3969	1433.069119714157	4.509616141223
10	3970	1433.35741305129	4.780996934264
10	3971	1433.677123592349	4.978481682245
10	3979	1436.908730918499	6.77933252134
10	3988	1440.884552174362	6.276317692761
10	3989	1440.984697357947	5.215335136178
10	3990	1441.069644012584	4.530222336964
10	3991	1441.294612824339	4.051642256594
10	3992	1441.875306322345	3.204430110318
10	3997	1444.25827615787	4.409987771131
10	3998	1444.536301805368	2.548148245388
10	4012	1447.626292626449	2.629595014123
10	4015	1452.526439751177	6.809216570246
10	4039	1461.327395104012	7.291660360563
10	4064	1468.300137808387	7.717810625533
10	4070	1468.757050262973	7.349996585217
10	4081	1473.436581254078	10.81520422903
10	4089	1476.343796053329	12.754639108972
10	4090	1476.593965572804	11.26846448787
10	4097	1479.56487998989	13.929327689069
10	4102	1479.719227966947	11.323627978419
10	4103	1480.161620562867	11.558849939372
10	4104	1480.219591384814	10.985839194254
10	4113	1483.842912153306	13.187926579884
10	4114	1484.557614046026	13.085134169854
10	4117	1485.206429132325	11.637997959533
10	4118	1486.660044320874	13.084541044972
10	4127	1489.443253506979	10.59636891106
10	4171	1498.149540019671	17.077646744068
10	4177	1499.760839802612	14.85435228577
10	4178	1499.966178249653	12.257680721124
10	4198	1506.390241779269	14.972154478634
10	4199	1506.864861860162	14.055478467682
10	4202	1509.95271520641	16.767274674788
10	4229	1520.484394629898	22.35931346389
10	4243	1524.691269264426	24.477160681383
10	4244	1526.656810474406	26.061856355908
10	4250	1529.578685547567	25.717067692822
10	4256	1531.146876632086	26.876891991805
10	4267	1533.810346663989	21.295683535136
10	4268	1534.989652816126	22.181492590507
10	4269	1535.300064174144	22.449475668812
10	4275	1535.999484959032	21.850265972801
10	4279	1537.134808633256	20.678650010944
10	4280	1538.420824143338	20.252313644708
10	4281	1539.247385570918	20.972781730535
10	4284	1539.515804781633	17.960418953441
10	4285	1539.572419027039	17.398619595695
10	4294	1543.323838532804	16.627556213696
10	4299	1545.713511698374	16.489018656792
10	4303	1546.570367461382	16.515266363815
10	4304	1547.325429344465	15.171937934453
10	4305	1547.740635722583	15.084928548154
10	4317	1551.175467049489	15.849538647889
10	4331	1553.926208526867	14.270902202285
10	4341	1560.325675921617	18.596310081308
10	4359	1564.109275816621	15.446319239709
10	4363	1565.012624180023	15.167808106167
10	4364	1567.149618394722	15.595269757249
10	4365	1567.939540625684	15.970397739114
10	4366	1568.477680009004	16.269004567483
10	4367	1568.632836747153	15.669090841498
10	4370	1568.855157946541	15.075121614674
10	4371	1569.521350144306	14.725938820894
10	4372	1569.8921930786	13.666009636697
10	4373	1574.017501400969	16.090510899922
10	4377	1575.396488133931	15.054202457529
10	4378	1575.711465823065	15.212990438605
10	4379	1576.535826241874	14.221873044614
10	4388	1579.237056591622	15.434369617744
10	4391	1579.775702098382	15.900837030451
10	4406	1583.20230082886	6.543723679968
10	4409	1585.414275173999	7.838275757664
10	4410	1587.699621677337	10.033037332999
10	4413	1588.590358505227	9.104776515456
10	4423	1591.439076339439	10.495567051952
10	4424	1591.997090559283	10.400508940849
10	4425	1592.148870577031	10.268363620991
10	4429	1592.386471924463	4.400618524188
10	4430	1592.44216694735	3.777305410001
10	4431	1593.382922452344	3.929661313593
10	4436	1594.740310394611	5.033673118549
10	4437	1595.009626569863	5.067098130904
10	4454	1601.488699878399	7.252800835326
10	4455	1601.78821961134	6.774513768649
10	4468	1605.801470990219	9.978753097594
10	4471	1606.832632128102	10.72824258982
10	4472	1606.936017131014	9.783447429157
10	4480	1610.250352467878	8.182863533794
10	4501	1618.580951645614	10.22937724963
10	4502	1619.095193097885	9.35413534429
10	4503	1619.10693497174	8.353739470947
10	4504	1619.194147155066	6.952546189376
10	4505	1619.383987338319	5.281754431599
10	4506	1619.560864967195	5.27983977856
10	4509	1620.439085769995	5.983005103253
10	4512	1621.398525424982	5.254041303238
10	4515	1622.197833789091	5.361026279716
10	4516	1622.208834081196	2.092057361885
10	4517	1622.2872597103	1.477691320441
10	4529	1625.487196111491	0.966329191278
10	4537	1627.520474509542	1.879521318324
10	4538	1628.31696458458	1.733200350895
10	4547	1632.371500493129	1.435211742412
10	4556	1635.506552592419	1.488680730372
10	4557	1635.644662188362	1.185485760462
10	4560	1636.245080266043	0.045247245026
10	4582	1643.645270498607	5.801212920925
10	4589	1646.034107017854	1.962296837768
10	4594	1646.834019346393	2.130352728779
10	4597	1648.428780970666	2.128808422471
10	4601	1649.36248915431	1.668030866824
10	4602	1649.887239481106	1.387108212083
10	4610	1654.531356258989	3.595742254784
10	4611	1654.867746085013	1.338962479984
10	4622	1659.156082849395	2.066085017176
10	4660	1668.679545778617	4.811437444297
10	4665	1670.255484434071	6.340478023078
10	4672	1671.643096526993	6.512391325957
10	4673	1671.743292286998	5.749825517252
10	4678	1672.652287368428	5.842301869405
10	4693	1679.081365885169	10.314573693848
10	4694	1681.320847059534	12.381709216596
10	4695	1681.463035225117	11.157848674333
10	4698	1682.639266084727	11.680557522586
10	4706	1684.430773040796	12.170471409717
10	4713	1685.020338784022	9.892868569491
10	4717	1688.364937336225	12.365562098885
10	4718	1688.803368103971	9.984967676707
10	4719	1689.464175543541	7.748702999818
10	4722	1690.594533926242	7.324895767328
10	4723	1691.19084433662	7.589232793468
10	4735	1697.78040705307	13.280133608907
10	4738	1700.212706593532	15.434242279697
10	4739	1700.366824039328	13.400427685604
10	4740	1701.052251521776	11.151984477219
10	4753	1704.868760225509	11.841053284327
10	4754	1706.07828554246	12.132792101605
10	4755	1706.139681431826	9.556135659105
10	4756	1710.187783230671	11.368125102116
10	4762	1711.715681246789	9.016856346554
10	4782	1717.936964932644	7.425940255618
10	4785	1719.53913828038	8.672562242019
10	4798	1724.438719471921	11.766202629093
10	4801	1725.264284300608	11.572389164754
10	4804	1725.780188034395	11.832230612999
10	4820	1729.053177430125	12.688108328474
10	4824	1729.687603956776	8.635617587846
10	4827	1730.423962440787	5.319339088103
10	4828	1730.504576519119	4.962999290782
10	4840	1733.882434479424	6.49319643989
10	4847	1735.091623018558	6.323568955045
10	4863	1739.064834813727	8.440179672782
10	4864	1740.332047901981	9.503767155872
10	4870	1741.947928399462	9.659449517994
10	4871	1741.979587324616	7.18620955684
10	4879	1745.280980909712	8.522762909322
10	4880	1747.241574668028	10.017014017003
10	4889	1751.70985431144	10.319283987605
10	4890	1752.560016782659	11.027119820614
10	4895	1753.756911596218	9.775027885333
10	4906	1755.841598006061	11.306047582381
10	4909	1759.689805306814	14.705774256247
10	4922	1761.658648381457	11.707709053051
10	4934	1765.29290166794	12.606646588069
10	4935	1765.679646152252	12.120470581175
10	4941	1769.201327223161	14.689453373492
10	4942	1770.058929413493	15.380823183357
10	4959	1778.458698348179	17.80629179677
10	4960	1780.270962615035	19.197399789239
10	4961	1780.520383255778	19.168917529864
10	4969	1783.202882737092	20.033917330354
10	4970	1784.667582024365	17.565583867767
10	4971	1784.823907795605	16.331867197
10	4972	1785.082882014586	14.892816451003
10	4975	1785.986921458583	14.270766754802
10	4985	1790.1059981963	15.555730527122
10	4989	1791.668329819473	14.248545455211
10	4993	1792.485651070521	10.431426535001
10	5008	1796.630760923454	9.748505843508
10	5009	1796.812567536195	8.751534397331
10	5010	1797.62394051109	9.442956619411
10	5015	1800.44724654804	10.930163421517
10	5018	1800.861451040793	9.445838596788
10	5019	1801.896335720491	10.125626885531
10	5020	1802.249092845308	9.44132820068
10	5021	1803.016002683023	9.37296392421
10	5034	1807.511422892393	13.528048308778
10	5035	1807.662037203891	11.948467037604
10	5038	1808.566068337667	12.13054656935
10	5045	1809.830759888026	11.574659242722
10	5073	1813.675287009145	9.401797877037
10	5074	1813.675426454366	8.616699036165
10	5075	1814.172809977491	6.754361308308
10	5079	1815.346405344126	6.765172939955
10	5080	1815.479966810221	6.250930904528
10	5081	1815.704378772726	6.385442797596
10	5082	1819.990653375236	10.111005933608
10	5100	1826.210626358315	14.934053719978
10	5101	1826.335940392071	14.273023333767
10	5104	1828.231053866185	16.023890746685
10	5105	1828.553959580433	15.224064145839
10	5109	1831.009282967486	9.899024613811
10	5112	1831.147525526194	9.6663253881
10	5115	1832.790025514547	9.94531790186
10	5118	1833.827098131744	9.269021084087
10	5123	1834.383846755364	9.658485439409
10	5124	1835.311713597739	7.26755434935
10	5127	1837.353465074433	7.330600383987
10	5128	1837.450543528115	6.335843865191
10	5129	1838.936012031803	7.051616452483
10	5130	1838.957162197139	5.625004296902
10	5145	1843.082024844345	5.779126825778
10	5146	1843.706169084885	4.475276332637
10	5147	1844.108308577961	4.109663074585
10	5150	1844.852137462435	4.656289913968
10	5153	1846.883620198555	6.165724170647
10	5171	1859.270618413659	14.740691500431
10	5180	1862.849401184154	16.469772512801
10	5184	1864.293894788565	15.035640849527
10	5185	1865.57434035093	12.920020818984
10	5186	1866.266581385553	12.954977666983
10	5196	1869.990231817342	11.416556475086
10	5199	1871.228286943771	10.751274317808
10	5202	1873.514949038389	12.93658613921
10	5203	1873.558818227988	12.496509616077
10	5206	1875.520389496944	13.21151051021
10	5214	1877.406561869378	9.60457834613
10	5229	1882.047825035453	11.852080883071
10	5234	1883.141442867636	10.228472398263
10	5235	1883.142536786277	8.242262860264
10	5256	1887.553772892542	10.449391917195
10	5299	1901.975306192754	18.396130304426
10	5302	1902.423087212639	18.219324267919
10	5307	1904.234551593779	19.757074995121
10	5308	1904.71051334244	19.622768831499
10	5309	1905.264967331769	19.216698741894
10	5323	1911.185894148788	21.097506157485
10	5326	1913.091175712148	21.924799244538
10	5331	1913.87627837501	22.509086306852
10	5332	1914.388334434154	22.175556828973
10	5336	1915.439464288217	21.330806029723
10	5340	1916.49022186223	17.64479218023
10	5349	1924.771907332399	22.620496971419
10	5359	1928.866475047415	22.545398920355
10	5360	1929.01765728263	21.884657360267
10	5368	1930.753793514429	21.300927524097
10	5374	1932.360459373452	18.89746526924
10	5375	1932.815586738462	19.021232312305
10	5376	1934.771631006356	20.218852092904
10	5383	1940.323844573229	17.993104363206
10	5391	1941.90263917505	16.243263027058
10	5392	1941.9398204746	14.796461508248
10	5397	1943.550813317252	15.66206094101
10	5400	1944.345172446569	14.215616129094
10	5407	1945.339124765862	15.084465564809
10	5408	1946.200059707982	15.762626757924
10	5418	1949.431107268999	17.469338732398
10	5421	1950.539561526317	15.395962764175
10	5429	1953.079199410304	12.637789662988
10	5432	1956.494735181001	15.932059410841
10	5433	1956.907221006663	15.814372116009
10	5434	1957.112430262157	14.730532176074
10	5437	1957.679677048805	14.26121498811
10	5438	1957.704437094331	13.990760076485
10	5441	1960.216190474902	15.570084881586
10	5448	1961.494697327315	16.5519088993
10	5452	1964.076669584406	17.459019367097
10	5453	1966.927066226423	20.036943516326
10	5462	1968.677446048065	18.300162759307
10	5463	1968.723781986058	17.703472358582
10	5467	1970.062051927625	17.054993820991
10	5470	1970.816824336839	17.354317221965
10	5474	1972.844199478243	13.068264302027
10	5475	1974.610925989719	14.393209974587
10	5476	1974.791534487175	13.757785079587
10	5477	1974.803705387748	13.534913504128
10	5491	1980.108887654495	12.707816492853
10	5492	1981.369782338413	13.746132830584
10	5497	1982.470750913286	14.48128897826
10	5503	1983.368283882413	12.917287379779
10	5510	1987.723679085155	11.206365017874
10	5514	1988.921571834933	7.185286708678
10	5525	1991.436361467158	8.153169711423
10	5528	1991.655511365627	7.552125378943
10	5529	1991.957103282858	5.226420378844
10	5530	1992.374661129924	3.949283601691
10	5531	1993.552204308565	4.461866768402
10	5532	1993.765500661884	4.441640668994
10	5533	1994.575160087624	4.123015879307
10	5536	1995.456136085344	4.411231859035
10	5537	1996.233556974498	4.673452164552
10	5538	1996.674735118896	1.801810498987
11	5541	2000	0.5115
12	5541	2000	0.4115

