version 2
run Monotonicity_test_recover_rate-271-20221219-18:28:08-15836
attr configname Monotonicity_test_recover_rate
attr datetime 20221219-18:28:08
attr experiment Monotonicity_test_recover_rate
attr inifile omnetpp.ini
attr iterationvars $0=50
attr iterationvarsf 50-
attr measurement $0=50
attr network Network
attr processid 15836
attr repetition 71
attr replication #71
attr resultdir results
attr runnumber 271
attr seedset 71
param *.minion.arrival_mean 2
param *.minion.service_mean 1.5
param *.boss.arrival_mean 2.5
param *.boss.service_mean 0.5
param *.player.recover_rate_x 50
param **.minion.arrival_distribution 0
param **.minion.service_distribution 0
param **.boss.arrival_distribution 0
param **.boss.service_distribution 0

vector 0 Network.player minion_jobs_number_stat:vector ETV
attr source signal_minion_jobs_number
vector 1 Network.player minion_jobs_queue_number_stat:vector ETV
attr source signal_minion_jobs_queue_number
vector 2 Network.player minion_recovered_stat:vector ETV
attr source signal_minion_recovered
vector 3 Network.player minion_defeated_stat:vector ETV
attr source signal_minion_defeated
vector 4 Network.player boss_jobs_number_stat:vector ETV
attr source signal_boss_jobs_number
vector 5 Network.player boss_jobs_queue_number_stat:vector ETV
attr source signal_boss_jobs_queue_number
vector 6 Network.player boss_defeated_stat:vector ETV
attr source signal_boss_defeated
vector 7 Network.player boss_waiting_time_stat:vector ETV
attr source signal_boss_waiting_time
vector 8 Network.player boss_response_time_stat:vector ETV
attr source signal_boss_response_time
vector 9 Network.player minion_waiting_time_stat:vector ETV
attr source signal_minion_waiting_time
vector 10 Network.player minion_response_time_stat:vector ETV
attr source signal_minion_response_time
vector 11 Network.player minion_throughput:vector ETV
attr source signal_minion_throughput
vector 12 Network.player boss_throughput:vector ETV
attr source signal_boss_throughput
0	0	0	0
0	5	3.740016832111	1
0	8	4.818254183641	1
0	10	5.036968673065	2
0	14	5.419459801629	3
0	16	5.466882314406	4
0	21	5.75932704352	3
0	29	9.974643181886	1
0	36	12.289241722017	2
0	40	12.571362746916	3
0	45	13.602358803936	4
0	49	15.363869504504	5
0	51	15.967824576575	6
0	53	16.176496883532	7
0	63	20.005853306355	3
0	69	23.166756001946	3
0	82	26.264983105539	2
0	86	26.38368799553	3
0	88	26.425035767122	4
0	91	27.950480727605	5
0	94	29.991615878223	5
0	96	30.456588790605	6
0	98	30.773978174019	7
0	101	31.288657149976	7
0	103	32.019656319919	8
0	106	32.459353505117	8
0	108	34.04663492023	9
0	110	34.047646490342	10
0	120	36.118608763658	11
0	123	38.245329272095	12
0	131	42.509897417776	7
0	135	43.433009341984	8
0	144	45.052113590097	9
0	152	46.205358299849	10
0	160	47.765926681919	11
0	166	49.522251414869	11
0	170	50.70886910547	10
0	173	51.764989314095	10
0	175	52.504610044282	11
0	181	56.033355608038	11
0	185	59.334737774448	10
0	187	59.361248275649	11
0	195	63.089573774917	9
0	199	64.792121698161	8
0	207	67.587129689853	5
0	210	67.741307727253	6
0	212	68.479378486018	7
0	214	69.309519184209	8
0	219	71.214531541193	6
0	224	73.541158826863	6
0	226	73.563796287665	7
0	232	74.855380424312	8
0	236	76.353139789621	7
0	249	81.200268157269	6
0	251	81.297905350062	7
0	257	82.815565297178	7
0	265	86.31535014263	5
0	267	86.359364682302	6
0	276	90.031114555356	3
0	278	91.592003509075	4
0	300	99.629356936074	1
0	305	101.27392334202	1
0	308	102.402038337845	1
0	319	106.903479645408	2
0	321	107.068025709804	3
0	323	107.261600693573	4
0	325	107.967593431043	5
0	328	109.244050993464	5
0	333	110.616342642871	6
0	336	111.229335842773	6
0	338	111.25401454299	7
0	340	111.933971176882	8
0	342	114.027197475399	9
0	353	116.64865194669	10
0	355	117.013902979966	11
0	362	121.466342763916	10
0	368	122.214850718609	10
0	370	122.250749956327	11
0	377	124.707930615376	9
0	380	126.036817394832	10
0	382	126.057330974824	11
0	385	127.088563609432	11
0	387	127.942475676507	12
0	390	129.70497434113	12
0	406	136.569857700823	10
0	410	137.376218624535	11
0	412	138.286896196879	12
0	414	138.514103535513	13
0	425	145.14550075388	10
0	434	154.243577519175	4
0	439	155.789943300939	5
0	447	161.559407607029	3
0	449	161.999626568504	4
0	451	162.576792180804	5
0	458	166.456376765049	4
0	460	166.498306079337	5
0	464	170.24125259221	4
0	467	171.740798239738	4
0	473	174.307601797683	1
0	475	174.315965367982	2
0	477	175.419266742639	3
0	484	176.750559957161	1
0	488	177.395643898148	2
0	495	178.948035249254	2
0	499	179.185148939588	3
0	518	185.216972083951	1
0	530	187.476929084882	1
0	536	188.937103342677	1
0	539	188.99735134135	1
0	541	189.28722981016	2
0	543	190.942986107788	3
0	545	191.555878612582	4
0	551	194.131162312583	5
0	558	197.623243754532	3
0	566	200.255084998604	4
0	575	205.084308148851	3
0	582	210.86312870977	2
0	593	213.901329644933	1
0	596	214.45916609306	1
0	601	216.946744123094	1
0	603	217.161673488937	2
0	612	218.124027835508	3
0	614	218.92045223154	4
0	625	222.470708314704	5
0	629	223.35145226222	6
0	631	223.367566061441	7
0	639	226.338295385044	7
0	643	227.503488183918	8
0	645	227.611410832723	9
0	651	228.666990358763	9
0	657	229.317697256217	9
0	668	231.647080912564	10
0	676	236.993038031684	11
0	679	238.342272444699	11
0	681	238.519148994779	12
0	683	239.47193557522	13
0	687	240.480333527085	14
0	690	240.97544339973	15
0	698	244.778583410383	16
0	708	246.942305207055	17
0	712	247.438444849751	17
0	720	250.089575728239	18
0	728	253.371684211118	18
0	735	257.682044268074	18
0	743	261.028931690496	19
0	746	261.807789699259	19
0	750	263.719119984869	18
0	754	266.607557758456	17
0	757	268.703078353276	17
0	770	273.278356597637	13
0	772	273.401992173691	14
0	774	273.425147047909	15
0	779	276.666427843082	15
0	786	278.709336160513	15
0	793	282.504768784849	14
0	795	282.726021632897	15
0	804	283.728994997411	15
0	806	286.443784964002	16
0	817	291.582301095305	14
0	830	295.334983060222	10
0	832	295.501089419048	11
0	835	296.642220186811	11
0	837	299.210115079961	12
0	843	301.071068902094	12
0	846	301.513457940817	12
0	848	302.304839949429	13
0	852	302.883533589394	14
0	854	304.404181033178	15
0	858	305.358845718003	15
0	867	312.136745914786	12
0	869	312.608088474251	13
0	871	312.96185104359	14
0	873	313.436452233673	15
0	877	313.838134533183	16
0	883	315.712651337579	17
0	886	317.233763233546	17
0	891	318.253111295522	17
0	893	318.554495998217	18
0	898	320.00488607997	19
0	904	321.273116780657	19
0	911	323.536686561184	19
0	914	323.765583154124	19
0	916	324.315144618637	20
0	921	325.386064224511	20
0	925	326.328036323279	21
0	930	328.3061449616	21
0	932	328.737590808855	22
0	936	331.034436335629	21
0	944	333.681343671427	21
0	948	334.313176537083	21
0	950	334.894117303954	22
0	957	337.728519865861	21
0	959	338.002476830875	22
0	964	338.912225935772	22
0	982	341.867127180983	23
0	985	344.203260588232	23
0	992	348.205186274675	22
0	995	349.729124716145	22
0	998	351.399697374448	22
0	1002	353.250540563379	21
0	1013	357.079200978242	22
0	1020	357.935955802881	23
0	1022	358.011404906639	24
0	1026	361.399515739635	24
0	1032	362.232416655615	24
0	1037	363.937290572175	22
0	1040	364.470841122021	22
0	1045	366.723506242498	23
0	1050	368.063683975574	24
0	1052	368.21738981461	25
0	1054	368.513067801654	26
0	1056	369.252220765229	27
0	1058	370.632134373423	28
0	1063	373.111612372064	28
0	1091	384.107637833477	22
0	1096	384.893618220577	23
0	1100	385.58127968818	24
0	1103	387.162398071877	25
0	1108	388.651376845974	26
0	1111	391.490681363923	26
0	1113	391.501536985105	27
0	1117	394.078012562749	26
0	1119	394.337039819692	27
0	1123	397.124573338553	26
0	1125	398.935696592227	27
0	1127	399.074878891897	28
0	1129	399.499399658885	29
0	1138	403.641322758182	29
0	1153	406.974382501226	29
0	1156	409.134631648147	29
0	1158	411.1409120609	30
0	1160	412.223972492412	31
0	1175	415.222662681729	28
0	1178	416.836821350663	28
0	1180	417.126692206988	29
0	1192	420.166906574342	29
0	1202	422.707814713146	28
0	1207	426.924230737357	26
0	1209	427.623810320838	27
0	1217	432.849925167106	25
0	1221	439.154866089493	24
0	1223	439.283869221388	25
0	1227	440.490026572079	26
0	1238	442.661203007217	25
0	1245	446.997571509311	23
0	1248	448.205969599639	24
0	1281	459.871363933756	18
0	1289	461.290483564459	19
0	1292	462.092654652597	19
0	1296	462.657536529773	20
0	1302	464.212412059653	20
0	1304	464.722663799978	21
0	1308	466.387376307385	21
0	1311	466.475711009717	21
0	1323	468.735717052398	21
0	1327	470.285142999991	22
0	1348	478.400236678066	17
0	1356	482.651039055512	18
0	1358	483.120199237293	19
0	1361	483.92983291869	19
0	1363	484.13102356515	20
0	1373	487.274678625499	19
0	1385	492.20866098027	19
0	1393	494.385472879703	20
0	1405	497.238494208374	17
0	1413	500.74641429131	17
0	1415	500.934962338272	18
0	1417	501.147002386674	19
0	1427	505.575492138256	19
0	1434	506.729963387964	18
0	1445	512.792718723566	13
0	1452	516.511880194697	14
0	1472	525.248962361845	10
0	1478	527.984549857456	10
0	1481	530.045644199603	10
0	1484	531.25993711779	10
0	1486	531.624326493365	11
0	1488	531.679776795372	12
0	1491	533.31563116289	12
0	1494	534.867906156011	12
0	1496	535.00244972447	13
0	1509	539.061145987989	12
0	1512	542.98861637908	12
0	1514	543.992987224166	13
0	1516	544.363732403582	14
0	1518	544.867819315916	15
0	1522	544.963660108092	16
0	1528	546.543935099828	17
0	1539	550.142608979051	18
0	1542	550.259329846522	18
0	1548	551.008127643647	18
0	1551	553.043091348806	18
0	1554	553.78027904519	18
0	1556	554.645499036311	19
0	1558	555.614307533745	20
0	1563	555.790083903081	20
0	1566	556.409958193095	21
0	1568	556.758962619517	22
0	1576	557.637783539101	22
0	1581	558.015501785581	23
0	1583	558.477435590713	24
0	1607	565.837070893289	18
0	1609	565.853574945613	19
0	1612	568.094353515021	20
0	1621	570.158060393744	20
0	1626	571.705186321501	18
0	1629	576.312346106108	18
0	1635	577.813329322204	18
0	1651	581.953282443768	17
0	1654	583.139274160895	17
0	1659	584.132797720615	17
0	1662	584.647521112548	18
0	1664	584.774498555162	19
0	1667	585.265797832095	19
0	1690	594.018879099602	14
0	1700	597.322693894796	12
0	1705	599.302088884292	11
0	1711	600.057156335475	11
0	1716	605.686295689335	11
0	1726	609.054194217764	12
0	1734	611.327347025711	12
0	1739	612.225558683681	12
0	1741	612.231331588074	13
0	1743	613.825117767286	14
0	1748	615.2297881245	15
0	1755	618.220727449005	15
0	1760	619.078519949059	16
0	1764	619.573461611336	17
0	1768	621.370812493389	17
0	1770	621.658396201951	18
0	1775	622.526157114214	19
0	1779	623.401024145199	18
0	1796	626.951283745658	10
0	1801	628.344425461908	11
0	1803	628.70192816574	12
0	1805	629.00796552618	13
0	1807	629.664016220109	14
0	1817	635.351823131567	10
0	1823	639.19550397894	10
0	1837	645.142043571769	8
0	1839	646.423372554064	9
0	1848	648.970948771836	9
0	1853	654.723805498018	7
0	1863	658.993126766506	6
0	1867	661.209503594834	5
0	1873	666.462149777307	5
0	1884	669.063551171369	2
0	1888	670.725667760595	2
0	1895	675.68686183647	1
0	1907	680.319592226533	1
0	1910	683.133124096804	1
0	1912	683.410316260545	2
0	1918	689.774223031322	1
0	1928	697.728547200488	1
0	1930	698.048644610796	2
0	1932	698.354239715719	3
0	1952	708.876719900953	1
0	1955	713.013848869097	1
0	1957	714.251409140806	2
0	1959	714.354293124067	3
0	1962	717.328736359796	3
0	1968	719.331138816705	3
0	1979	725.512666612146	1
0	1982	726.439130416401	1
0	1984	726.687127913844	2
0	1988	727.109821134973	3
0	1991	727.897497836245	4
0	1996	732.747960169894	2
0	1998	733.160249702208	3
0	2002	734.440339727218	2
0	2010	737.003502858583	3
0	2018	739.324484543782	4
0	2024	741.788852252381	4
0	2031	743.351153443884	5
0	2036	744.610296774202	4
0	2048	751.469911442542	3
0	2055	753.853615581139	4
0	2058	754.268228609532	5
0	2065	756.751130396905	5
0	2070	758.345337646065	3
0	2072	758.380028578711	4
0	2079	759.660209720271	5
0	2093	768.814744233042	1
0	2095	769.126979965969	2
0	2097	769.4001053481	3
0	2105	772.290062208685	1
0	2108	773.177405022268	1
0	2111	776.533508734229	1
0	2120	780.546140962278	1
0	2123	781.342559706749	1
0	2132	784.545030996229	1
0	2135	784.902360868364	1
0	2138	788.783053883094	1
0	2140	789.399397982373	2
0	2152	791.552094285011	3
0	2157	792.315291367542	4
0	2171	799.895948515114	1
0	2173	801.595939868497	2
0	2178	801.898864341581	3
0	2180	802.219412804413	4
0	2186	804.421025730083	4
0	2190	805.726590878745	3
0	2199	811.006337767367	2
0	2207	817.04737484019	1
0	2210	817.740171317265	1
0	2218	821.768037780759	2
0	2222	824.930460089071	1
0	2225	828.081123098253	1
0	2240	834.349876760702	1
0	2252	838.610452466523	1
0	2255	839.132566137013	1
0	2257	839.243565313644	2
0	2259	840.8464537475	3
0	2262	841.136151454799	3
0	2266	841.393024356683	2
0	2269	842.47576016897	2
0	2272	842.93384201588	2
0	2274	844.095448214148	3
0	2276	844.137714761932	4
0	2278	846.049817879238	5
0	2282	847.244971407569	6
0	2284	847.686138651533	7
0	2287	848.402521222964	8
0	2304	854.244134689592	5
0	2309	855.174252669271	4
0	2313	856.708116623366	3
0	2315	856.711745359306	4
0	2321	858.353621685509	4
0	2327	859.252046902873	4
0	2329	859.779371097949	5
0	2331	860.12338319866	6
0	2334	860.826038841848	6
0	2339	862.28934905543	4
0	2345	864.860622089355	4
0	2349	865.962775917718	5
0	2355	868.578981562274	6
0	2357	869.382541793338	7
0	2359	869.853345771136	8
0	2361	871.173640101981	9
0	2363	871.273649183988	10
0	2367	874.402357183759	9
0	2375	878.005044330828	7
0	2377	878.630182936006	8
0	2390	884.084000404355	7
0	2395	885.596688476992	7
0	2398	886.4470572261	8
0	2401	887.707864664105	8
0	2403	888.018184438496	9
0	2408	891.194481727394	9
0	2411	893.323003102756	10
0	2422	896.255135190157	10
0	2424	896.31578992866	11
0	2435	900.877287626827	10
0	2442	904.124955285715	9
0	2445	907.914006777284	9
0	2447	909.987247479558	10
0	2452	911.372198179456	10
0	2457	913.606997969753	9
0	2460	914.253736374148	9
0	2463	914.853445994614	9
0	2468	917.821232088802	7
0	2487	923.270018371623	6
0	2490	925.102247176236	6
0	2494	925.52751898783	5
0	2499	925.807179083471	6
0	2501	926.17534514378	7
0	2503	926.979279473864	8
0	2505	927.73389557904	9
0	2508	929.845397208074	9
0	2510	931.29441292453	10
0	2512	931.827772852071	11
0	2522	935.137836573552	9
0	2526	936.362722328819	10
0	2539	940.427364455133	11
0	2543	941.753850412199	10
0	2545	941.894100542891	11
0	2558	949.757977196911	12
0	2561	950.421910008551	13
0	2563	951.459525552539	14
0	2573	952.761092210989	12
0	2575	953.008748077497	13
0	2577	954.149966894343	14
0	2583	955.894684961629	15
0	2585	956.818365757897	16
0	2587	957.92687604716	17
0	2589	958.8168787867	18
0	2595	961.195403434709	15
0	2599	962.349948259567	14
0	2601	963.44451606246	15
0	2608	966.33982461346	14
0	2622	973.053040239806	9
0	2624	973.487156821228	10
0	2631	976.472287942069	6
0	2633	976.819333149867	7
0	2635	978.024388556663	8
0	2646	981.039675386367	6
0	2649	982.496107674047	6
0	2652	983.678170463022	6
0	2654	984.248743122552	7
0	2656	985.451250225997	8
0	2665	992.337776609968	8
0	2667	993.172044609635	9
0	2669	993.283311689823	10
0	2676	994.662577040158	11
0	2695	1000.382468048403	11
0	2703	1002.817265234716	11
0	2706	1003.733563908997	12
0	2708	1003.857245581907	13
0	2715	1005.650928824973	12
0	2717	1007.806573468089	13
0	2733	1015.073009825384	9
0	2740	1018.176690985747	5
0	2742	1018.698530206308	6
0	2744	1019.398866452873	7
0	2746	1019.745561453675	8
0	2753	1021.635389730762	9
0	2758	1022.482369219408	10
0	2760	1022.697214342563	11
0	2763	1022.755080481365	12
0	2774	1024.828314818168	13
0	2783	1029.681237300665	13
0	2802	1035.447633508634	11
0	2806	1039.112566899709	11
0	2808	1040.12874527416	12
0	2810	1040.23633397198	13
0	2816	1042.568030689577	10
0	2828	1046.595874006686	10
0	2840	1049.74552129939	10
0	2844	1050.05149547332	11
0	2854	1053.257863441796	11
0	2858	1054.34988771578	12
0	2860	1054.41463591084	13
0	2870	1058.382282540063	12
0	2876	1059.438125720733	13
0	2887	1063.404033822717	14
0	2889	1063.74633075945	15
0	2891	1063.968789678336	16
0	2896	1065.890414413557	17
0	2898	1066.975519260641	18
0	2901	1067.212739628997	18
0	2908	1068.559067214132	18
0	2912	1070.238848979427	19
0	2917	1072.788772250291	20
0	2922	1074.981703594754	21
0	2925	1076.012894331921	21
0	2940	1081.22712209235	21
0	2952	1088.790163276156	18
0	2959	1092.226449555418	17
0	2966	1093.521823718045	18
0	2970	1094.817245963412	18
0	2972	1095.387977452299	19
0	2974	1096.862992667472	20
0	2990	1102.086735841158	18
0	3000	1107.827201987547	17
0	3004	1108.49262916002	17
0	3007	1110.85131744243	17
0	3010	1111.921424263934	17
0	3012	1111.951634830922	18
0	3014	1113.252073675681	19
0	3016	1114.754924493296	20
0	3024	1115.858331320702	21
0	3026	1116.113668562735	22
0	3028	1116.500967163934	23
0	3031	1117.338940370258	23
0	3036	1118.420007869862	21
0	3038	1118.750526611834	22
0	3043	1120.382207718914	23
0	3045	1120.702193369017	24
0	3055	1122.881213380459	22
0	3061	1123.671288745306	23
0	3065	1125.270563988375	22
0	3070	1127.088492105518	22
0	3074	1130.432549614016	22
0	3077	1132.131342169629	22
0	3082	1134.256069084793	22
0	3085	1134.526188422582	23
0	3087	1135.896799424599	24
0	3093	1138.037828189323	21
0	3095	1138.256520188788	22
0	3099	1138.430295274727	23
0	3102	1139.032193731305	24
0	3118	1144.318727841796	23
0	3135	1149.937367444044	24
0	3137	1150.876266693181	25
0	3146	1153.744309614204	25
0	3149	1154.464608760297	25
0	3151	1155.681831090352	26
0	3157	1160.612351049507	26
0	3161	1160.799234163918	27
0	3186	1176.114345407969	21
0	3200	1182.787111876175	19
0	3206	1184.458979721086	18
0	3214	1187.737559406101	17
0	3227	1191.771298357114	16
0	3232	1192.546165400697	14
0	3234	1192.762652936184	15
0	3244	1195.268137025098	11
0	3247	1196.207615662492	11
0	3249	1196.290295551994	12
0	3255	1197.784411315812	11
0	3257	1197.963611268661	12
0	3259	1198.149311331036	13
0	3267	1199.803057305654	12
0	3269	1200.118047330554	13
0	3271	1201.460965679545	14
0	3273	1201.524386280429	15
0	3275	1202.017210656927	16
0	3281	1204.194326124363	16
0	3289	1207.19148177803	14
0	3294	1208.577797928492	12
0	3299	1210.697999475242	13
0	3301	1211.17693280295	14
0	3303	1212.291227927629	15
0	3305	1212.316350321273	16
0	3309	1213.750964711111	15
0	3311	1216.378283450697	16
0	3313	1216.475002144902	17
0	3325	1220.736421198433	17
0	3327	1221.61121501344	18
0	3334	1224.145535669717	17
0	3336	1225.258547856503	18
0	3341	1227.670586378041	19
0	3346	1230.654934452391	20
0	3349	1231.802330967698	20
0	3354	1233.532624686539	20
0	3365	1237.364051023338	21
0	3368	1239.026430916402	22
0	3370	1239.051368174	23
0	3372	1239.109216499021	24
0	3380	1242.781688591171	22
0	3382	1243.62226265909	23
0	3390	1245.630000593783	24
0	3402	1250.854504372642	24
0	3409	1252.767303193683	25
0	3412	1253.03225831959	26
0	3416	1255.177662484475	25
0	3420	1256.703887078806	26
0	3423	1257.316369380712	27
0	3429	1260.81280804365	26
0	3432	1262.129715140192	27
0	3435	1263.426297847351	27
0	3445	1271.572972824355	23
0	3447	1273.404929544378	24
0	3452	1275.365491909737	25
0	3454	1275.573254433301	26
0	3456	1275.870674801581	27
0	3458	1275.966358317743	28
0	3468	1278.01788930232	27
0	3470	1278.118402058491	28
0	3476	1279.896489725561	29
0	3478	1280.59044385175	30
0	3484	1283.090972810866	31
0	3490	1285.169305672246	32
0	3492	1285.27339152535	33
0	3495	1286.551937880918	33
0	3497	1286.560707465321	34
0	3500	1287.581667722276	34
0	3502	1287.633032988525	35
0	3506	1290.097628730998	34
0	3510	1291.299214696271	35
0	3513	1291.677008103265	36
0	3516	1294.076088836786	36
0	3535	1300.853647600723	37
0	3540	1302.119123318712	38
0	3543	1302.741808277619	39
0	3545	1302.764258527574	40
0	3549	1303.324869224692	39
0	3555	1305.088418887342	40
0	3557	1305.320787830525	41
0	3563	1307.01404460577	42
0	3577	1310.046026212173	41
0	3579	1311.154073416216	42
0	3583	1314.654758257381	41
0	3585	1315.31554244664	42
0	3593	1316.963375465642	43
0	3599	1318.043767895967	43
0	3612	1322.397757041912	44
0	3615	1323.058554837376	45
0	3623	1324.458243033296	46
0	3631	1326.45486050259	47
0	3633	1326.613493609041	48
0	3640	1329.185027856895	48
0	3645	1330.445999274186	49
0	3658	1334.027846285199	49
0	3661	1335.575561402265	50
0	3663	1335.680843860728	51
0	3665	1335.938519981091	52
0	3672	1339.175687916043	51
0	3680	1344.518830075693	52
0	3689	1349.279959650824	52
0	3695	1351.246309341875	52
0	3697	1351.810293022733	53
0	3706	1354.09045507698	50
0	3708	1354.700433432923	51
0	3714	1356.718440283887	50
0	3716	1357.643603583121	51
0	3718	1357.700495342103	52
0	3720	1358.012491932447	53
0	3724	1360.25397592249	53
0	3726	1360.956806613592	54
0	3731	1362.030118736874	55
0	3740	1364.657638292797	56
0	3757	1371.318319845384	56
0	3759	1371.628727110371	57
0	3771	1376.655130115413	56
0	3774	1377.416319914933	57
0	3778	1383.831816466923	58
0	3781	1384.888140559846	59
0	3783	1385.565442893832	60
0	3785	1385.978907109352	61
0	3787	1386.183176999479	62
0	3789	1387.480261131934	63
0	3793	1387.733849910766	62
0	3796	1389.533814732048	62
0	3805	1393.14580605056	62
0	3808	1393.458193651214	62
0	3817	1398.523451041158	62
0	3832	1401.268284301205	61
0	3846	1404.809903318757	60
0	3848	1405.369776204882	61
0	3850	1405.435260213716	62
0	3857	1409.305184417156	61
0	3863	1411.066294512707	61
0	3869	1411.840532484695	61
0	3878	1415.169554311275	61
0	3880	1415.823672310973	62
0	3883	1416.862987530584	62
0	3888	1420.979206866373	60
0	3893	1423.73547861592	60
0	3908	1430.739279640359	58
0	3916	1434.935775546269	56
0	3918	1436.076833218335	57
0	3920	1436.251099235357	58
0	3931	1437.703544891593	56
0	3934	1439.361097489104	56
0	3938	1441.141885029872	57
0	3940	1441.231798266325	58
0	3945	1443.105121601447	57
0	3948	1445.24399404996	57
0	3951	1446.31283751319	57
0	3956	1448.018156625139	58
0	3958	1448.363257263924	59
0	3962	1448.93199759364	60
0	3965	1450.22183908608	61
0	3969	1451.962409755928	60
0	3971	1452.847520776694	61
0	3975	1453.73655856902	60
0	3981	1455.574362329816	60
0	3987	1460.824415828998	57
0	3990	1462.100583106755	57
0	3994	1462.953964058744	56
0	3998	1464.446782991135	57
0	4005	1466.60803924307	57
0	4007	1467.958308762498	58
0	4030	1479.899989876961	49
0	4032	1480.186092105154	50
0	4034	1480.552972205815	51
0	4037	1481.354884187188	52
0	4046	1484.678920344221	52
0	4051	1488.163116338546	53
0	4053	1488.164396629935	54
0	4056	1490.005639707194	54
0	4063	1494.928696382316	53
0	4068	1496.345442265057	51
0	4070	1496.70637529705	52
0	4080	1501.806233148979	48
0	4091	1504.694331291264	47
0	4095	1504.942062950954	48
0	4110	1514.355423948538	42
0	4113	1519.113823834065	42
0	4117	1520.758183837935	43
0	4120	1522.52066535163	44
0	4122	1523.218327490786	45
0	4125	1525.0940119519	45
0	4141	1529.714533493016	44
0	4143	1529.790513552015	45
0	4151	1532.492170037586	46
0	4166	1538.267834658551	46
0	4168	1538.685751310915	47
0	4172	1539.068678479459	48
0	4179	1546.081280946549	47
0	4182	1548.387889077913	48
0	4184	1548.419026478132	49
0	4191	1548.860774286802	50
0	4194	1549.192857728645	51
0	4196	1549.410351292031	52
0	4198	1550.356041215909	53
0	4209	1553.762934105839	51
0	4218	1557.486447653248	51
0	4224	1559.953568498649	51
0	4234	1563.087813930236	50
0	4237	1565.393239557006	50
0	4242	1567.959649672651	48
0	4244	1568.033505551338	49
0	4247	1570.337469043614	49
0	4250	1572.070310620803	49
0	4252	1572.137266690865	50
0	4254	1572.399235801314	51
0	4257	1573.045628770399	51
0	4261	1576.91589545488	50
0	4265	1577.109268427784	49
0	4277	1580.331611695659	47
0	4284	1582.25456170096	48
0	4292	1584.998933292617	46
0	4300	1587.138052813264	47
0	4305	1588.544888603571	48
0	4313	1590.412108262892	48
0	4316	1591.120426900904	49
0	4319	1592.021864696446	49
0	4321	1592.699793256535	50
0	4329	1598.687834193087	48
0	4332	1599.574018421062	48
0	4356	1609.021500343512	48
0	4368	1616.921123839707	45
0	4375	1618.057251052558	46
0	4379	1619.213477620934	46
0	4384	1620.718094406765	47
0	4386	1621.336690832771	48
0	4391	1622.980734434868	46
0	4397	1624.943691511799	46
0	4402	1625.931698318389	47
0	4404	1626.637817692106	48
0	4419	1634.581556655542	45
0	4424	1637.424225791199	43
0	4433	1639.833802232672	43
0	4435	1640.639582356077	44
0	4437	1642.147518679091	45
0	4441	1643.784274775431	44
0	4446	1644.480147283383	45
0	4451	1646.99533285532	45
0	4457	1648.460968926144	46
0	4466	1653.524499137024	43
0	4475	1656.619867371608	43
0	4477	1656.822785011041	44
0	4479	1657.098146691259	45
0	4482	1658.918046527749	45
0	4495	1662.429523078705	46
0	4501	1663.455907985004	47
0	4503	1664.47724165316	48
0	4505	1665.100648284173	49
0	4511	1665.903412073358	49
0	4519	1672.182783424486	50
0	4521	1673.321400569015	51
0	4523	1674.213811396727	52
0	4530	1675.749606330089	53
0	4537	1679.252569797338	53
0	4539	1679.797494023334	54
0	4541	1679.988943975959	55
0	4545	1682.189006167857	54
0	4549	1684.512035200097	53
0	4551	1684.868317986914	54
0	4553	1685.44259163933	55
0	4556	1685.914476360394	55
0	4560	1686.688615858882	56
0	4563	1687.124193923054	57
0	4572	1689.488279902992	57
0	4575	1689.764423313228	57
0	4584	1692.314213631552	57
0	4590	1693.157515334065	57
0	4592	1693.288895426593	58
0	4597	1695.354540452737	59
0	4612	1701.241478438284	55
0	4617	1704.732536550219	54
0	4619	1705.261119111913	55
0	4622	1705.9498545423	55
0	4626	1706.34926125536	56
0	4629	1707.921876411173	57
0	4636	1712.609994617473	53
0	4640	1713.894788685406	54
0	4646	1716.3855986301	55
0	4648	1717.057690775861	56
0	4651	1718.415716762707	56
0	4660	1721.899607654963	56
0	4672	1723.927292278406	53
0	4676	1725.515154660622	52
0	4679	1726.276116818792	52
0	4682	1726.568593016577	52
0	4685	1727.30653095938	52
0	4690	1730.953832841286	53
0	4698	1732.469515834351	53
0	4704	1733.272616635205	54
0	4706	1733.860279239606	55
0	4712	1735.306942196722	55
0	4715	1737.032547321286	55
0	4718	1738.23931847092	55
0	4723	1739.620052384893	56
0	4729	1740.270760649149	56
0	4731	1740.635035977596	57
0	4734	1741.617573187974	57
0	4737	1742.180372748075	57
0	4745	1746.066393139497	58
0	4747	1747.271142582583	59
0	4750	1748.072292609609	59
0	4752	1748.185055043514	60
0	4758	1752.292433273136	59
0	4760	1752.514474979683	60
0	4768	1754.862580597084	59
0	4780	1756.593533724186	58
0	4783	1756.946889946211	59
0	4789	1758.372611291501	59
0	4793	1759.041954477254	60
0	4795	1759.130461021375	61
0	4799	1759.703724807828	61
0	4812	1763.635497298697	59
0	4818	1765.648211972614	60
0	4821	1767.288523055248	60
0	4825	1768.574194309319	61
0	4844	1775.184490122884	58
0	4849	1775.518932375529	59
0	4855	1777.730936703723	59
0	4857	1778.019126358187	60
0	4860	1780.999936151928	60
0	4862	1781.563383347112	61
0	4866	1782.412384257806	62
0	4875	1787.368188175843	60
0	4877	1787.875703191735	61
0	4884	1790.931985440396	60
0	4888	1793.554259484438	59
0	4890	1793.598777262576	60
0	4892	1793.97819607753	61
0	4896	1798.641713710091	60
0	4898	1800.369896457942	61
0	4913	1804.80644686908	60
0	4920	1808.749073256174	57
0	4922	1808.958759133439	58
0	4925	1810.198325675556	58
0	4927	1810.837165758891	59
0	4956	1818.057961835401	58
0	4959	1818.510285142963	59
0	4962	1822.611173444185	60
0	4964	1823.104598042454	61
0	4966	1823.111896329773	62
0	4972	1824.466145705942	62
0	4974	1825.453634403874	63
0	4978	1827.457100804171	62
0	4980	1827.517981013735	63
0	4986	1829.643556692935	63
0	4998	1831.416323951507	63
0	5018	1838.775625239864	61
0	5020	1840.696011214153	62
0	5028	1842.205240363978	63
0	5037	1846.345167595289	60
0	5042	1849.67909996765	58
0	5044	1850.436753155232	59
0	5051	1852.112498088644	58
0	5062	1857.177125278574	56
0	5081	1865.26530318725	57
0	5088	1868.610057932735	57
0	5093	1870.925828180928	55
0	5098	1872.772008762479	55
0	5102	1874.09741383846	55
0	5105	1875.18910479324	55
0	5107	1875.832060382086	56
0	5111	1877.788645719403	57
0	5115	1878.119248205645	57
0	5126	1882.158553433706	57
0	5130	1884.17644066644	57
0	5132	1884.919574941282	58
0	5142	1886.941717777266	56
0	5152	1891.227515066555	56
0	5166	1900.09718292159	54
0	5175	1903.544675377352	54
0	5181	1905.846235097737	54
0	5183	1906.15747187102	55
0	5188	1907.674605871787	56
0	5192	1908.48861702926	57
0	5195	1909.24792452322	58
0	5207	1911.785156147359	58
0	5209	1911.937520401663	59
0	5211	1912.493347367119	60
0	5213	1912.817399263552	61
0	5217	1913.273847423226	62
0	5221	1914.28392535683	62
0	5223	1915.951299456762	63
0	5225	1916.385628216455	64
0	5237	1924.419812654487	58
0	5239	1924.547843780133	59
0	5241	1925.039978926894	60
0	5246	1926.314135827241	58
0	5254	1930.396613974538	58
0	5256	1930.752540551861	59
0	5267	1936.339824454572	58
0	5279	1943.641132279836	58
0	5289	1948.348780451219	57
0	5291	1948.37770879422	58
0	5293	1949.698593029844	59
0	5301	1951.823246890275	60
0	5307	1955.883650089259	57
0	5310	1957.701512127139	57
0	5317	1960.364281420032	56
0	5325	1964.133662822541	57
0	5337	1967.224710776089	57
0	5353	1972.199877184988	56
0	5355	1973.028784060888	57
0	5357	1973.671710152628	58
0	5362	1974.737149660747	59
0	5364	1975.582817796601	60
0	5370	1981.722664414494	57
0	5376	1984.852415661192	57
0	5390	1990.890645886703	56
0	5395	1994.027003056214	56
0	5401	1995.749357783185	55
0	5404	1996.878761161819	56
0	5411	1999.777936996803	55
1	0	0	0
1	5	3.740016832111	0
1	6	4.176352099256	0
1	8	4.818254183641	0
1	10	5.036968673065	1
1	14	5.419459801629	2
1	16	5.466882314406	3
1	18	5.688175178909	3
1	19	5.70730744044	2
1	21	5.75932704352	2
1	22	5.905193402953	2
1	26	8.37505816102	1
1	27	9.754824644814	0
1	29	9.974643181886	0
1	36	12.289241722017	1
1	40	12.571362746916	2
1	45	13.602358803936	3
1	49	15.363869504504	4
1	51	15.967824576575	5
1	53	16.176496883532	6
1	54	16.48237360446	6
1	55	17.614365379776	5
1	59	18.111534510044	4
1	60	18.408435009006	3
1	61	19.549864457451	2
1	63	20.005853306355	2
1	64	21.508032784084	2
1	69	23.166756001946	2
1	73	24.213390322272	2
1	74	24.775415517794	1
1	82	26.264983105539	1
1	86	26.38368799553	2
1	88	26.425035767122	3
1	91	27.950480727605	4
1	92	29.157796670784	4
1	94	29.991615878223	4
1	96	30.456588790605	5
1	98	30.773978174019	6
1	99	31.026403750764	6
1	101	31.288657149976	6
1	103	32.019656319919	7
1	104	32.067827032623	7
1	106	32.459353505117	7
1	108	34.04663492023	8
1	110	34.047646490342	9
1	120	36.118608763658	10
1	123	38.245329272095	11
1	124	38.78496550637	11
1	125	38.926746994772	10
1	126	39.890490547188	9
1	127	40.354001311541	8
1	128	40.846957236745	7
1	129	42.145691474717	6
1	131	42.509897417776	6
1	135	43.433009341984	7
1	144	45.052113590097	8
1	152	46.205358299849	9
1	160	47.765926681919	10
1	164	48.853896969118	10
1	166	49.522251414869	10
1	167	49.587124629677	10
1	168	49.930730510901	9
1	170	50.70886910547	9
1	171	51.711294890097	9
1	173	51.764989314095	9
1	175	52.504610044282	10
1	179	55.687056512167	10
1	181	56.033355608038	10
1	182	56.879173349419	10
1	183	58.482299439327	9
1	185	59.334737774448	9
1	187	59.361248275649	10
1	188	62.107774697713	10
1	189	62.157305185007	9
1	193	63.067015479207	8
1	195	63.089573774917	8
1	196	64.077979687919	8
1	197	64.497333778032	7
1	199	64.792121698161	7
1	200	65.598539308517	7
1	201	65.697801883412	6
1	202	66.045556859724	5
1	203	66.854671547324	4
1	207	67.587129689853	4
1	210	67.741307727253	5
1	212	68.479378486018	6
1	214	69.309519184209	7
1	215	69.456617179073	7
1	216	70.221833902365	6
1	217	70.993568649538	5
1	219	71.214531541193	5
1	220	71.424077000591	5
1	224	73.541158826863	5
1	226	73.563796287665	6
1	232	74.855380424312	7
1	233	75.244702782363	7
1	234	76.157663538521	6
1	236	76.353139789621	6
1	240	78.282012074625	6
1	247	80.829360245811	5
1	249	81.200268157269	5
1	251	81.297905350062	6
1	252	82.14691808153	6
1	257	82.815565297178	6
1	258	83.156498577671	6
1	259	83.257027065334	5
1	263	85.258176628091	4
1	265	86.31535014263	4
1	267	86.359364682302	5
1	268	87.12976292686	5
1	269	87.9217605956	4
1	270	88.148212240106	3
1	274	89.395818243838	2
1	276	90.031114555356	2
1	278	91.592003509075	3
1	279	92.04419592323	3
1	280	94.0218210305	2
1	281	94.21733014586	1
1	282	95.168428566655	0
1	300	99.629356936074	0
1	303	100.515672456101	0
1	305	101.27392334202	0
1	306	102.018404120132	0
1	308	102.402038337845	0
1	319	106.903479645408	1
1	321	107.068025709804	2
1	323	107.261600693573	3
1	325	107.967593431043	4
1	326	109.133361938648	4
1	328	109.244050993464	4
1	333	110.616342642871	5
1	334	110.629826696948	5
1	336	111.229335842773	5
1	338	111.25401454299	6
1	340	111.933971176882	7
1	342	114.027197475399	8
1	353	116.64865194669	9
1	355	117.013902979966	10
1	359	117.554364625118	10
1	360	120.257291197849	9
1	362	121.466342763916	9
1	366	122.091603209312	9
1	368	122.214850718609	9
1	370	122.250749956327	10
1	371	122.323519703797	10
1	372	123.540728407367	9
1	373	123.62115090446	8
1	377	124.707930615376	8
1	380	126.036817394832	9
1	382	126.057330974824	10
1	383	126.367197980036	10
1	385	127.088563609432	10
1	387	127.942475676507	11
1	388	128.271736230581	11
1	390	129.70497434113	11
1	400	133.769463010193	11
1	401	134.49568492837	10
1	402	134.73037812355	9
1	406	136.569857700823	9
1	410	137.376218624535	10
1	412	138.286896196879	11
1	414	138.514103535513	12
1	420	141.959616728484	12
1	421	142.971481688495	11
1	422	143.384997135679	10
1	423	145.066326261275	9
1	425	145.14550075388	9
1	426	147.973529878779	9
1	427	148.626169152021	8
1	428	149.651721213312	7
1	429	150.075339761763	6
1	430	150.290563125032	5
1	431	151.575572851289	4
1	432	154.082487321789	3
1	434	154.243577519175	3
1	439	155.789943300939	4
1	440	155.903797523572	4
1	441	157.244722117924	3
1	445	160.917208977502	2
1	447	161.559407607029	2
1	449	161.999626568504	3
1	451	162.576792180804	4
1	455	164.356699783446	4
1	456	165.102719173982	3
1	458	166.456376765049	3
1	460	166.498306079337	4
1	461	167.168599690567	4
1	462	167.668463286464	3
1	464	170.24125259221	3
1	465	170.740661409973	3
1	467	171.740798239738	3
1	468	171.897090001856	3
1	469	172.665870907555	2
1	470	173.075980994519	1
1	471	173.209288681618	0
1	473	174.307601797683	0
1	475	174.315965367982	1
1	477	175.419266742639	2
1	478	175.787331597135	2
1	479	175.834072086561	1
1	480	176.38163971269	0
1	484	176.750559957161	0
1	488	177.395643898148	1
1	491	178.496154511141	1
1	495	178.948035249254	1
1	499	179.185148939588	2
1	505	180.495370726707	2
1	506	180.860057428423	1
1	516	184.816819992187	0
1	518	185.216972083951	0
1	519	185.497968427356	0
1	530	187.476929084882	0
1	531	188.545073728242	0
1	536	188.937103342677	0
1	537	188.989455796029	0
1	539	188.99735134135	0
1	541	189.28722981016	1
1	543	190.942986107788	2
1	545	191.555878612582	3
1	551	194.131162312583	4
1	554	194.820148675214	4
1	555	196.999342886337	3
1	556	197.461677614563	2
1	558	197.623243754532	2
1	566	200.255084998604	3
1	570	203.410440807188	3
1	571	204.55712653462	2
1	575	205.084308148851	2
1	577	209.016103910531	2
1	578	210.1291734053	1
1	582	210.86312870977	1
1	584	211.652902053117	1
1	585	212.043706873129	0
1	593	213.901329644933	0
1	594	214.100757912694	0
1	596	214.45916609306	0
1	597	216.654661935322	0
1	601	216.946744123094	0
1	603	217.161673488937	1
1	612	218.124027835508	2
1	614	218.92045223154	3
1	625	222.470708314704	4
1	629	223.35145226222	5
1	631	223.367566061441	6
1	633	224.394201253834	6
1	639	226.338295385044	6
1	643	227.503488183918	7
1	645	227.611410832723	8
1	646	228.142884705624	8
1	651	228.666990358763	8
1	652	228.803308500123	8
1	657	229.317697256217	8
1	668	231.647080912564	9
1	676	236.993038031684	10
1	677	237.283101146849	10
1	679	238.342272444699	10
1	681	238.519148994779	11
1	683	239.47193557522	12
1	687	240.480333527085	13
1	690	240.97544339973	14
1	698	244.778583410383	15
1	708	246.942305207055	16
1	710	246.977382607878	16
1	712	247.438444849751	16
1	720	250.089575728239	17
1	721	250.502376123375	17
1	728	253.371684211118	17
1	730	254.528309066166	17
1	735	257.682044268074	17
1	743	261.028931690496	18
1	744	261.627334838915	18
1	746	261.807789699259	18
1	747	262.786844826759	18
1	748	263.309825150728	17
1	750	263.719119984869	17
1	751	263.840644908422	17
1	752	264.990290070289	16
1	754	266.607557758456	16
1	755	268.681060711062	16
1	757	268.703078353276	16
1	758	269.900331049435	16
1	759	270.899690302182	15
1	760	271.076245776032	14
1	761	271.178671314876	13
1	762	271.819062279033	12
1	770	273.278356597637	12
1	772	273.401992173691	13
1	774	273.425147047909	14
1	775	274.466641069318	14
1	779	276.666427843082	14
1	784	278.437061315057	14
1	786	278.709336160513	14
1	790	279.952082507821	14
1	791	280.535394038454	13
1	793	282.504768784849	13
1	795	282.726021632897	14
1	799	283.357201632662	14
1	804	283.728994997411	14
1	806	286.443784964002	15
1	807	288.528167914813	15
1	808	288.849546411015	14
1	815	291.492531829896	13
1	817	291.582301095305	13
1	821	292.511426246165	13
1	822	292.716438418022	12
1	823	293.64303914147	11
1	824	294.46209118233	10
1	825	294.549718203009	9
1	830	295.334983060222	9
1	832	295.501089419048	10
1	833	295.680780356156	10
1	835	296.642220186811	10
1	837	299.210115079961	11
1	841	301.047912889996	11
1	843	301.071068902094	11
1	844	301.086757142506	11
1	846	301.513457940817	11
1	848	302.304839949429	12
1	852	302.883533589394	13
1	854	304.404181033178	14
1	856	304.54652816242	14
1	858	305.358845718003	14
1	859	307.078461432461	14
1	863	309.519634622966	13
1	864	311.334434422291	12
1	865	311.357314699936	11
1	867	312.136745914786	11
1	869	312.608088474251	12
1	871	312.96185104359	13
1	873	313.436452233673	14
1	877	313.838134533183	15
1	883	315.712651337579	16
1	884	317.188668911041	16
1	886	317.233763233546	16
1	887	317.636080710959	16
1	891	318.253111295522	16
1	893	318.554495998217	17
1	898	320.00488607997	18
1	900	320.336204491215	18
1	904	321.273116780657	18
1	909	323.056182639441	18
1	911	323.536686561184	18
1	912	323.571761223485	18
1	914	323.765583154124	18
1	916	324.315144618637	19
1	917	324.94823934117	19
1	921	325.386064224511	19
1	925	326.328036323279	20
1	928	327.006782413111	20
1	930	328.3061449616	20
1	932	328.737590808855	21
1	933	329.246744668927	21
1	934	329.854408330584	20
1	936	331.034436335629	20
1	937	331.190026240748	20
1	944	333.681343671427	20
1	946	334.229021256971	20
1	948	334.313176537083	20
1	950	334.894117303954	21
1	951	335.260127026866	21
1	952	336.532883929929	20
1	957	337.728519865861	20
1	959	338.002476830875	21
1	960	338.483840266165	21
1	964	338.912225935772	21
1	982	341.867127180983	22
1	983	343.616435298742	22
1	985	344.203260588232	22
1	986	344.958781625058	22
1	987	346.391028735077	21
1	992	348.205186274675	21
1	993	349.501304740922	21
1	995	349.729124716145	21
1	996	351.365811326233	21
1	998	351.399697374448	21
1	999	352.168311027741	21
1	1000	352.723584304078	20
1	1002	353.250540563379	20
1	1013	357.079200978242	21
1	1020	357.935955802881	22
1	1022	358.011404906639	23
1	1024	360.736075764109	23
1	1026	361.399515739635	23
1	1027	361.720673469528	23
1	1032	362.232416655615	23
1	1033	363.015765997665	23
1	1034	363.285374611004	22
1	1035	363.482405499115	21
1	1037	363.937290572175	21
1	1038	364.246380582076	21
1	1040	364.470841122021	21
1	1045	366.723506242498	22
1	1050	368.063683975574	23
1	1052	368.21738981461	24
1	1054	368.513067801654	25
1	1056	369.252220765229	26
1	1058	370.632134373423	27
1	1059	371.373545567626	27
1	1063	373.111612372064	27
1	1068	374.187139065686	27
1	1078	379.144116391192	26
1	1079	380.148159963568	25
1	1080	381.193558283483	24
1	1081	381.858218421133	23
1	1085	382.401834852166	22
1	1089	383.490829758036	21
1	1091	384.107637833477	21
1	1096	384.893618220577	22
1	1100	385.58127968818	23
1	1103	387.162398071877	24
1	1108	388.651376845974	25
1	1109	390.81535615466	25
1	1111	391.490681363923	25
1	1113	391.501536985105	26
1	1114	392.343657127668	26
1	1115	393.195217259643	25
1	1117	394.078012562749	25
1	1119	394.337039819692	26
1	1120	396.316150923573	26
1	1121	396.708819050545	25
1	1123	397.124573338553	25
1	1125	398.935696592227	26
1	1127	399.074878891897	27
1	1129	399.499399658885	28
1	1136	402.615848903461	28
1	1138	403.641322758182	28
1	1139	404.125409687494	28
1	1153	406.974382501226	28
1	1154	407.947261130358	28
1	1156	409.134631648147	28
1	1158	411.1409120609	29
1	1160	412.223972492412	30
1	1161	412.762987447226	30
1	1162	412.944368345718	29
1	1166	413.676369514261	28
1	1167	413.910297647766	27
1	1175	415.222662681729	27
1	1176	416.0001970313	27
1	1178	416.836821350663	27
1	1180	417.126692206988	28
1	1184	418.485126812265	28
1	1192	420.166906574342	28
1	1193	420.171647832091	28
1	1194	421.267830482149	27
1	1202	422.707814713146	27
1	1203	423.194252042389	27
1	1204	425.92125594184	26
1	1205	426.097306601523	25
1	1207	426.924230737357	25
1	1209	427.623810320838	26
1	1210	428.159721995631	26
1	1211	428.50096898333	25
1	1212	428.786181493767	24
1	1217	432.849925167106	24
1	1218	433.122159641796	24
1	1219	437.23259067986	23
1	1221	439.154866089493	23
1	1223	439.283869221388	24
1	1227	440.490026572079	25
1	1232	442.017821592096	25
1	1236	442.567078012636	24
1	1238	442.661203007217	24
1	1239	442.878844106155	24
1	1240	444.460928321347	23
1	1241	445.676598975067	22
1	1245	446.997571509311	22
1	1248	448.205969599639	23
1	1249	448.210580793038	23
1	1250	449.627645043288	22
1	1257	452.781122715655	21
1	1258	452.858123374398	20
1	1268	456.329911579684	19
1	1269	456.431849380547	18
1	1270	457.342375488308	17
1	1281	459.871363933756	17
1	1289	461.290483564459	18
1	1290	461.911418375325	18
1	1292	462.092654652597	18
1	1296	462.657536529773	19
1	1298	463.127964299928	19
1	1302	464.212412059653	19
1	1304	464.722663799978	20
1	1306	465.939413231614	20
1	1308	466.387376307385	20
1	1309	466.442870403348	20
1	1311	466.475711009717	20
1	1321	467.828293468516	20
1	1323	468.735717052398	20
1	1327	470.285142999991	21
1	1329	470.821179258757	21
1	1330	470.986097098047	20
1	1334	472.842007337819	19
1	1341	476.108731434961	18
1	1345	477.845978732976	17
1	1346	478.079682363541	16
1	1348	478.400236678066	16
1	1356	482.651039055512	17
1	1358	483.120199237293	18
1	1359	483.665800496301	18
1	1361	483.92983291869	18
1	1363	484.13102356515	19
1	1370	485.557989291131	19
1	1371	486.485290870765	18
1	1373	487.274678625499	18
1	1380	488.820471866329	18
1	1385	492.20866098027	18
1	1393	494.385472879703	19
1	1397	495.552274287112	19
1	1398	496.027757251436	18
1	1402	496.724708779868	17
1	1403	496.806477103182	16
1	1405	497.238494208374	16
1	1406	497.621175410445	16
1	1413	500.74641429131	16
1	1415	500.934962338272	17
1	1417	501.147002386674	18
1	1425	505.456855307477	18
1	1427	505.575492138256	18
1	1428	505.586762632346	18
1	1432	506.43257439295	17
1	1434	506.729963387964	17
1	1435	506.998022386492	17
1	1439	510.217974536393	16
1	1440	510.684231284091	15
1	1441	511.11721117578	14
1	1442	511.462584790816	13
1	1443	512.335271765068	12
1	1445	512.792718723566	12
1	1452	516.511880194697	13
1	1454	516.827978807486	13
1	1458	518.222256477471	12
1	1462	521.247488758629	11
1	1463	521.802297437599	10
1	1470	525.239583900376	9
1	1472	525.248962361845	9
1	1476	527.458003173562	9
1	1478	527.984549857456	9
1	1479	528.02371539479	9
1	1481	530.045644199603	9
1	1482	530.159209111666	9
1	1484	531.25993711779	9
1	1486	531.624326493365	10
1	1488	531.679776795372	11
1	1489	531.722709394834	11
1	1491	533.31563116289	11
1	1492	533.934434434575	11
1	1494	534.867906156011	11
1	1496	535.00244972447	12
1	1500	536.831787361668	12
1	1501	537.611425922474	11
1	1509	539.061145987989	11
1	1510	541.078850271414	11
1	1512	542.98861637908	11
1	1514	543.992987224166	12
1	1516	544.363732403582	13
1	1518	544.867819315916	14
1	1522	544.963660108092	15
1	1528	546.543935099828	16
1	1539	550.142608979051	17
1	1540	550.149691720508	17
1	1542	550.259329846522	17
1	1546	550.997478889138	17
1	1548	551.008127643647	17
1	1549	551.80055063071	17
1	1551	553.043091348806	17
1	1552	553.562748659255	17
1	1554	553.78027904519	17
1	1556	554.645499036311	18
1	1558	555.614307533745	19
1	1559	555.703010247348	19
1	1563	555.790083903081	19
1	1566	556.409958193095	20
1	1568	556.758962619517	21
1	1569	556.831397673725	21
1	1576	557.637783539101	21
1	1581	558.015501785581	22
1	1583	558.477435590713	23
1	1585	559.256639002271	23
1	1586	559.290125653498	22
1	1587	559.960460180151	21
1	1588	560.558509417268	20
1	1589	560.942769379225	19
1	1599	563.680689403725	18
1	1600	563.964054468338	17
1	1607	565.837070893289	17
1	1609	565.853574945613	18
1	1612	568.094353515021	19
1	1616	568.996137486286	19
1	1621	570.158060393744	19
1	1622	570.695181340281	19
1	1623	571.036013958085	18
1	1624	571.687842136211	17
1	1626	571.705186321501	17
1	1627	572.715527762435	17
1	1629	576.312346106108	17
1	1633	577.255282033776	17
1	1635	577.813329322204	17
1	1636	578.950777210808	17
1	1637	578.999784677851	16
1	1651	581.953282443768	16
1	1652	582.569698145894	16
1	1654	583.139274160895	16
1	1655	583.290419100943	16
1	1659	584.132797720615	16
1	1662	584.647521112548	17
1	1664	584.774498555162	18
1	1665	584.936746143249	18
1	1667	585.265797832095	18
1	1668	585.711275104702	18
1	1675	587.301329859896	17
1	1676	588.650526810336	16
1	1677	589.423754993918	15
1	1678	589.858014131964	14
1	1682	591.466362418018	13
1	1690	594.018879099602	13
1	1691	594.327547524464	13
1	1692	594.597465570906	12
1	1696	596.631650131511	11
1	1700	597.322693894796	11
1	1702	597.824004873191	11
1	1703	598.556390892475	10
1	1705	599.302088884292	10
1	1709	600.00520586672	10
1	1711	600.057156335475	10
1	1712	602.055197518977	10
1	1716	605.686295689335	10
1	1726	609.054194217764	11
1	1732	611.096434569127	11
1	1734	611.327347025711	11
1	1735	611.406534590947	11
1	1739	612.225558683681	11
1	1741	612.231331588074	12
1	1743	613.825117767286	13
1	1748	615.2297881245	14
1	1750	616.033975206146	14
1	1755	618.220727449005	14
1	1760	619.078519949059	15
1	1764	619.573461611336	16
1	1766	621.002377467242	16
1	1768	621.370812493389	16
1	1770	621.658396201951	17
1	1775	622.526157114214	18
1	1776	622.646259506073	18
1	1777	623.058531830663	17
1	1779	623.401024145199	17
1	1783	623.764043622626	17
1	1787	624.607019864257	16
1	1788	624.610027522343	15
1	1789	624.684708670906	14
1	1790	625.013481146066	13
1	1791	625.015161126813	12
1	1792	625.156880673331	11
1	1793	625.939924612959	10
1	1794	626.665115458336	9
1	1796	626.951283745658	9
1	1801	628.344425461908	10
1	1803	628.70192816574	11
1	1805	629.00796552618	12
1	1807	629.664016220109	13
1	1808	630.155265038477	13
1	1809	630.982019183443	12
1	1810	631.412324895276	11
1	1814	634.353855720232	10
1	1815	635.334896819667	9
1	1817	635.351823131567	9
1	1821	637.426133022075	9
1	1823	639.19550397894	9
1	1827	641.185335011971	9
1	1831	642.315342847918	8
1	1835	644.718572425012	7
1	1837	645.142043571769	7
1	1839	646.423372554064	8
1	1840	647.409262929951	8
1	1848	648.970948771836	8
1	1849	650.36611800395	8
1	1850	651.918305630797	7
1	1851	652.063877939648	6
1	1853	654.723805498018	6
1	1857	656.053570616909	6
1	1861	658.068056646111	5
1	1863	658.993126766506	5
1	1864	660.20561901925	5
1	1865	660.314809773476	4
1	1867	661.209503594834	4
1	1868	662.576388589323	4
1	1873	666.462149777307	4
1	1874	666.494746091632	4
1	1875	666.511086510838	3
1	1879	667.895514649526	2
1	1880	668.846251097914	1
1	1884	669.063551171369	1
1	1886	670.264151712761	1
1	1888	670.725667760595	1
1	1889	673.875101725713	1
1	1890	674.798615058629	0
1	1895	675.68686183647	0
1	1896	676.23923364358	0
1	1907	680.319592226533	0
1	1908	680.405012095308	0
1	1910	683.133124096804	0
1	1912	683.410316260545	1
1	1913	683.65402577078	1
1	1914	684.669682292058	0
1	1918	689.774223031322	0
1	1920	692.091341038524	0
1	1928	697.728547200488	0
1	1930	698.048644610796	1
1	1932	698.354239715719	2
1	1936	700.453836030855	2
1	1937	700.457496192833	1
1	1941	703.035515625245	0
1	1952	708.876719900953	0
1	1953	711.979710370656	0
1	1955	713.013848869097	0
1	1957	714.251409140806	1
1	1959	714.354293124067	2
1	1960	716.54229528396	2
1	1962	717.328736359796	2
1	1963	717.351898263327	2
1	1968	719.331138816705	2
1	1972	722.27232490952	2
1	1973	722.923968107072	1
1	1974	722.937549419642	0
1	1979	725.512666612146	0
1	1980	725.956143892028	0
1	1982	726.439130416401	0
1	1984	726.687127913844	1
1	1988	727.109821134973	2
1	1991	727.897497836245	3
1	1992	729.41180227827	3
1	1993	729.689355858189	2
1	1994	730.393529767833	1
1	1996	732.747960169894	1
1	1998	733.160249702208	2
1	1999	733.724476219906	2
1	2000	734.307007423038	1
1	2002	734.440339727218	1
1	2010	737.003502858583	2
1	2018	739.324484543782	3
1	2022	741.714422539226	3
1	2024	741.788852252381	3
1	2031	743.351153443884	4
1	2033	744.39554302532	4
1	2034	744.413365043922	3
1	2036	744.610296774202	3
1	2037	746.433612323838	3
1	2044	750.54073301954	2
1	2048	751.469911442542	2
1	2055	753.853615581139	3
1	2058	754.268228609532	4
1	2060	756.049355488291	4
1	2065	756.751130396905	4
1	2066	757.473858507048	4
1	2067	757.717421200555	3
1	2068	757.734412366467	2
1	2070	758.345337646065	2
1	2072	758.380028578711	3
1	2079	759.660209720271	4
1	2084	761.911125285903	4
1	2085	762.335987903908	3
1	2086	762.53514076088	2
1	2087	762.96639752517	1
1	2088	765.285933523197	0
1	2093	768.814744233042	0
1	2095	769.126979965969	1
1	2097	769.4001053481	2
1	2098	770.583532969741	2
1	2102	771.720354561241	1
1	2103	772.233309408078	0
1	2105	772.290062208685	0
1	2106	773.149082809108	0
1	2108	773.177405022268	0
1	2109	773.27256985862	0
1	2111	776.533508734229	0
1	2112	776.586239347279	0
1	2120	780.546140962278	0
1	2121	780.798841683471	0
1	2123	781.342559706749	0
1	2130	782.964934229943	0
1	2132	784.545030996229	0
1	2133	784.829305769349	0
1	2135	784.902360868364	0
1	2136	785.517611685004	0
1	2138	788.783053883094	0
1	2140	789.399397982373	1
1	2152	791.552094285011	2
1	2157	792.315291367542	3
1	2160	794.930428351088	3
1	2167	798.29753477512	2
1	2168	799.18226578378	1
1	2169	799.597147502975	0
1	2171	799.895948515114	0
1	2173	801.595939868497	1
1	2178	801.898864341581	2
1	2180	802.219412804413	3
1	2184	802.812506244254	3
1	2186	804.421025730083	3
1	2187	804.843002047089	3
1	2188	805.137702211696	2
1	2190	805.726590878745	2
1	2191	806.0992993499	2
1	2192	806.594460664858	1
1	2199	811.006337767367	1
1	2201	813.549676542979	1
1	2205	816.240990047218	0
1	2207	817.04737484019	0
1	2208	817.688900813548	0
1	2210	817.740171317265	0
1	2218	821.768037780759	1
1	2219	822.036708099442	1
1	2220	822.358566086169	0
1	2222	824.930460089071	0
1	2223	825.36746669227	0
1	2225	828.081123098253	0
1	2226	828.288991604492	0
1	2240	834.349876760702	0
1	2241	834.414114073143	0
1	2252	838.610452466523	0
1	2253	838.881119671434	0
1	2255	839.132566137013	0
1	2257	839.243565313644	1
1	2259	840.8464537475	2
1	2260	841.045095834923	2
1	2262	841.136151454799	2
1	2263	841.213264776637	2
1	2264	841.374609000786	1
1	2266	841.393024356683	1
1	2267	841.472792242117	1
1	2269	842.47576016897	1
1	2270	842.875079536268	1
1	2272	842.93384201588	1
1	2274	844.095448214148	2
1	2276	844.137714761932	3
1	2278	846.049817879238	4
1	2282	847.244971407569	5
1	2284	847.686138651533	6
1	2287	848.402521222964	7
1	2294	850.835181120467	7
1	2295	850.910424826964	6
1	2296	851.506350410332	5
1	2297	851.799678306875	4
1	2304	854.244134689592	4
1	2306	855.043917925413	4
1	2307	855.092242028689	3
1	2309	855.174252669271	3
1	2310	855.909954826528	3
1	2311	856.262140363617	2
1	2313	856.708116623366	2
1	2315	856.711745359306	3
1	2316	857.213760186455	3
1	2321	858.353621685509	3
1	2325	858.720980214231	3
1	2327	859.252046902873	3
1	2329	859.779371097949	4
1	2331	860.12338319866	5
1	2332	860.622173274029	5
1	2334	860.826038841848	5
1	2335	861.004372269486	5
1	2336	861.685928346097	4
1	2337	861.794125817606	3
1	2339	862.28934905543	3
1	2343	864.288431695679	3
1	2345	864.860622089355	3
1	2349	865.962775917718	4
1	2355	868.578981562274	5
1	2357	869.382541793338	6
1	2359	869.853345771136	7
1	2361	871.173640101981	8
1	2363	871.273649183988	9
1	2364	873.002082052174	9
1	2365	874.119624225221	8
1	2367	874.402357183759	8
1	2368	874.919632997359	8
1	2372	876.293586638995	7
1	2373	877.00741583669	6
1	2375	878.005044330828	6
1	2377	878.630182936006	7
1	2378	878.87557361817	7
1	2388	883.621325428776	6
1	2390	884.084000404355	6
1	2391	884.395768122785	6
1	2395	885.596688476992	6
1	2398	886.4470572261	7
1	2399	886.490609383427	7
1	2401	887.707864664105	7
1	2403	888.018184438496	8
1	2404	888.454875506028	8
1	2408	891.194481727394	8
1	2411	893.323003102756	9
1	2412	893.59952505755	9
1	2422	896.255135190157	9
1	2424	896.31578992866	10
1	2429	898.907734726118	10
1	2430	900.567991293347	9
1	2435	900.877287626827	9
1	2436	902.327449235319	9
1	2437	902.63947757761	8
1	2442	904.124955285715	8
1	2443	907.679905467795	8
1	2445	907.914006777284	8
1	2447	909.987247479558	9
1	2448	910.647734937716	9
1	2452	911.372198179456	9
1	2454	911.986432310739	9
1	2455	913.122896557389	8
1	2457	913.606997969753	8
1	2458	913.941248195985	8
1	2460	914.253736374148	8
1	2461	914.832546184616	8
1	2463	914.853445994614	8
1	2464	915.206619535789	8
1	2465	915.744476695532	7
1	2466	916.907245114828	6
1	2468	917.821232088802	6
1	2475	920.31160559038	6
1	2479	920.962504005566	5
1	2487	923.270018371623	5
1	2488	924.074316618904	5
1	2490	925.102247176236	5
1	2491	925.206850079898	5
1	2492	925.44169432196	4
1	2494	925.52751898783	4
1	2499	925.807179083471	5
1	2501	926.17534514378	6
1	2503	926.979279473864	7
1	2505	927.73389557904	8
1	2506	928.776487801503	8
1	2508	929.845397208074	8
1	2510	931.29441292453	9
1	2512	931.827772852071	10
1	2513	931.915315510203	10
1	2514	932.406449078365	9
1	2515	933.334201425515	8
1	2522	935.137836573552	8
1	2526	936.362722328819	9
1	2539	940.427364455133	10
1	2540	940.995476377073	10
1	2541	941.650306467621	9
1	2543	941.753850412199	9
1	2545	941.894100542891	10
1	2558	949.757977196911	11
1	2561	950.421910008551	12
1	2563	951.459525552539	13
1	2567	952.293945130621	13
1	2568	952.304505269335	12
1	2569	952.516125796247	11
1	2573	952.761092210989	11
1	2575	953.008748077497	12
1	2577	954.149966894343	13
1	2583	955.894684961629	14
1	2585	956.818365757897	15
1	2587	957.92687604716	16
1	2589	958.8168787867	17
1	2590	959.185206855834	17
1	2591	959.863852025157	16
1	2592	960.756368347338	15
1	2593	961.155688728068	14
1	2595	961.195403434709	14
1	2596	961.208591649468	14
1	2597	962.259189357222	13
1	2599	962.349948259567	13
1	2601	963.44451606246	14
1	2602	963.623490409983	14
1	2606	964.794386347306	13
1	2608	966.33982461346	13
1	2615	970.852775431274	13
1	2616	971.009286479562	12
1	2617	971.170209277758	11
1	2618	972.489084280332	10
1	2619	972.786024865303	9
1	2620	972.942993408352	8
1	2622	973.053040239806	8
1	2624	973.487156821228	9
1	2625	974.299003684974	9
1	2626	975.227266907213	8
1	2627	975.990768290754	7
1	2628	976.025258932081	6
1	2629	976.069684810711	5
1	2631	976.472287942069	5
1	2633	976.819333149867	6
1	2635	978.024388556663	7
1	2639	979.274880341913	7
1	2643	980.966338090992	6
1	2644	981.009731321202	5
1	2646	981.039675386367	5
1	2647	982.347376265762	5
1	2649	982.496107674047	5
1	2650	982.752101550676	5
1	2652	983.678170463022	5
1	2654	984.248743122552	6
1	2656	985.451250225997	7
1	2657	987.257647643886	7
1	2665	992.337776609968	7
1	2667	993.172044609635	8
1	2669	993.283311689823	9
1	2676	994.662577040158	10
1	2684	996.634792588417	10
1	2695	1000.382468048403	10
1	2696	1000.833819304393	10
1	2703	1002.817265234716	10
1	2706	1003.733563908997	11
1	2708	1003.857245581907	12
1	2709	1004.821696166229	12
1	2713	1005.377331865111	11
1	2715	1005.650928824973	11
1	2717	1007.806573468089	12
1	2718	1009.573047829	12
1	2719	1010.429471136743	11
1	2723	1011.215818897199	10
1	2724	1012.789109884043	9
1	2728	1014.003969210837	8
1	2733	1015.073009825384	8
1	2734	1015.291994844668	8
1	2735	1015.615732577805	7
1	2736	1016.366269531325	6
1	2737	1016.548445305326	5
1	2738	1017.226413366701	4
1	2740	1018.176690985747	4
1	2742	1018.698530206308	5
1	2744	1019.398866452873	6
1	2746	1019.745561453675	7
1	2753	1021.635389730762	8
1	2758	1022.482369219408	9
1	2760	1022.697214342563	10
1	2763	1022.755080481365	11
1	2774	1024.828314818168	12
1	2781	1028.941290814595	12
1	2783	1029.681237300665	12
1	2787	1030.743527997071	12
1	2788	1031.145005458326	11
1	2792	1033.277060937215	10
1	2802	1035.447633508634	10
1	2804	1035.965794954264	10
1	2806	1039.112566899709	10
1	2808	1040.12874527416	11
1	2810	1040.23633397198	12
1	2811	1040.269491594313	12
1	2812	1041.514872881903	11
1	2813	1041.617460639953	10
1	2814	1042.056702611862	9
1	2816	1042.568030689577	9
1	2817	1044.392379004627	9
1	2828	1046.595874006686	9
1	2835	1049.451206197228	9
1	2840	1049.74552129939	9
1	2844	1050.05149547332	10
1	2849	1052.556313646266	10
1	2854	1053.257863441796	10
1	2858	1054.34988771578	11
1	2860	1054.41463591084	12
1	2865	1057.059655088127	12
1	2866	1057.386404630175	11
1	2870	1058.382282540063	11
1	2876	1059.438125720733	12
1	2887	1063.404033822717	13
1	2889	1063.74633075945	14
1	2891	1063.968789678336	15
1	2896	1065.890414413557	16
1	2898	1066.975519260641	17
1	2899	1066.998318368751	17
1	2901	1067.212739628997	17
1	2902	1067.474161275958	17
1	2908	1068.559067214132	17
1	2912	1070.238848979427	18
1	2917	1072.788772250291	19
1	2922	1074.981703594754	20
1	2923	1075.892255867835	20
1	2925	1076.012894331921	20
1	2938	1081.035673173443	20
1	2940	1081.22712209235	20
1	2941	1082.222112710908	20
1	2948	1084.129741025422	19
1	2949	1084.20124902547	18
1	2950	1086.5084420454	17
1	2952	1088.790163276156	17
1	2956	1091.471916027237	17
1	2957	1091.568677519361	16
1	2959	1092.226449555418	16
1	2966	1093.521823718045	17
1	2968	1094.443923321232	17
1	2970	1094.817245963412	17
1	2972	1095.387977452299	18
1	2974	1096.862992667472	19
1	2975	1097.224127641093	19
1	2976	1097.370273320938	18
1	2986	1101.691644450169	17
1	2990	1102.086735841158	17
1	2995	1104.835171091952	17
1	2996	1105.881490821797	16
1	3000	1107.827201987547	16
1	3002	1107.958776095534	16
1	3004	1108.49262916002	16
1	3005	1110.376688904827	16
1	3007	1110.85131744243	16
1	3008	1110.976205738004	16
1	3010	1111.921424263934	16
1	3012	1111.951634830922	17
1	3014	1113.252073675681	18
1	3016	1114.754924493296	19
1	3024	1115.858331320702	20
1	3026	1116.113668562735	21
1	3028	1116.500967163934	22
1	3029	1117.199556145493	22
1	3031	1117.338940370258	22
1	3032	1117.383737773284	22
1	3033	1118.103165475726	21
1	3034	1118.304518638241	20
1	3036	1118.420007869862	20
1	3038	1118.750526611834	21
1	3043	1120.382207718914	22
1	3045	1120.702193369017	23
1	3046	1120.74109586851	23
1	3050	1121.499830332816	22
1	3051	1122.30767611018	21
1	3055	1122.881213380459	21
1	3061	1123.671288745306	22
1	3062	1123.9219323986	22
1	3063	1124.430706101808	21
1	3065	1125.270563988375	21
1	3066	1126.514266670849	21
1	3070	1127.088492105518	21
1	3072	1128.637861952369	21
1	3074	1130.432549614016	21
1	3075	1131.569032475425	21
1	3077	1132.131342169629	21
1	3078	1132.824019967936	21
1	3082	1134.256069084793	21
1	3085	1134.526188422582	22
1	3087	1135.896799424599	23
1	3088	1135.957891489152	23
1	3089	1136.137611985013	22
1	3090	1137.265258798362	21
1	3091	1137.640108200429	20
1	3093	1138.037828189323	20
1	3095	1138.256520188788	21
1	3099	1138.430295274727	22
1	3102	1139.032193731305	23
1	3103	1141.281394039733	23
1	3104	1141.361690428931	22
1	3118	1144.318727841796	22
1	3135	1149.937367444044	23
1	3137	1150.876266693181	24
1	3138	1151.104568415036	24
1	3146	1153.744309614204	24
1	3147	1153.895340658529	24
1	3149	1154.464608760297	24
1	3151	1155.681831090352	25
1	3155	1160.477989919391	25
1	3157	1160.612351049507	25
1	3161	1160.799234163918	26
1	3163	1161.516380217851	26
1	3173	1164.073793347659	25
1	3177	1165.18251567527	24
1	3178	1165.441689942499	23
1	3179	1167.900416224419	22
1	3180	1169.052590528756	21
1	3184	1176.007540208377	20
1	3186	1176.114345407969	20
1	3187	1176.446311393176	20
1	3188	1176.743939855387	19
1	3198	1182.01736306316	18
1	3200	1182.787111876175	18
1	3201	1183.081024361295	18
1	3202	1183.934352188089	17
1	3206	1184.458979721086	17
1	3208	1185.535084417784	17
1	3212	1186.930659061563	16
1	3214	1187.737559406101	16
1	3215	1189.441767691791	16
1	3216	1190.805140513198	15
1	3227	1191.771298357114	15
1	3228	1191.938539748109	15
1	3229	1192.148291517175	14
1	3230	1192.277084147361	13
1	3232	1192.546165400697	13
1	3234	1192.762652936184	14
1	3235	1193.077754652931	14
1	3236	1193.193411378028	13
1	3237	1194.059719138965	12
1	3238	1194.355749537533	11
1	3242	1195.189302296368	10
1	3244	1195.268137025098	10
1	3245	1196.154021387595	10
1	3247	1196.207615662492	10
1	3249	1196.290295551994	11
1	3250	1196.648328753301	11
1	3251	1196.81784078079	10
1	3255	1197.784411315812	10
1	3257	1197.963611268661	11
1	3259	1198.149311331036	12
1	3264	1199.386560383676	12
1	3265	1199.55545091874	11
1	3267	1199.803057305654	11
1	3269	1200.118047330554	12
1	3271	1201.460965679545	13
1	3273	1201.524386280429	14
1	3275	1202.017210656927	15
1	3279	1203.608640119971	15
1	3281	1204.194326124363	15
1	3282	1206.173102994455	15
1	3283	1206.290742427273	14
1	3284	1206.746096438168	13
1	3289	1207.19148177803	13
1	3290	1207.388629744627	13
1	3291	1207.455598757438	12
1	3292	1207.827736535252	11
1	3294	1208.577797928492	11
1	3299	1210.697999475242	12
1	3301	1211.17693280295	13
1	3303	1212.291227927629	14
1	3305	1212.316350321273	15
1	3306	1212.908518597911	15
1	3307	1213.621443149667	14
1	3309	1213.750964711111	14
1	3311	1216.378283450697	15
1	3313	1216.475002144902	16
1	3317	1217.624096816345	16
1	3325	1220.736421198433	16
1	3327	1221.61121501344	17
1	3331	1223.447266854633	17
1	3332	1224.117839824247	16
1	3334	1224.145535669717	16
1	3336	1225.258547856503	17
1	3341	1227.670586378041	18
1	3346	1230.654934452391	19
1	3347	1230.794109397513	19
1	3349	1231.802330967698	19
1	3350	1232.76927500889	19
1	3354	1233.532624686539	19
1	3365	1237.364051023338	20
1	3368	1239.026430916402	21
1	3370	1239.051368174	22
1	3372	1239.109216499021	23
1	3373	1239.75911781591	23
1	3374	1240.710701682252	22
1	3378	1242.28544903196	21
1	3380	1242.781688591171	21
1	3382	1243.62226265909	22
1	3390	1245.630000593783	23
1	3391	1245.676174242613	23
1	3402	1250.854504372642	23
1	3409	1252.767303193683	24
1	3412	1253.03225831959	25
1	3413	1253.049385324627	25
1	3414	1253.705937995328	24
1	3416	1255.177662484475	24
1	3420	1256.703887078806	25
1	3423	1257.316369380712	26
1	3424	1259.720906206361	26
1	3425	1260.037947610978	25
1	3429	1260.81280804365	25
1	3432	1262.129715140192	26
1	3433	1263.306347693009	26
1	3435	1263.426297847351	26
1	3436	1265.335620680315	26
1	3437	1266.968980413746	25
1	3441	1269.077985027645	24
1	3442	1269.342599835943	23
1	3443	1269.517786391527	22
1	3445	1271.572972824355	22
1	3447	1273.404929544378	23
1	3452	1275.365491909737	24
1	3454	1275.573254433301	25
1	3456	1275.870674801581	26
1	3458	1275.966358317743	27
1	3462	1276.977975664777	27
1	3466	1277.844842689505	26
1	3468	1278.01788930232	26
1	3470	1278.118402058491	27
1	3476	1279.896489725561	28
1	3478	1280.59044385175	29
1	3484	1283.090972810866	30
1	3490	1285.169305672246	31
1	3492	1285.27339152535	32
1	3493	1285.656555781573	32
1	3495	1286.551937880918	32
1	3497	1286.560707465321	33
1	3498	1286.878259699986	33
1	3500	1287.581667722276	33
1	3502	1287.633032988525	34
1	3503	1288.290267051505	34
1	3504	1288.735338848497	33
1	3506	1290.097628730998	33
1	3510	1291.299214696271	34
1	3513	1291.677008103265	35
1	3514	1292.569581293279	35
1	3516	1294.076088836786	35
1	3535	1300.853647600723	36
1	3540	1302.119123318712	37
1	3543	1302.741808277619	38
1	3545	1302.764258527574	39
1	3546	1302.854987164862	39
1	3547	1303.182596735485	38
1	3549	1303.324869224692	38
1	3555	1305.088418887342	39
1	3557	1305.320787830525	40
1	3563	1307.01404460577	41
1	3574	1309.314010497016	41
1	3575	1309.543806428716	40
1	3577	1310.046026212173	40
1	3579	1311.154073416216	41
1	3580	1311.213278883204	41
1	3581	1312.039943424813	40
1	3583	1314.654758257381	40
1	3585	1315.31554244664	41
1	3593	1316.963375465642	42
1	3594	1317.030528157628	42
1	3599	1318.043767895967	42
1	3612	1322.397757041912	43
1	3615	1323.058554837376	44
1	3623	1324.458243033296	45
1	3631	1326.45486050259	46
1	3633	1326.613493609041	47
1	3634	1327.909341350303	47
1	3640	1329.185027856895	47
1	3645	1330.445999274186	48
1	3654	1333.455365520877	48
1	3658	1334.027846285199	48
1	3661	1335.575561402265	49
1	3663	1335.680843860728	50
1	3665	1335.938519981091	51
1	3666	1337.995169735516	51
1	3670	1339.170172548891	50
1	3672	1339.175687916043	50
1	3680	1344.518830075693	51
1	3687	1348.290790054673	51
1	3689	1349.279959650824	51
1	3693	1351.085712972697	51
1	3695	1351.246309341875	51
1	3697	1351.810293022733	52
1	3698	1351.825970392822	52
1	3702	1352.854201073521	51
1	3703	1353.536054971738	50
1	3704	1353.738786597674	49
1	3706	1354.09045507698	49
1	3708	1354.700433432923	50
1	3709	1355.163252338849	50
1	3710	1356.430426053273	49
1	3714	1356.718440283887	49
1	3716	1357.643603583121	50
1	3718	1357.700495342103	51
1	3720	1358.012491932447	52
1	3722	1359.78944592317	52
1	3724	1360.25397592249	52
1	3726	1360.956806613592	53
1	3731	1362.030118736874	54
1	3740	1364.657638292797	55
1	3749	1368.060775259899	55
1	3757	1371.318319845384	55
1	3759	1371.628727110371	56
1	3760	1371.828143611441	56
1	3764	1374.255459517246	55
1	3771	1376.655130115413	55
1	3774	1377.416319914933	56
1	3778	1383.831816466923	57
1	3781	1384.888140559846	58
1	3783	1385.565442893832	59
1	3785	1385.978907109352	60
1	3787	1386.183176999479	61
1	3789	1387.480261131934	62
1	3790	1387.517343414133	62
1	3791	1387.628662826463	61
1	3793	1387.733849910766	61
1	3794	1388.99425378034	61
1	3796	1389.533814732048	61
1	3803	1391.456979696321	61
1	3805	1393.14580605056	61
1	3806	1393.438009184318	61
1	3808	1393.458193651214	61
1	3812	1398.031923710735	61
1	3817	1398.523451041158	61
1	3824	1400.566125501166	61
1	3825	1400.641411000992	60
1	3832	1401.268284301205	60
1	3834	1401.666581657448	60
1	3835	1402.26390978438	59
1	3846	1404.809903318757	59
1	3848	1405.369776204882	60
1	3850	1405.435260213716	61
1	3854	1408.724945917833	61
1	3855	1408.994836102317	60
1	3857	1409.305184417156	60
1	3858	1410.208027010361	60
1	3863	1411.066294512707	60
1	3867	1411.62802723018	60
1	3869	1411.840532484695	60
1	3876	1414.832121926781	60
1	3878	1415.169554311275	60
1	3880	1415.823672310973	61
1	3881	1416.103764556794	61
1	3883	1416.862987530584	61
1	3884	1418.993008713651	61
1	3885	1419.758511886564	60
1	3886	1420.682961225164	59
1	3888	1420.979206866373	59
1	3889	1421.650014699351	59
1	3893	1423.73547861592	59
1	3901	1427.201177744604	59
1	3905	1430.419196563562	58
1	3906	1430.572922362557	57
1	3908	1430.739279640359	57
1	3912	1430.957893570859	57
1	3913	1432.833596365952	56
1	3914	1433.327749305981	55
1	3916	1434.935775546269	55
1	3918	1436.076833218335	56
1	3920	1436.251099235357	57
1	3921	1436.327204902461	57
1	3925	1437.045612775211	56
1	3926	1437.437094625905	55
1	3931	1437.703544891593	55
1	3932	1437.898161724363	55
1	3934	1439.361097489104	55
1	3938	1441.141885029872	56
1	3940	1441.231798266325	57
1	3942	1442.23461047556	57
1	3943	1442.234932461112	56
1	3945	1443.105121601447	56
1	3946	1444.791038143824	56
1	3948	1445.24399404996	56
1	3949	1446.282961881329	56
1	3951	1446.31283751319	56
1	3956	1448.018156625139	57
1	3958	1448.363257263924	58
1	3962	1448.93199759364	59
1	3965	1450.22183908608	60
1	3966	1450.596229227221	60
1	3967	1451.504742899504	59
1	3969	1451.962409755928	59
1	3971	1452.847520776694	60
1	3972	1453.349583876905	60
1	3973	1453.432863583878	59
1	3975	1453.73655856902	59
1	3979	1455.419602282655	59
1	3981	1455.574362329816	59
1	3982	1456.678805191495	59
1	3983	1456.777161494378	58
1	3984	1457.450458072418	57
1	3985	1459.086727270571	56
1	3987	1460.824415828998	56
1	3988	1461.136289866165	56
1	3990	1462.100583106755	56
1	3991	1462.315382042441	56
1	3992	1462.817395180194	55
1	3994	1462.953964058744	55
1	3998	1464.446782991135	56
1	4003	1466.032885358946	56
1	4005	1466.60803924307	56
1	4007	1467.958308762498	57
1	4008	1468.402576513886	57
1	4009	1470.110274605094	56
1	4016	1471.428142024329	55
1	4017	1471.661654680718	54
1	4018	1472.202552313902	53
1	4022	1474.740596292254	52
1	4023	1477.613396710165	51
1	4024	1478.624706958145	50
1	4025	1479.293739935557	49
1	4026	1479.449442250087	48
1	4030	1479.899989876961	48
1	4032	1480.186092105154	49
1	4034	1480.552972205815	50
1	4037	1481.354884187188	51
1	4038	1482.439246098731	51
1	4046	1484.678920344221	51
1	4051	1488.163116338546	52
1	4053	1488.164396629935	53
1	4054	1489.59504631019	53
1	4056	1490.005639707194	53
1	4057	1490.702758009418	53
1	4058	1492.544547081755	52
1	4063	1494.928696382316	52
1	4064	1495.045291380627	52
1	4065	1495.423431836029	51
1	4066	1495.970235393045	50
1	4068	1496.345442265057	50
1	4070	1496.70637529705	51
1	4071	1498.561884060202	51
1	4072	1498.76873211734	50
1	4073	1499.07587910645	49
1	4074	1499.277221140384	48
1	4078	1500.461279517907	47
1	4080	1501.806233148979	47
1	4081	1502.498579358075	47
1	4082	1502.895114568653	46
1	4091	1504.694331291264	46
1	4095	1504.942062950954	47
1	4099	1507.964250998325	47
1	4100	1508.321149389734	46
1	4101	1508.371451493652	45
1	4102	1508.787528903097	44
1	4103	1511.016839745966	43
1	4104	1512.530893467593	42
1	4108	1513.614109912199	41
1	4110	1514.355423948538	41
1	4111	1514.752520485222	41
1	4113	1519.113823834065	41
1	4117	1520.758183837935	42
1	4120	1522.52066535163	43
1	4122	1523.218327490786	44
1	4123	1524.599829352714	44
1	4125	1525.0940119519	44
1	4126	1526.450447094852	44
1	4127	1526.730333244271	43
1	4141	1529.714533493016	43
1	4143	1529.790513552015	44
1	4151	1532.492170037586	45
1	4152	1532.725222738134	45
1	4166	1538.267834658551	45
1	4168	1538.685751310915	46
1	4172	1539.068678479459	47
1	4174	1541.993840894945	47
1	4175	1544.116879731906	46
1	4179	1546.081280946549	46
1	4182	1548.387889077913	47
1	4184	1548.419026478132	48
1	4191	1548.860774286802	49
1	4194	1549.192857728645	50
1	4196	1549.410351292031	51
1	4198	1550.356041215909	52
1	4199	1550.550032166847	52
1	4200	1551.743442722602	51
1	4207	1553.312001371767	50
1	4209	1553.762934105839	50
1	4213	1556.504342587441	50
1	4218	1557.486447653248	50
1	4219	1557.593308585695	50
1	4224	1559.953568498649	50
1	4231	1561.778680728792	50
1	4232	1562.025033253218	49
1	4234	1563.087813930236	49
1	4235	1564.844956585268	49
1	4237	1565.393239557006	49
1	4238	1566.10006334988	49
1	4239	1566.140386370725	48
1	4240	1566.566367667911	47
1	4242	1567.959649672651	47
1	4244	1568.033505551338	48
1	4245	1568.139582315595	48
1	4247	1570.337469043614	48
1	4248	1570.922250261603	48
1	4250	1572.070310620803	48
1	4252	1572.137266690865	49
1	4254	1572.399235801314	50
1	4255	1573.008877929098	50
1	4257	1573.045628770399	50
1	4258	1574.048890324471	50
1	4259	1574.371628426997	49
1	4261	1576.91589545488	49
1	4262	1576.976066397967	49
1	4263	1577.061926227028	48
1	4265	1577.109268427784	48
1	4266	1577.287224648105	48
1	4267	1577.86024444625	47
1	4271	1579.680028158833	46
1	4277	1580.331611695659	46
1	4284	1582.25456170096	47
1	4288	1582.848701271885	47
1	4289	1584.027459474284	46
1	4290	1584.117048700971	45
1	4292	1584.998933292617	45
1	4300	1587.138052813264	46
1	4305	1588.544888603571	47
1	4309	1589.27303908405	47
1	4313	1590.412108262892	47
1	4316	1591.120426900904	48
1	4317	1591.292978298351	48
1	4319	1592.021864696446	48
1	4321	1592.699793256535	49
1	4322	1593.047786270724	49
1	4323	1594.832346899006	48
1	4327	1597.67356362296	47
1	4329	1598.687834193087	47
1	4330	1599.181695619488	47
1	4332	1599.574018421062	47
1	4333	1602.612710012109	47
1	4356	1609.021500343512	47
1	4360	1611.456060816956	47
1	4361	1612.97254912616	46
1	4365	1615.639607654225	45
1	4366	1616.806044784985	44
1	4368	1616.921123839707	44
1	4375	1618.057251052558	45
1	4377	1618.237955281887	45
1	4379	1619.213477620934	45
1	4384	1620.718094406765	46
1	4386	1621.336690832771	47
1	4387	1622.325932356046	47
1	4388	1622.531670541606	46
1	4389	1622.549243276501	45
1	4391	1622.980734434868	45
1	4395	1624.12490857399	45
1	4397	1624.943691511799	45
1	4402	1625.931698318389	46
1	4404	1626.637817692106	47
1	4405	1627.424816606254	47
1	4409	1629.432196625147	46
1	4410	1632.763966658784	45
1	4417	1634.490503782752	44
1	4419	1634.581556655542	44
1	4420	1634.79461961408	44
1	4421	1635.892572958154	43
1	4422	1636.887392180061	42
1	4424	1637.424225791199	42
1	4425	1637.582635074684	42
1	4433	1639.833802232672	42
1	4435	1640.639582356077	43
1	4437	1642.147518679091	44
1	4438	1643.366440293943	44
1	4439	1643.390309344909	43
1	4441	1643.784274775431	43
1	4446	1644.480147283383	44
1	4447	1645.117000758566	44
1	4451	1646.99533285532	44
1	4457	1648.460968926144	45
1	4458	1649.171263397606	45
1	4459	1649.865837253016	44
1	4460	1650.840997655933	43
1	4461	1651.517673291765	42
1	4466	1653.524499137024	42
1	4470	1655.038639503937	42
1	4475	1656.619867371608	42
1	4477	1656.822785011041	43
1	4479	1657.098146691259	44
1	4480	1658.179522558445	44
1	4482	1658.918046527749	44
1	4495	1662.429523078705	45
1	4501	1663.455907985004	46
1	4503	1664.47724165316	47
1	4505	1665.100648284173	48
1	4506	1665.102175011164	48
1	4511	1665.903412073358	48
1	4519	1672.182783424486	49
1	4521	1673.321400569015	50
1	4523	1674.213811396727	51
1	4530	1675.749606330089	52
1	4532	1675.919489464906	52
1	4537	1679.252569797338	52
1	4539	1679.797494023334	53
1	4541	1679.988943975959	54
1	4542	1681.154782690955	54
1	4543	1681.432304806712	53
1	4545	1682.189006167857	53
1	4546	1682.640026983507	53
1	4547	1683.324298793636	52
1	4549	1684.512035200097	52
1	4551	1684.868317986914	53
1	4553	1685.44259163933	54
1	4554	1685.525226125017	54
1	4556	1685.914476360394	54
1	4560	1686.688615858882	55
1	4563	1687.124193923054	56
1	4567	1688.320657496639	56
1	4572	1689.488279902992	56
1	4573	1689.669322854669	56
1	4575	1689.764423313228	56
1	4576	1690.441454313024	56
1	4584	1692.314213631552	56
1	4588	1692.664585506027	56
1	4590	1693.157515334065	56
1	4592	1693.288895426593	57
1	4597	1695.354540452737	58
1	4598	1695.357842706289	58
1	4602	1695.868929256896	57
1	4603	1696.160987515254	56
1	4607	1698.053765953537	55
1	4608	1699.873241357457	54
1	4612	1701.241478438284	54
1	4614	1702.637943523678	54
1	4615	1702.785226698907	53
1	4617	1704.732536550219	53
1	4619	1705.261119111913	54
1	4620	1705.471539989198	54
1	4622	1705.9498545423	54
1	4626	1706.34926125536	55
1	4629	1707.921876411173	56
1	4630	1709.012905669763	56
1	4631	1709.802382597346	55
1	4632	1710.830734352947	54
1	4633	1712.203219725028	53
1	4634	1712.267965289869	52
1	4636	1712.609994617473	52
1	4640	1713.894788685406	53
1	4646	1716.3855986301	54
1	4648	1717.057690775861	55
1	4649	1718.290454519482	55
1	4651	1718.415716762707	55
1	4658	1721.771036679864	55
1	4660	1721.899607654963	55
1	4664	1722.962659145904	55
1	4665	1723.104398936127	54
1	4669	1723.384368746663	53
1	4670	1723.633964207977	52
1	4672	1723.927292278406	52
1	4673	1725.080930230833	52
1	4674	1725.397941555486	51
1	4676	1725.515154660622	51
1	4677	1725.914464962395	51
1	4679	1726.276116818792	51
1	4680	1726.421720451127	51
1	4682	1726.568593016577	51
1	4683	1726.916781449423	51
1	4685	1727.30653095938	51
1	4690	1730.953832841286	52
1	4691	1731.021878404848	52
1	4698	1732.469515834351	52
1	4704	1733.272616635205	53
1	4706	1733.860279239606	54
1	4707	1734.459446339269	54
1	4712	1735.306942196722	54
1	4713	1736.917654319232	54
1	4715	1737.032547321286	54
1	4716	1737.255483778813	54
1	4718	1738.23931847092	54
1	4723	1739.620052384893	55
1	4724	1739.685649223186	55
1	4729	1740.270760649149	55
1	4731	1740.635035977596	56
1	4732	1741.183213992588	56
1	4734	1741.617573187974	56
1	4735	1742.079548534752	56
1	4737	1742.180372748075	56
1	4745	1746.066393139497	57
1	4747	1747.271142582583	58
1	4748	1748.02679969423	58
1	4750	1748.072292609609	58
1	4752	1748.185055043514	59
1	4753	1748.207754835702	59
1	4754	1750.451076017819	58
1	4758	1752.292433273136	58
1	4760	1752.514474979683	59
1	4762	1752.955629485118	59
1	4763	1754.377874297622	58
1	4768	1754.862580597084	58
1	4769	1755.015602858158	58
1	4773	1755.870957359262	57
1	4780	1756.593533724186	57
1	4783	1756.946889946211	58
1	4787	1758.330892755627	58
1	4789	1758.372611291501	58
1	4793	1759.041954477254	59
1	4795	1759.130461021375	60
1	4797	1759.639253326187	60
1	4799	1759.703724807828	60
1	4800	1759.888584680177	60
1	4801	1760.99387395026	59
1	4802	1761.206667789893	58
1	4812	1763.635497298697	58
1	4818	1765.648211972614	59
1	4819	1767.192574994972	59
1	4821	1767.288523055248	59
1	4825	1768.574194309319	60
1	4839	1771.529774317916	60
1	4840	1771.628122578562	59
1	4841	1773.168662721417	58
1	4842	1773.63743084487	57
1	4844	1775.184490122884	57
1	4849	1775.518932375529	58
1	4850	1775.623158230024	58
1	4855	1777.730936703723	58
1	4857	1778.019126358187	59
1	4858	1778.48010276923	59
1	4860	1780.999936151928	59
1	4862	1781.563383347112	60
1	4866	1782.412384257806	61
1	4871	1784.173748423708	61
1	4872	1784.188741972649	60
1	4873	1785.71593080407	59
1	4875	1787.368188175843	59
1	4877	1787.875703191735	60
1	4881	1789.23269908816	60
1	4882	1790.495635267791	59
1	4884	1790.931985440396	59
1	4885	1793.096421003999	59
1	4886	1793.549685681219	58
1	4888	1793.554259484438	58
1	4890	1793.598777262576	59
1	4892	1793.97819607753	60
1	4893	1794.858874980393	60
1	4894	1796.235572747277	59
1	4896	1798.641713710091	59
1	4898	1800.369896457942	60
1	4899	1802.210237840629	60
1	4900	1802.473380710563	59
1	4913	1804.80644686908	59
1	4915	1808.034464144595	59
1	4916	1808.095986100546	58
1	4917	1808.421506846	57
1	4918	1808.575953203029	56
1	4920	1808.749073256174	56
1	4922	1808.958759133439	57
1	4923	1809.977872049537	57
1	4925	1810.198325675556	57
1	4927	1810.837165758891	58
1	4928	1811.859287112625	58
1	4932	1812.860942619638	57
1	4956	1818.057961835401	57
1	4959	1818.510285142963	58
1	4962	1822.611173444185	59
1	4964	1823.104598042454	60
1	4966	1823.111896329773	61
1	4970	1823.814495440153	61
1	4972	1824.466145705942	61
1	4974	1825.453634403874	62
1	4975	1827.377068337052	62
1	4976	1827.408801991513	61
1	4978	1827.457100804171	61
1	4980	1827.517981013735	62
1	4981	1827.623489049639	62
1	4986	1829.643556692935	62
1	4987	1829.718914169707	62
1	4998	1831.416323951507	62
1	4999	1832.082647270295	62
1	5000	1832.196488554488	61
1	5001	1832.418450788327	60
1	5018	1838.775625239864	60
1	5020	1840.696011214153	61
1	5028	1842.205240363978	62
1	5029	1842.721031581516	62
1	5033	1844.79963467925	61
1	5034	1845.096060700948	60
1	5035	1845.642222321616	59
1	5037	1846.345167595289	59
1	5038	1847.29060420082	59
1	5039	1847.828223684753	58
1	5040	1848.163206019843	57
1	5042	1849.67909996765	57
1	5044	1850.436753155232	58
1	5048	1851.8754752827	58
1	5049	1851.943823733528	57
1	5051	1852.112498088644	57
1	5052	1854.628242786889	57
1	5053	1854.982040712039	56
1	5054	1856.091747745395	55
1	5062	1857.177125278574	55
1	5081	1865.26530318725	56
1	5086	1867.70099260926	56
1	5088	1868.610057932735	56
1	5089	1868.646842014704	56
1	5090	1868.887102430055	55
1	5091	1869.25455567369	54
1	5093	1870.925828180928	54
1	5094	1871.170666505348	54
1	5098	1872.772008762479	54
1	5100	1873.98809014834	54
1	5102	1874.09741383846	54
1	5103	1874.471598965363	54
1	5105	1875.18910479324	54
1	5107	1875.832060382086	55
1	5111	1877.788645719403	56
1	5113	1877.925647687212	56
1	5115	1878.119248205645	56
1	5122	1881.358305843892	56
1	5126	1882.158553433706	56
1	5128	1883.79531370907	56
1	5130	1884.17644066644	56
1	5132	1884.919574941282	57
1	5133	1885.273170047255	57
1	5137	1886.41964848699	56
1	5138	1886.825890487871	55
1	5142	1886.941717777266	55
1	5150	1891.168570961726	55
1	5152	1891.227515066555	55
1	5153	1891.643745553108	55
1	5154	1892.715552419567	54
1	5155	1895.248729916133	53
1	5166	1900.09718292159	53
1	5173	1903.508796522476	53
1	5175	1903.544675377352	53
1	5176	1903.671442555967	53
1	5181	1905.846235097737	53
1	5183	1906.15747187102	54
1	5188	1907.674605871787	55
1	5192	1908.48861702926	56
1	5195	1909.24792452322	57
1	5202	1910.476962556904	57
1	5207	1911.785156147359	57
1	5209	1911.937520401663	58
1	5211	1912.493347367119	59
1	5213	1912.817399263552	60
1	5217	1913.273847423226	61
1	5219	1913.830281591108	61
1	5221	1914.28392535683	61
1	5223	1915.951299456762	62
1	5225	1916.385628216455	63
1	5226	1917.959488770566	63
1	5227	1917.963264103849	62
1	5228	1919.167516768471	61
1	5229	1919.696493732514	60
1	5230	1921.233415032622	59
1	5231	1921.313768819457	58
1	5232	1921.405852723779	57
1	5237	1924.419812654487	57
1	5239	1924.547843780133	58
1	5241	1925.039978926894	59
1	5242	1925.388226168286	59
1	5243	1925.909468633397	58
1	5244	1926.298053231338	57
1	5246	1926.314135827241	57
1	5250	1929.560253665136	57
1	5254	1930.396613974538	57
1	5256	1930.752540551861	58
1	5261	1931.316470717114	58
1	5262	1932.272814585539	57
1	5267	1936.339824454572	57
1	5277	1938.916421518438	57
1	5279	1943.641132279836	57
1	5283	1945.71998051924	57
[...]
10	2593	961.155688728068	17.211653621342
10	2596	961.208591649468	11.668523120226
10	2597	962.259189357222	12.501212160311
10	2602	963.623490409983	13.201580401432
10	2606	964.794386347306	13.332187257315
10	2615	970.852775431274	17.844027353777
10	2616	971.009286479562	16.859319585219
10	2617	971.170209277758	16.416262260263
10	2618	972.489084280332	16.594399318703
10	2619	972.786024865303	15.967659107406
10	2620	972.942993408352	15.016117361192
10	2625	974.299003684974	15.482124898274
10	2626	975.227266907213	14.031863472504
10	2627	975.990768290754	13.640820031187
10	2628	976.025258932081	12.580742869621
10	2629	976.069684810711	12.024180999007
10	2639	979.274880341913	12.806075442095
10	2643	980.966338090992	7.913297851186
10	2644	981.009731321202	7.522574499974
10	2647	982.347376265762	5.875088323693
10	2650	982.752101550676	5.932768400809
10	2657	987.257647643886	9.233259087223
10	2684	996.634792588417	12.956622125395
10	2696	1000.833819304393	10.056209409108
10	2709	1004.821696166229	11.649651556594
10	2713	1005.377331865111	11.282663437575
10	2718	1009.573047829	14.997612598574
10	2719	1010.429471136743	15.766894096585
10	2723	1011.215818897199	13.977298395639
10	2724	1012.789109884043	14.511412385872
10	2728	1014.003969210837	12.158085536929
10	2734	1015.291994844668	11.558430935671
10	2735	1015.615732577805	11.758486995898
10	2736	1016.366269531325	11.122939380588
10	2737	1016.548445305326	10.897516480353
10	2738	1017.226413366701	9.419839898612
10	2781	1028.941290814595	10.242760608287
10	2787	1030.743527997071	10.997966543396
10	2788	1031.145005458326	10.084798524384
10	2792	1033.277060937215	11.641671206453
10	2804	1035.965794954264	13.210714472899
10	2811	1040.269491594313	17.430051515165
10	2812	1041.514872881903	16.686558063735
10	2813	1041.617460639953	14.172183637964
10	2814	1042.056702611862	12.375465311197
10	2817	1044.392379004627	14.40628137008
10	2835	1049.451206197228	14.120180300178
10	2849	1052.556313646266	12.319979674286
10	2865	1057.059655088127	9.779359517275
10	2866	1057.386404630175	9.540412963536
10	2899	1066.998318368751	14.026733304177
10	2902	1067.474161275958	14.216297834162
10	2923	1075.892255867835	21.477619956995
10	2938	1081.035673173443	23.308054262907
10	2941	1082.222112710908	23.839830170845
10	2948	1084.129741025422	24.442543451591
10	2949	1084.20124902547	22.128023082789
10	2950	1086.5084420454	23.104408222683
10	2956	1091.471916027237	27.503126348901
10	2957	1091.568677519361	27.058453881698
10	2968	1094.443923321232	27.231183692235
10	2975	1097.224127641093	29.044889836262
10	2976	1097.370273320938	28.811206106806
10	2986	1101.691644450169	26.709940855415
10	2995	1104.835171091952	23.608048999602
10	2996	1105.881490821797	23.561097207767
10	3002	1107.958776095534	19.168612819378
10	3005	1110.376688904827	21.508987454044
10	3008	1110.976205738004	18.749756182586
10	3029	1117.199556145493	23.843872551477
10	3032	1117.383737773284	23.861914055239
10	3033	1118.103165475726	23.285919512314
10	3034	1118.304518638241	22.916541185942
10	3046	1120.74109586851	22.052462503867
10	3050	1121.499830332816	20.933553826674
10	3051	1122.30767611018	20.348450615241
10	3062	1123.9219323986	16.241742682329
10	3063	1124.430706101808	16.603504114261
10	3066	1126.514266670849	18.021637510829
10	3072	1128.637861952369	16.716437688435
10	3075	1131.569032475425	19.617397644503
10	3078	1132.824019967936	19.571946292255
10	3088	1135.957891489152	21.037261840047
10	3089	1136.137611985013	20.279280664311
10	3090	1137.265258798362	21.151590235627
10	3091	1137.640108200429	21.139141036495
10	3103	1141.281394039733	22.861386169871
10	3104	1141.361690428931	22.611163817097
10	3138	1151.104568415036	25.834004426661
10	3147	1153.895340658529	23.462791044513
10	3155	1160.477989919391	26.652496132988
10	3163	1161.516380217851	26.990191795269
10	3173	1164.073793347659	25.667450204952
10	3177	1165.18251567527	26.150321943965
10	3178	1165.441689942499	24.075150217788
10	3179	1167.900416224419	25.811486000915
10	3180	1169.052590528756	26.307687556926
10	3184	1176.007540208377	31.688812366581
10	3187	1176.446311393176	31.324606845062
10	3188	1176.743939855387	31.296879320065
10	3198	1182.01736306316	32.079995619116
10	3201	1183.081024361295	32.204757668114
10	3202	1183.934352188089	30.744301319697
10	3208	1185.535084417784	31.79077480358
10	3212	1186.930659061563	31.248827971211
10	3215	1189.441767691791	30.487554682387
10	3216	1190.805140513198	30.192789463691
10	3228	1191.938539748109	28.83958491405
10	3229	1192.148291517175	28.799722489809
10	3230	1192.277084147361	27.72883869444
10	3235	1193.077754652931	18.330963221519
10	3236	1193.193411378028	17.079065970059
10	3237	1194.059719138965	13.858836362761
10	3238	1194.355749537533	13.679276279495
10	3242	1195.189302296368	10.945541560142
10	3245	1196.154021387595	11.695041666509
10	3250	1196.648328753301	10.061322231884
10	3251	1196.81784078079	9.080281374689
10	3264	1199.386560383676	8.106603468744
10	3265	1199.55545091874	8.177595447198
10	3279	1203.608640119971	11.062474719274
10	3282	1206.173102994455	13.410450058271
10	3283	1206.290742427273	11.398639456251
10	3284	1206.746096438168	11.47795941307
10	3290	1207.388629744627	11.098334192633
10	3291	1207.455598757438	9.956919490993
10	3292	1207.827736535252	10.04332521944
10	3306	1212.908518597911	14.759207266875
10	3307	1213.621443149667	13.818385844013
10	3317	1217.624096816345	16.1631311368
10	3331	1223.447266854633	19.25294073027
10	3332	1224.117839824247	17.240295936239
10	3347	1230.794109397513	22.146449775427
10	3350	1232.76927500889	22.071275533648
10	3373	1239.75911781591	23.380834365213
10	3374	1240.710701682252	24.23569953735
10	3378	1242.28544903196	24.350890050534
10	3391	1245.676174242613	24.064959229173
10	3413	1253.049385324627	27.064508840959
10	3414	1253.705937995328	26.035351617287
10	3424	1259.720906206361	29.06597175397
10	3425	1260.037947610978	28.23561664328
10	3433	1263.306347693009	29.77372300647
10	3436	1265.335620680315	29.78585329442
10	3437	1266.968980413746	31.051901870372
10	3441	1269.077985027645	31.713934004307
10	3442	1269.342599835943	30.316168919541
10	3443	1269.517786391527	30.466418217527
10	3462	1276.977975664777	34.196287073606
10	3466	1277.844842689505	33.111530437421
10	3493	1285.656555781573	40.02655518779
10	3498	1286.878259699986	40.252603863386
10	3503	1288.290267051505	39.169632431099
10	3504	1288.735338848497	37.880834475855
10	3514	1292.569581293279	39.802278099596
10	3546	1302.854987164862	47.083578120945
10	3547	1303.182596735485	46.478709656679
10	3574	1309.314010497016	47.184295356824
10	3575	1309.543806428716	46.117508581365
10	3580	1311.213278883204	42.721450306887
10	3581	1312.039943424813	40.466970600458
10	3594	1317.030528157628	41.665036247891
10	3634	1327.909341350303	48.527245346589
10	3654	1333.455365520877	50.364392710011
10	3666	1337.995169735516	52.721778210166
10	3670	1339.170172548891	52.60946508357
10	3687	1348.290790054673	56.991575358402
10	3693	1351.085712972697	57.009624135911
10	3698	1351.825970392822	56.559320634385
10	3702	1352.854201073521	52.000553472798
10	3703	1353.536054971738	51.416931653026
10	3704	1353.738786597674	50.996978320055
10	3709	1355.163252338849	52.398993811275
10	3710	1356.430426053273	53.105556828581
10	3722	1359.78944592317	54.701027035828
10	3749	1368.060775259899	61.046730654129
10	3760	1371.828143611441	60.674070195225
10	3764	1374.255459517246	58.939917070606
10	3790	1387.517343414133	70.553967948491
10	3791	1387.628662826463	69.799335538833
10	3794	1388.99425378034	70.950485884373
10	3803	1391.456979696321	69.059222654409
10	3806	1393.438009184318	70.379454346942
10	3812	1398.031923710735	74.246017057094
10	3824	1400.566125501166	74.111264998576
10	3825	1400.641411000992	74.027917391951
10	3834	1401.666581657448	71.220582383262
10	3835	1402.26390978438	70.498473554626
10	3854	1408.724945917833	73.149384515568
10	3855	1408.994836102317	73.313992241589
10	3858	1410.208027010361	74.26950702927
10	3867	1411.62802723018	71.822788748358
10	3876	1414.832121926781	70.313291851088
10	3881	1416.103764556794	71.323805698362
10	3884	1418.993008713651	71.605565865352
10	3885	1419.758511886564	70.47855223574
10	3886	1420.682961225164	71.23136598955
10	3889	1421.650014699351	70.403705357476
10	3901	1427.201177744604	74.791914060772
10	3905	1430.419196563562	75.718763130639
10	3906	1430.572922362557	74.002339403805
10	3912	1430.957893570859	73.314289987738
10	3913	1432.833596365952	75.133101023849
10	3914	1433.327749305981	75.315257373534
10	3921	1436.327204902461	76.073228979971
10	3925	1437.045612775211	75.505375124579
10	3926	1437.437094625905	75.406975889031
10	3932	1437.898161724363	73.240523431566
10	3942	1442.23461047556	72.96284524937
10	3943	1442.234932461112	70.916612615728
10	3946	1444.791038143824	73.162311033453
10	3949	1446.282961881329	72.783458224662
10	3966	1450.596229227221	73.179909312288
10	3967	1451.504742899504	67.910855839995
10	3972	1453.349583876905	69.517767409982
10	3973	1453.432863583878	68.544723024032
10	3979	1455.419602282655	69.440695173303
10	3982	1456.678805191495	70.495628192016
10	3983	1456.777161494378	69.296900362444
10	3984	1457.450458072418	69.716608161652
10	3985	1459.086727270571	69.552912538523
10	3988	1461.136289866165	70.930106893816
10	3991	1462.315382042441	71.042743273831
10	3992	1462.817395180194	69.671589129634
10	4003	1466.032885358946	70.675132661887
10	4008	1468.402576513886	70.225379980781
10	4009	1470.110274605094	71.586823563936
10	4016	1471.428142024329	70.609348167303
10	4017	1471.661654680718	70.477251157769
10	4018	1472.202552313902	70.934268012697
10	4022	1474.740596292254	70.379258341986
10	4023	1477.613396710165	72.803493391408
10	4024	1478.624706958145	73.254930753263
10	4025	1479.293739935557	73.858479721841
10	4026	1479.449442250087	70.144257832931
10	4038	1482.439246098731	71.372951586024
10	4054	1489.59504631019	74.425491998915
10	4057	1490.702758009418	74.879085698445
10	4058	1492.544547081755	75.681559551171
10	4064	1495.045291380627	71.385781159215
10	4065	1495.423431836029	71.687953220109
10	4066	1495.970235393045	66.332704524595
10	4071	1498.561884060202	67.822604419843
10	4072	1498.76873211734	67.824618533361
10	4073	1499.07587910645	64.140103560181
10	4074	1499.277221140384	63.200387922049
10	4078	1500.461279517907	63.640233357199
10	4081	1502.498579358075	64.845717232502
10	4082	1502.895114568653	65.19156967706
10	4099	1507.964250998325	66.822365968453
10	4100	1508.321149389734	67.089351123409
10	4101	1508.371451493652	65.266329892205
10	4102	1508.787528903097	63.543534853137
10	4103	1511.016839745966	64.704002232776
10	4104	1512.530893467593	65.656264698088
10	4108	1513.614109912199	65.250852648275
10	4111	1514.752520485222	65.853936743465
10	4123	1524.599829352714	74.377990266634
10	4126	1526.450447094852	74.488037338924
10	4127	1526.730333244271	73.882812467577
10	4152	1532.725222738134	69.77125867939
10	4174	1541.993840894945	71.812116610803
10	4175	1544.116879731906	73.307205440268
10	4199	1550.550032166847	70.363940061693
10	4200	1551.743442722602	71.190470516787
10	4207	1553.312001371767	70.689020142613
10	4213	1556.504342587441	71.82542224322
10	4219	1557.593308585695	69.430192247149
10	4231	1561.778680728792	66.849984346476
10	4232	1562.025033253218	65.679590988161
10	4235	1564.844956585268	68.138581288218
10	4238	1566.10006334988	66.364039962772
10	4239	1566.140386370725	64.334153221746
10	4240	1566.566367667911	63.528325287489
10	4245	1568.139582315595	64.313275907435
10	4248	1570.922250261603	66.227918970339
10	4255	1573.008877929098	68.066814978144
10	4258	1574.048890324471	61.452633290582
10	4259	1574.371628426997	60.016204478459
10	4262	1576.976066397967	57.862242563902
10	4263	1577.061926227028	56.483305693302
10	4266	1577.287224648105	56.52904081017
10	4267	1577.86024444625	55.33957909462
10	4271	1579.680028158833	54.586016206933
10	4288	1582.848701271885	55.407628680017
10	4289	1584.027459474284	54.439002454992
10	4290	1584.117048700971	54.402515207955
10	4309	1589.27303908405	55.056015531743
10	4317	1591.292978298351	54.125011023618
10	4322	1593.047786270724	54.779951612173
10	4323	1594.832346899006	56.146595588091
10	4327	1597.67356362296	58.604885143501
10	4330	1599.181695619488	54.465533949084
10	4333	1602.612710012109	56.53142906556
10	4360	1611.456060816956	62.263203088311
10	4361	1612.97254912616	63.562197834129
10	4365	1615.639607654225	63.386169256787
10	4366	1616.806044784985	63.043110679146
10	4377	1618.237955281887	60.751507628639
10	4387	1622.325932356046	62.372363857397
10	4388	1622.531670541606	62.560801474538
10	4389	1622.549243276501	61.457393541649
10	4395	1624.12490857399	58.731669016984
10	4405	1627.424816606254	59.391311054916
10	4409	1629.432196625147	57.361886004344
10	4410	1632.763966658784	60.626699967919
10	4417	1634.490503782752	61.444875012353
10	4420	1634.79461961408	57.8787241592
10	4421	1635.892572958154	58.78330453037
10	4422	1636.887392180061	57.88483549131
10	4425	1637.582635074684	57.629152278584
10	4438	1643.366440293943	58.367507001326
10	4439	1643.390309344909	58.075614334039
10	4447	1645.117000758566	57.978947945302
10	4458	1649.171263397606	60.425309322646
10	4459	1649.865837253016	59.646426308838
10	4460	1650.840997655933	60.428889393041
10	4461	1651.517673291765	60.397246390861
10	4470	1655.038639503937	58.913242127207
10	4480	1658.179522558445	58.605504137383
10	4506	1665.102175011164	56.080674667652
10	4532	1675.919489464906	57.862238412348
10	4542	1681.154782690955	61.467081019771
10	4543	1681.432304806712	60.714210399947
10	4546	1682.640026983507	61.303336150736
10	4547	1683.324298793636	60.343564358768
10	4554	1685.525226125017	62.196140957277
10	4567	1688.320657496639	62.38895917825
10	4573	1689.669322854669	60.568591364277
10	4576	1690.441454313024	57.240772517642
10	4588	1692.664585506027	53.843622523294
10	4598	1695.357842706289	54.718260350212
10	4602	1695.868929256896	52.084654481465
10	4603	1696.160987515254	52.146245281418
10	4607	1698.053765953537	51.294936864836
10	4608	1699.873241357457	52.877908502137
10	4614	1702.637943523678	54.176974597534
10	4615	1702.785226698907	51.162316007621
10	4620	1705.471539989198	51.947040852174
10	4630	1709.012905669763	53.617010744727
10	4631	1709.802382597346	53.182515225738
10	4632	1710.830734352947	54.007949341906
10	4633	1712.203219725028	55.105073033769
10	4634	1712.267965289869	53.34991876212
10	4649	1718.290454519482	57.632366315961
10	4658	1721.771036679864	59.341513601159
10	4664	1722.962659145904	58.485417492744
10	4665	1723.104398936127	58.003750651954
10	4669	1723.384368746663	57.480956673305
10	4670	1723.633964207977	57.619043201881
10	4673	1725.080930230833	57.516817878209
10	4674	1725.397941555486	53.215158131
10	4677	1725.914464962395	52.59306439338
10	4680	1726.421720451127	52.2079090544
10	4683	1726.916781449423	52.413502926892
10	4691	1731.021878404848	55.272272074759
10	4707	1734.459446339269	54.661952315935
10	4713	1736.917654319232	54.728648151375
10	4716	1737.255483778813	52.743448578716
10	4724	1739.685649223186	54.243057583856
10	4732	1741.183213992588	55.103533203325
10	4735	1742.079548534752	55.39093267587
10	4748	1748.02679969423	58.846004369365
10	4753	1748.207754835702	58.71947493271
10	4754	1750.451076017819	60.686652704591
10	4762	1752.955629485118	61.840598039391
10	4763	1754.377874297622	62.06366066607
10	4769	1755.015602858158	61.858087524093
10	4773	1755.870957359262	61.911843290508
10	4787	1758.330892755627	57.246186424506
10	4797	1759.639253326187	54.906716775968
10	4800	1759.888584680177	54.627465568264
10	4801	1760.99387395026	55.04401940796
10	4802	1761.206667789893	54.888059007865
10	4819	1767.192574994972	54.582580377499
10	4839	1771.529774317916	56.637325102758
10	4840	1771.628122578562	55.242523948462
10	4841	1773.168662721417	56.110971945556
10	4842	1773.63743084487	55.221714082163
10	4850	1775.623158230024	53.723550575061
10	4858	1778.48010276923	55.201516570148
10	4871	1784.173748423708	58.658593763086
10	4872	1784.188741972649	57.912625153857
10	4873	1785.71593080407	59.147337787493
10	4881	1789.23269908816	60.56891943036
10	4882	1790.495635267791	59.541802426505
10	4885	1793.096421003999	61.665929334025
10	4886	1793.549685681219	61.080169846868
10	4893	1794.858874980393	62.200447005411
10	4894	1796.235572747277	62.962956112072
10	4899	1802.210237840629	68.349958601023
10	4900	1802.473380710563	67.686748973009
10	4915	1808.034464144595	69.419600824802
10	4916	1808.095986100546	68.475933715653
10	4917	1808.421506846	68.673048352106
10	4918	1808.575953203029	68.30519255388
10	4923	1809.977872049537	69.342836071941
10	4928	1811.859287112625	70.241713924651
10	4932	1812.860942619638	67.926196988177
10	4970	1823.814495440153	71.30002046047
10	4975	1827.377068337052	72.632354622326
10	4976	1827.408801991513	72.546221394429
10	4981	1827.623489049639	72.598831048675
10	4987	1829.718914169707	73.165800648993
10	4999	1832.082647270295	75.135757324084
10	5000	1832.196488554488	74.696270896122
10	5001	1832.418450788327	74.045839496826
10	5029	1842.721031581516	79.085534282819
10	5033	1844.79963467925	77.511111624002
10	5034	1845.096060700948	77.091789673518
10	5035	1845.642222321616	77.068028012297
10	5038	1847.29060420082	78.359263123782
10	5039	1847.828223684753	72.643733561869
10	5040	1848.163206019843	72.787199680359
10	5048	1851.8754752827	75.480533046468
10	5049	1851.943823733528	74.212887029805
10	5052	1854.628242786889	76.609116428702
10	5053	1854.982040712039	73.982104560111
10	5054	1856.091747745395	74.528364398283
10	5086	1867.70099260926	73.72279653173
10	5089	1868.646842014704	70.005128304613
10	5090	1868.887102430055	68.517205972113
10	5091	1869.25455567369	66.533762369272
10	5094	1871.170666505348	67.011731543701
10	5100	1873.98809014834	69.18164327926
10	5103	1874.471598965363	65.722525709189
10	5113	1877.925647687212	67.727322011656
10	5122	1881.358305843892	67.02398801838
10	5128	1883.79531370907	68.430947590126
10	5133	1885.273170047255	69.269536890527
10	5137	1886.41964848699	68.892418471409
10	5138	1886.825890487871	68.76792865247
10	5150	1891.168570961726	68.063972919272
10	5153	1891.643745553108	68.531849223335
10	5154	1892.715552419567	69.252213151735
10	5155	1895.248729916133	70.782584210191
10	5173	1903.508796522476	73.277694342445
10	5176	1903.671442555967	72.25511860446
10	5202	1910.476962556904	69.780951342751
10	5219	1913.830281591108	71.62504122713
10	5226	1917.959488770566	75.147369998661
10	5227	1917.963264103849	71.61809650856
10	5228	1919.167516768471	69.488416800821
10	5229	1919.696493732514	69.259740577282
10	5230	1921.233415032622	70.646804685673
10	5231	1921.313768819457	69.201270730813
10	5232	1921.405852723779	65.093603593167
10	5242	1925.388226168286	68.211100889712
10	5243	1925.909468633397	67.712643368636
10	5244	1926.298053231338	67.396845227722
10	5250	1929.560253665136	66.518431949827
10	5261	1931.316470717114	64.11832863555
10	5262	1932.272814585539	63.662756652804
10	5277	1938.916421518438	63.727316725198
10	5283	1945.71998051924	68.038413013873
10	5284	1946.162668122748	68.374022403345
10	5302	1951.994674166892	69.861768860376
10	5303	1952.64279587095	70.484242437244
10	5304	1954.036595088383	69.860154421943
10	5305	1954.585582339818	69.666007398536
10	5308	1957.180945107468	71.12818169305
10	5314	1958.570787240865	71.629069463599
10	5315	1958.871582436612	70.654460793567
10	5326	1964.650114818076	66.975635698576
10	5347	1970.373515459265	64.527280361528
10	5351	1971.831536743732	64.683465575432
10	5365	1976.183779878801	68.103991983145
10	5366	1978.339204364071	69.850587334811
10	5367	1979.14328669376	69.89536217054
10	5368	1979.91948484618	70.47479753626
10	5371	1981.811077372518	72.054751440441
10	5377	1985.095514335119	73.31035818776
10	5378	1986.192424166909	74.254903765246
10	5393	1992.963703052427	80.146303788875
10	5396	1994.741007781048	81.629652352862
10	5397	1995.292632382217	82.018784958991
10	5408	1999.209698043651	82.824069827196
10	5409	1999.655231057364	77.171923324596
11	5412	2000	0.474
12	5412	2000	0.4095

