version 2
run Monotonicity_test_recover_rate-274-20221219-18:28:08-15851
attr configname Monotonicity_test_recover_rate
attr datetime 20221219-18:28:08
attr experiment Monotonicity_test_recover_rate
attr inifile omnetpp.ini
attr iterationvars $0=50
attr iterationvarsf 50-
attr measurement $0=50
attr network Network
attr processid 15851
attr repetition 74
attr replication #74
attr resultdir results
attr runnumber 274
attr seedset 74
param *.minion.arrival_mean 2
param *.minion.service_mean 1.5
param *.boss.arrival_mean 2.5
param *.boss.service_mean 0.5
param *.player.recover_rate_x 50
param **.minion.arrival_distribution 0
param **.minion.service_distribution 0
param **.boss.arrival_distribution 0
param **.boss.service_distribution 0

scalar Network.player boss_throughput:mean 0.4115
attr source signal_boss_throughput
scalar Network.player boss_throughput:last 0.4115
attr source signal_boss_throughput
scalar Network.player boss_defeated_stat:count 824
attr source signal_boss_defeated
scalar Network.player boss_defeated_stat:mean 411.5
attr source signal_boss_defeated
scalar Network.player boss_waiting_time_stat:mean 0.13369062037153
attr source signal_boss_waiting_time
scalar Network.player boss_response_time_stat:mean 0.61688446162383
attr source signal_boss_response_time
scalar Network.player minion_throughput:mean 0.4855
attr source signal_minion_throughput
scalar Network.player minion_throughput:last 0.4855
attr source signal_minion_throughput
scalar Network.player minion_recovered_stat:count 673
attr source signal_minion_recovered
scalar Network.player minion_recovered_stat:mean 336
attr source signal_minion_recovered
scalar Network.player minion_defeated_stat:count 972
attr source signal_minion_defeated
scalar Network.player minion_defeated_stat:mean 485.5
attr source signal_minion_defeated
scalar Network.player minion_waiting_time_stat:mean 35.251171878409
attr source signal_minion_waiting_time
scalar Network.player minion_response_time_stat:mean 36.340071846325
attr source signal_minion_response_time

