file 380944 1671470847                                          
version 2
run Monotonicity_test_recover_rate-75-20221219-18:27:27-14842
attr configname Monotonicity_test_recover_rate
attr datetime 20221219-18:27:27
attr experiment Monotonicity_test_recover_rate
attr inifile omnetpp.ini
attr iterationvars $0=0
attr iterationvarsf 0-
attr measurement $0=0
attr network Network
attr processid 14842
attr repetition 75
attr replication #75
attr resultdir results
attr runnumber 75
attr seedset 75
param *.minion.arrival_mean 2
param *.minion.service_mean 1.5
param *.boss.arrival_mean 2.5
param *.boss.service_mean 0.5
param *.player.recover_rate_x 0
param **.minion.arrival_distribution 0
param **.minion.service_distribution 0
param **.boss.arrival_distribution 0
param **.boss.service_distribution 0

vector 0 Network.player minion_jobs_number_stat:vector ETV
attr source signal_minion_jobs_number
vector 1 Network.player minion_jobs_queue_number_stat:vector ETV
attr source signal_minion_jobs_queue_number
vector 2 Network.player minion_recovered_stat:vector ETV
attr source signal_minion_recovered
vector 3 Network.player minion_defeated_stat:vector ETV
attr source signal_minion_defeated
vector 4 Network.player boss_jobs_number_stat:vector ETV
attr source signal_boss_jobs_number
vector 5 Network.player boss_jobs_queue_number_stat:vector ETV
attr source signal_boss_jobs_queue_number
vector 6 Network.player boss_defeated_stat:vector ETV
attr source signal_boss_defeated
vector 7 Network.player minion_waiting_time_stat:vector ETV
attr source signal_minion_waiting_time
vector 8 Network.player minion_response_time_stat:vector ETV
attr source signal_minion_response_time
vector 9 Network.player boss_waiting_time_stat:vector ETV
attr source signal_boss_waiting_time
vector 10 Network.player boss_response_time_stat:vector ETV
attr source signal_boss_response_time
vector 11 Network.player minion_throughput:vector ETV
attr source signal_minion_throughput
vector 12 Network.player boss_throughput:vector ETV
attr source signal_boss_throughput
0	1984 27719 0 5576 0 1997.385374591619 1033 0 50 20805 626333
1	29703 54614 0 5580 0 1999.964161098434 2035 0 49 39111 1162955
2	84317 17515 0 5578 0 1998.30970635326 628 0 627 196878 82360630
3	101832 28141 0 5580 0 1999.964161098434 1003 0 1002 502503 335839505
4	129973 21891 0 5578 0 1998.30970635326 839 0 4 1061 1603
5	151864 43779 0 5579 0 1998.494191727759 1677 0 3 446 638
6	195643 23464 0 5579 0 1998.494191727759 839 0 838 351541 196511419
7	219107 64174 2 5580 1.199760249446 1999.964161098434 1630 0 54.812592229996 35923.878366639 1201401.3016773
8	283281 39879 5 5580 1.816864306619 1999.964161098434 1002 0.02286557471 55.43001605323 22928.660757326 778963.25297641
9	323160 24212 10 5578 2.528435690953 1998.30970635326 838 0 2.314095247542 103.60307572911 101.43934757222
10	347372 33533 11 5579 3.221879818278 1998.494191727759 838 0.000982827858 3.404337114292 510.93319242453 580.15626492009
11	380905 19 5581 5581 2000 2000 1 0.501 0.501 0.501 0.251001
12	380924 19 5581 5581 2000 2000 1 0.419 0.419 0.419 0.175561

