version 2
run Monotonicity_test_recover_rate-58-20221219-18:27:24-14757
attr configname Monotonicity_test_recover_rate
attr datetime 20221219-18:27:24
attr experiment Monotonicity_test_recover_rate
attr inifile omnetpp.ini
attr iterationvars $0=0
attr iterationvarsf 0-
attr measurement $0=0
attr network Network
attr processid 14757
attr repetition 58
attr replication #58
attr resultdir results
attr runnumber 58
attr seedset 58
param *.minion.arrival_mean 2
param *.minion.service_mean 1.5
param *.boss.arrival_mean 2.5
param *.boss.service_mean 0.5
param *.player.recover_rate_x 0
param **.minion.arrival_distribution 0
param **.minion.service_distribution 0
param **.boss.arrival_distribution 0
param **.boss.service_distribution 0

vector 0 Network.player minion_jobs_number_stat:vector ETV
attr source signal_minion_jobs_number
vector 1 Network.player minion_jobs_queue_number_stat:vector ETV
attr source signal_minion_jobs_queue_number
vector 2 Network.player minion_recovered_stat:vector ETV
attr source signal_minion_recovered
vector 3 Network.player minion_defeated_stat:vector ETV
attr source signal_minion_defeated
vector 4 Network.player boss_jobs_number_stat:vector ETV
attr source signal_boss_jobs_number
vector 5 Network.player boss_jobs_queue_number_stat:vector ETV
attr source signal_boss_jobs_queue_number
vector 6 Network.player boss_defeated_stat:vector ETV
attr source signal_boss_defeated
vector 7 Network.player boss_waiting_time_stat:vector ETV
attr source signal_boss_waiting_time
vector 8 Network.player boss_response_time_stat:vector ETV
attr source signal_boss_response_time
vector 9 Network.player minion_waiting_time_stat:vector ETV
attr source signal_minion_waiting_time
vector 10 Network.player minion_response_time_stat:vector ETV
attr source signal_minion_response_time
vector 11 Network.player minion_throughput:vector ETV
attr source signal_minion_throughput
vector 12 Network.player boss_throughput:vector ETV
attr source signal_boss_throughput
0	0	0	0
0	4	0.792306177837	1
0	17	3.825803712665	1
0	19	4.675523841243	2
0	22	6.686767147851	2
0	24	6.999620431668	3
0	26	7.820391202698	4
0	32	9.933452867052	4
0	37	11.214108107926	4
0	41	11.957940681905	4
0	43	13.577440393294	5
0	45	14.245859623067	6
0	48	15.614301754247	6
0	55	19.380248993268	2
0	57	19.431475659231	3
0	62	21.086169669329	4
0	64	21.115713353566	5
0	67	21.272213239818	5
0	74	22.917925955662	6
0	78	24.62162722144	6
0	81	26.815356671902	6
0	85	29.200771581415	5
0	89	33.493750491173	4
0	91	33.917364646808	5
0	93	35.413050980281	6
0	95	35.901712558455	7
0	97	36.177117429655	8
0	99	36.354048653585	9
0	102	42.043532648836	9
0	108	43.892934351411	9
0	116	47.596841516323	9
0	119	49.148314661837	10
0	121	51.125923709268	11
0	124	52.23654421246	11
0	129	53.853202661125	12
0	131	54.328342366412	13
0	133	54.634422563016	14
0	151	60.558194976625	11
0	154	60.919057479699	11
0	158	63.351542544129	12
0	168	67.249772345314	12
0	181	71.674930540401	11
0	184	75.000619448102	11
0	190	76.369901695691	11
0	193	76.876600668982	11
0	195	77.508301849478	12
0	197	78.515886482772	13
0	208	80.62103121271	11
0	213	81.956346161232	9
0	223	83.408664695037	8
0	226	85.649425644788	8
0	231	87.252283010963	8
0	233	87.349874368357	9
0	236	88.419279426642	10
0	242	89.409971195084	10
0	246	89.504084082078	11
0	257	95.446690165087	10
0	259	95.458382163294	11
0	261	95.519390158197	12
0	263	96.904249526221	13
0	266	97.56077925308	13
0	268	97.949084128419	14
0	270	98.471462049777	15
0	273	99.857142751367	15
0	276	100.367914101979	15
0	278	101.652972225251	16
0	286	104.335479663146	11
0	291	104.75132800536	12
0	302	106.734223514479	10
0	304	107.395847649893	11
0	310	109.66549024162	11
0	312	110.471972436221	12
0	319	112.584475204004	11
0	323	113.119990659243	12
0	325	113.231055290539	13
0	332	114.921144016803	13
0	337	115.884477825181	14
0	339	116.416167858798	15
0	341	116.482295771483	16
0	345	119.852925250249	15
0	355	123.146397321479	11
0	359	125.349888547413	10
0	367	128.321177317193	11
0	370	130.226875085873	11
0	385	137.695333915515	8
0	389	139.657019833654	7
0	393	140.018651448918	6
0	398	142.172392799949	4
0	405	143.261314985785	3
0	407	143.325392284119	4
0	409	144.047177208748	5
0	411	145.327323629457	6
0	413	145.528421630768	7
0	418	147.095198908788	5
0	420	147.185760496993	6
0	422	147.930196523338	7
0	430	153.593043629015	5
0	437	159.000731510332	4
0	439	160.579022549217	5
0	441	161.081966840538	6
0	444	162.412330216431	6
0	451	165.221588803489	2
0	456	167.724057906356	3
0	458	168.057041292888	4
0	460	169.11841504954	5
0	462	169.560501047083	6
0	473	172.691612892859	6
0	479	174.424010049171	7
0	489	182.865806967889	3
0	503	189.002496794201	1
0	508	189.392158305292	2
0	516	190.388983468451	2
0	519	191.431909625886	3
0	527	192.623688931803	4
0	530	193.017787720467	4
0	533	193.908427861315	4
0	538	196.326776286382	5
0	544	198.944728836223	4
0	546	199.001822844997	5
0	548	199.150483070274	6
0	550	199.405854730414	7
0	553	200.358947603243	8
0	556	201.620512483109	8
0	560	201.993786696271	9
0	563	202.899188553954	10
0	566	204.585142244709	10
0	571	205.857868772458	11
0	579	210.440876779626	8
0	583	211.106601770612	8
0	585	213.055500139171	9
0	595	217.616741330957	7
0	604	221.380265458079	8
0	606	221.92745090075	9
0	610	222.870385951964	10
0	616	224.961251384325	8
0	634	235.829034599031	2
0	638	236.588920677055	1
0	641	238.463895085844	1
0	644	239.912768299909	1
0	646	240.951120310235	2
0	652	242.135003349099	2
0	655	242.965012273121	2
0	671	251.892140720213	1
0	680	259.690016403941	1
0	683	259.801816408378	1
0	688	261.711975730427	1
0	691	263.106804814935	2
0	704	268.218429403724	1
0	722	274.331349948169	1
0	724	276.570183523033	2
0	735	278.450798257054	2
0	738	280.682537741526	3
0	740	283.267259795413	4
0	746	286.66017445217	4
0	752	287.660679984055	5
0	759	291.870820258489	6
0	761	293.033002698216	7
0	773	295.49586846798	4
0	778	296.121695531341	5
0	781	298.056613358632	5
0	787	300.774285638146	5
0	789	301.465487860522	6
0	798	303.71733412545	6
0	801	305.60757759394	6
0	803	305.737866532291	7
0	805	306.172386612218	8
0	807	306.466679152086	9
0	814	308.662716490994	8
0	817	309.508208060175	8
0	830	313.330857336248	7
0	833	314.649925932553	7
0	835	315.231486492596	8
0	838	316.840669435745	8
0	842	317.541668401952	9
0	846	318.033386840822	10
0	850	320.893931168923	11
0	870	329.035996513567	6
0	874	330.034311641293	5
0	879	333.056339141126	6
0	882	334.000716276771	6
0	894	336.394836327435	3
0	908	343.803578352183	1
0	928	349.081567925665	1
0	931	349.972642016069	2
0	940	356.396629413118	2
0	946	358.575607929824	3
0	948	358.884013985759	4
0	951	361.109855177687	5
0	960	364.741441117076	3
0	965	367.447061209154	4
0	970	370.670292113186	5
0	983	376.026150015532	4
0	990	378.494907839413	3
0	992	379.381450021087	4
0	1007	382.839494114096	4
0	1009	384.629789937143	5
0	1011	384.781436112536	6
0	1014	385.584708623213	6
0	1020	388.35107470338	6
0	1023	388.546138882496	6
0	1031	393.105327654878	6
0	1039	397.561053949395	5
0	1045	402.817013561582	5
0	1047	403.022025738071	6
0	1054	404.901863252589	5
0	1056	405.660244332277	6
0	1060	410.145961110463	5
0	1063	410.750250062272	5
0	1071	411.917062529712	6
0	1073	411.918252597073	7
0	1080	414.397290028812	3
0	1091	418.914646259011	1
0	1099	421.724053706575	1
0	1101	421.775616985254	2
0	1103	422.497627860449	3
0	1105	422.649933338059	4
0	1109	423.104359923447	5
0	1112	424.801454661656	6
0	1115	425.41696486693	7
0	1125	428.38176139134	8
0	1129	429.890744139782	8
0	1131	429.903962515964	9
0	1138	434.073517061405	8
0	1144	434.518479675729	7
0	1149	434.846391238635	6
0	1151	434.867552487216	7
0	1157	438.6027231831	7
0	1162	440.34580557216	8
0	1169	442.118839325268	7
0	1171	442.778544662488	8
0	1174	443.525077098882	8
0	1176	443.604875386274	9
0	1180	444.403343708693	10
0	1182	444.483669659329	11
0	1188	446.378920827186	12
0	1200	451.968523341748	9
0	1211	455.697317116473	6
0	1213	455.796684730838	7
0	1216	456.588938540225	8
0	1219	457.458396599766	8
0	1221	457.886011029945	9
0	1224	459.048760423695	9
0	1226	459.653109570917	10
0	1229	460.834405308809	10
0	1232	461.317954419482	10
0	1234	461.938742385385	11
0	1236	462.099652893172	12
0	1246	463.486201222524	11
0	1250	465.58637452952	12
0	1257	468.090228684233	12
0	1265	471.409807209687	12
0	1269	473.064649621872	12
0	1273	474.515131432989	13
0	1275	474.963750953511	14
0	1277	475.040662894568	15
0	1284	477.408056587876	15
0	1287	477.556649350561	15
0	1291	478.182136593846	16
0	1295	479.608193852678	16
0	1310	488.420718690997	12
0	1317	490.332264324726	11
0	1325	494.712105589613	10
0	1329	496.493104975733	9
0	1337	497.231866648667	10
0	1339	497.876717818695	11
0	1343	498.539097915746	12
0	1347	500.389473208706	12
0	1350	501.347163982446	12
0	1352	501.694128316078	13
0	1357	502.404925080862	14
0	1359	502.500817343602	15
0	1374	507.177993000341	12
0	1376	508.016754835635	13
0	1380	509.240514714477	14
0	1386	511.384168220048	15
0	1393	516.378861857151	16
0	1400	519.473757622135	17
0	1409	522.556922168355	16
0	1421	526.220398121098	13
0	1426	526.527821901635	14
0	1437	528.665003490897	13
0	1447	532.398956090179	14
0	1451	533.175743851681	13
0	1459	535.468171072588	14
0	1473	539.515717197062	14
0	1482	546.620737034897	13
0	1495	551.419613463277	11
0	1498	552.664791390765	11
0	1505	556.190151421433	10
0	1516	559.241351935656	11
0	1519	560.300133415203	11
0	1537	569.634902969213	11
0	1539	569.778020104165	12
0	1541	570.769674834642	13
0	1551	576.709114667513	9
0	1560	579.188184244416	6
0	1567	581.703598531693	5
0	1573	584.538485376354	5
0	1589	592.041185705439	1
0	1591	592.372687197471	2
0	1604	597.731111263568	1
0	1606	597.886624902397	2
0	1608	597.977892675056	3
0	1614	599.632438449569	3
0	1616	599.876640758518	4
0	1619	601.018949537586	4
0	1621	601.409297889379	5
0	1628	604.943607171662	4
0	1630	605.790422767605	5
0	1639	611.011278380715	2
0	1647	613.748750162674	3
0	1650	614.437338515987	3
0	1661	617.501433121147	3
0	1666	618.820309210516	2
0	1668	619.658955597384	3
0	1675	622.598844276215	2
0	1677	623.223541668744	3
0	1679	623.418007369174	4
0	1681	623.643861025972	5
0	1684	624.334293885704	5
0	1702	633.428324247895	1
0	1706	636.607380370695	1
0	1710	638.431457310464	2
0	1714	640.20034917391	2
0	1720	641.26144899567	2
0	1722	641.390453253058	3
0	1725	642.467030090919	3
0	1727	643.120185537657	4
0	1729	643.355509259643	5
0	1733	644.643700779091	6
0	1739	645.392333750218	7
0	1743	645.692222934369	8
0	1749	647.137631358938	9
0	1751	647.588303285738	10
0	1771	661.705696731681	2
0	1775	662.752731212973	1
0	1777	663.12688349144	2
0	1787	666.353942895163	1
0	1790	669.183515938752	1
0	1792	669.453463106854	2
0	1796	672.395443179744	1
0	1802	678.237070679288	1
0	1808	682.148434349972	1
0	1811	684.11532582133	1
0	1813	684.216445732243	2
0	1815	684.231754220029	3
0	1821	687.370218403852	3
0	1825	692.787299051837	2
0	1828	693.566993431375	2
0	1831	695.337992185603	2
0	1834	696.708632639095	2
0	1838	697.780598502389	3
0	1847	699.745005379866	4
0	1850	700.852712164858	5
0	1852	700.853696980089	6
0	1855	701.219520108721	7
0	1859	704.115890878688	7
0	1863	705.748138858586	6
0	1877	712.336459768122	4
0	1879	712.802739802057	5
0	1891	717.714747299468	5
0	1897	720.937211489174	5
0	1899	721.063873632572	6
0	1901	723.220236667984	7
0	1909	724.730460664533	8
0	1921	728.24182259546	8
0	1923	729.010023614842	9
0	1926	729.787328324325	9
0	1935	732.819650956929	9
0	1937	733.914743550133	10
0	1939	735.55875882768	11
0	1949	738.123714922735	12
0	1952	738.792750109349	13
0	1959	743.26634691677	12
0	1972	747.801114859438	11
0	1974	748.407863923272	12
0	1977	749.092572654879	12
0	1982	755.452710264394	13
0	1985	758.81499846372	13
0	1987	759.522535313256	14
0	2004	766.426436158022	11
0	2010	771.185264051895	9
0	2021	774.428715899365	7
0	2034	776.952798728042	5
0	2041	779.096495818622	6
0	2048	781.67339657755	7
0	2050	785.707979203492	8
0	2056	789.744373321336	5
0	2063	794.93041502438	4
0	2066	798.283467487641	4
0	2068	798.86846336961	5
0	2079	806.315075918893	3
0	2081	807.062513745633	4
0	2085	812.351450742292	3
0	2094	817.158627045193	3
0	2099	819.013535586829	4
0	2101	820.319562179619	5
0	2103	820.445956507713	6
0	2106	821.148422116017	6
0	2109	821.959013427286	6
0	2115	822.615545176702	6
0	2117	822.964379553262	7
0	2133	829.754013342869	3
0	2150	840.348089645133	1
0	2153	844.940538589814	1
0	2155	846.622299743386	2
0	2170	849.388468441769	1
0	2176	851.340883839307	2
0	2178	852.191410794306	3
0	2181	852.924694251719	3
0	2183	853.193816103899	4
0	2189	854.472571526333	5
0	2205	860.14249937787	3
0	2208	861.006025933171	3
0	2211	862.61869191681	3
0	2219	864.195889845403	4
0	2221	864.644873856962	5
0	2238	869.416111340945	3
0	2240	869.979605658151	4
0	2248	872.485940647342	1
0	2255	875.22269246404	1
0	2274	880.861627564399	2
0	2277	881.311868657639	3
0	2281	882.618609794847	4
0	2289	886.960877037379	3
0	2292	887.416309561022	3
0	2294	887.435474914913	4
0	2299	891.095712690653	5
0	2320	898.962002874014	2
0	2323	899.158824046852	2
0	2330	901.041525972664	1
0	2332	901.17779048627	2
0	2335	901.909389834965	2
0	2337	903.108169561425	3
0	2339	904.042604903273	4
0	2345	905.388540965419	3
0	2348	905.880971957585	4
0	2351	906.33950632874	4
0	2354	906.352205307874	4
0	2356	907.554732929014	5
0	2363	912.284216152835	4
0	2366	913.006606991103	4
0	2368	913.11595902247	5
0	2372	913.263351660051	6
0	2375	913.815341658103	7
0	2378	914.562224766911	7
0	2381	915.956741425845	7
0	2385	917.445280155346	6
0	2397	922.173402103969	3
0	2399	922.611844824504	4
0	2401	924.300629661645	5
0	2407	927.52988461851	5
0	2413	929.286893471288	5
0	2418	934.04753036811	3
0	2426	938.714957375512	1
0	2433	939.253665375269	2
0	2443	941.940522742017	2
0	2447	943.265183913049	3
0	2464	947.696964596104	2
0	2466	947.901351056098	3
0	2469	950.519957328164	3
0	2474	951.698778038457	3
0	2486	959.314381965844	1
0	2490	959.875480483686	2
0	2510	969.917468427365	1
0	2512	970.133423740932	2
0	2523	972.1611866225	2
0	2529	973.11964075049	3
0	2534	975.6581074925	4
0	2538	976.418356450011	5
0	2541	977.401014773341	6
0	2543	977.426327274713	7
0	2545	977.916192660171	8
0	2551	978.459878358809	9
0	2553	978.744054840665	10
0	2555	978.917019559034	11
0	2559	979.422294281301	12
0	2561	979.532806016237	13
0	2564	980.354929814594	13
0	2567	981.07538268505	13
0	2570	981.543682338908	13
0	2578	986.932037661985	13
0	2581	987.470622914066	14
0	2583	988.853285931037	15
0	2591	992.161330287434	13
0	2593	993.410989930526	14
0	2610	1000.659753385959	11
0	2613	1001.542894502759	12
0	2625	1003.494333456239	11
0	2629	1005.454668430879	12
0	2648	1012.618076519849	13
0	2650	1012.856850736079	14
0	2654	1014.017558466807	13
0	2656	1015.982543312292	14
0	2658	1017.922599809289	15
0	2669	1020.608710499783	13
0	2672	1021.123096387555	13
0	2681	1023.911465109091	10
0	2684	1024.821218976082	10
0	2689	1026.511707959657	8
0	2691	1027.692100890361	9
0	2693	1030.281726388612	10
0	2695	1030.437630067313	11
0	2699	1031.478316258834	12
0	2709	1035.343882662468	12
0	2714	1037.673885132148	13
0	2717	1038.518629156577	13
0	2724	1045.937474216307	9
0	2727	1047.103826578646	9
0	2741	1054.714220202457	1
0	2743	1058.294971122334	2
0	2750	1061.518446519069	1
0	2753	1063.912940690965	1
0	2755	1064.011731308939	2
0	2757	1064.922080682577	3
0	2759	1065.268585232415	4
0	2767	1066.776278943129	5
0	2769	1066.826988109907	6
0	2774	1070.738782429057	4
0	2782	1074.012483108599	5
0	2792	1076.527467778584	6
0	2794	1076.661536146529	7
0	2800	1080.347743193046	8
0	2804	1085.195601004313	7
0	2809	1088.605125394093	8
0	2815	1089.750098605262	5
0	2819	1090.644289166601	4
0	2822	1091.080413683497	4
0	2826	1091.662655715043	3
0	2828	1091.854804495952	4
0	2834	1095.387594328225	4
0	2836	1095.662878969626	5
0	2841	1097.893791008547	6
0	2844	1098.288479939986	6
0	2846	1098.403328278941	7
0	2856	1100.428545031812	8
0	2859	1102.263038711975	9
0	2861	1102.556772111493	10
0	2863	1102.619011711195	11
0	2865	1102.91674275146	12
0	2867	1104.632901345375	13
0	2871	1105.813120465486	12
0	2874	1106.563693744296	12
0	2890	1113.679100494446	5
0	2894	1114.798858703609	6
0	2896	1114.916092641362	7
0	2899	1115.571465033105	8
0	2901	1115.889429312399	9
0	2915	1121.466570386735	6
0	2918	1122.424820562994	7
0	2925	1126.874283643725	8
0	2930	1127.762966597373	9
0	2937	1129.097393113303	9
0	2940	1131.077605254214	9
0	2944	1131.714617962687	10
0	2960	1137.56397734427	4
0	2968	1141.146454791418	2
0	2970	1141.349925318685	3
0	2973	1141.64947263424	3
0	2975	1142.133141489909	4
0	2978	1142.59830404699	4
0	2981	1146.315210216294	4
0	2983	1146.540164545617	5
0	2985	1147.729559270312	6
0	2994	1150.888203475758	3
0	2999	1152.261597685188	3
0	3001	1153.650840285871	4
0	3012	1155.204912276852	4
0	3026	1162.718519579072	1
0	3028	1162.830120498795	2
0	3035	1168.587064095511	1
0	3037	1169.097264654068	2
0	3047	1175.764398351672	1
0	3053	1178.207729902891	1
0	3055	1178.208991665953	2
0	3057	1178.65541250038	3
0	3059	1180.400570819391	4
0	3061	1183.044572740583	5
0	3065	1183.512647906069	6
0	3070	1184.427079109338	7
0	3073	1186.633995468629	8
0	3080	1189.748810149891	7
0	3086	1193.598969895943	7
0	3092	1195.008387528875	7
0	3094	1195.941892328811	8
0	3096	1196.291675648356	9
0	3098	1196.366347794894	10
0	3109	1202.355385771025	8
0	3114	1206.898419455533	6
0	3118	1208.16063923729	7
0	3120	1209.042196169398	8
0	3126	1209.973231904988	8
0	3141	1213.654219943854	6
0	3144	1215.843824930394	6
0	3146	1216.377065759224	7
0	3161	1222.501166576533	1
0	3163	1222.986849175101	2
0	3165	1223.125065604813	3
0	3170	1224.560909733757	4
0	3174	1226.00316341525	3
0	3176	1226.225441435475	4
0	3181	1229.520380633656	5
0	3184	1230.505559400262	5
0	3186	1230.899406491369	6
0	3189	1233.468296318165	6
0	3195	1236.288125899353	6
0	3198	1237.342559068505	6
0	3202	1239.728795775433	5
0	3204	1239.840417574317	6
0	3207	1241.357500015027	6
0	3209	1244.382365050369	7
0	3223	1247.643904843532	8
0	3229	1251.452276728259	5
0	3231	1251.887406713137	6
0	3233	1254.509958746009	7
0	3237	1255.336103138196	8
0	3240	1255.760626918799	9
0	3244	1257.452676719056	8
0	3246	1259.937828599381	9
0	3250	1261.592088779012	10
0	3252	1262.376480248999	11
0	3255	1262.795460183355	12
0	3261	1264.016887699006	12
0	3263	1264.037170739062	13
0	3275	1267.317225968893	13
0	3283	1269.325002621085	11
0	3285	1269.86126539021	12
0	3288	1270.775174810562	12
0	3291	1271.626658805928	12
0	3297	1273.779885949186	11
0	3303	1277.8395315041	12
0	3306	1278.404385789191	12
0	3308	1278.693422022563	13
0	3310	1278.711514466608	14
0	3312	1278.976468982211	15
0	3314	1279.733380317355	16
0	3316	1281.606291055666	17
0	3318	1281.756620404801	18
0	3324	1282.777460650811	18
0	3333	1285.805730894775	18
0	3339	1290.70753372825	18
0	3346	1292.891128216923	17
0	3348	1293.312577085556	18
0	3364	1302.889313052148	11
0	3366	1303.048908113284	12
0	3368	1303.4856246707	13
0	3370	1303.699642954196	14
0	3372	1303.736560035526	15
0	3374	1304.118359684543	16
0	3377	1306.463338520349	16
0	3382	1308.223780119746	17
0	3384	1308.652077236531	18
0	3390	1311.723523413628	18
0	3392	1312.296490759543	19
0	3394	1312.945527156619	20
0	3409	1316.603972495123	20
0	3415	1319.75322290733	17
0	3417	1320.591231869426	18
0	3426	1323.365322093239	18
0	3429	1324.053712767214	18
0	3443	1331.806005607388	15
0	3445	1331.909132822671	16
0	3451	1332.517178563418	17
0	3463	1338.795810179974	11
0	3465	1338.92694795333	12
0	3467	1339.19211391746	13
0	3475	1340.133657894847	14
0	3489	1349.738637789555	14
0	3500	1351.468377097421	13
0	3503	1352.977353217191	13
0	3506	1353.751237866328	13
0	3509	1354.590075127777	13
0	3512	1356.318270961522	13
0	3519	1359.034175522126	12
0	3524	1360.934717688205	13
0	3527	1361.886411219481	13
0	3530	1363.622003601852	13
0	3534	1364.621391936059	12
0	3541	1367.469112850808	13
0	3543	1367.622553981337	14
0	3547	1368.519273279261	14
0	3551	1368.675315603135	15
0	3558	1370.884512497388	16
0	3561	1371.824922650841	17
0	3567	1372.783375206479	18
0	3569	1373.565305128482	19
0	3573	1375.597842536671	18
0	3583	1380.517685952432	14
0	3598	1384.333128898249	11
0	3604	1385.459502490134	11
0	3606	1385.590922369747	12
0	3613	1389.39188274896	11
0	3619	1391.161510025809	11
0	3627	1395.988326180306	9
0	3631	1396.817899892653	10
0	3634	1397.748680598465	11
0	3640	1399.95067502721	11
0	3645	1400.076904811862	11
0	3648	1400.316653911755	12
0	3650	1400.359529313416	13
0	3655	1401.846828161029	13
0	3661	1404.501977229008	14
0	3677	1410.829030959412	7
0	3680	1412.122388724199	7
0	3682	1412.296720583812	8
0	3684	1412.457695078795	9
0	3695	1416.769862909478	9
0	3702	1420.148442209915	6
0	3704	1420.460360459768	7
0	3712	1422.423235710171	7
0	3722	1426.698132847118	7
0	3725	1430.179943019286	7
0	3730	1432.397676050936	7
0	3735	1433.141414545455	8
0	3739	1435.122645157586	8
0	3742	1437.032262907654	8
0	3747	1437.659960268194	9
0	3749	1438.264566103757	10
0	3762	1443.080054800698	9
0	3764	1443.207599262763	10
0	3766	1443.334821987247	11
0	3772	1445.692352658977	11
0	3785	1451.793438978544	12
0	3795	1455.295298208786	12
0	3806	1459.110992078956	11
0	3808	1459.352886610658	12
0	3810	1459.998072103354	13
0	3813	1460.342001319946	14
0	3818	1462.822022317838	15
0	3825	1463.84212412101	15
0	3829	1465.447310858613	14
0	3831	1465.63613274973	15
0	3833	1465.770300161692	16
0	3840	1470.240107254	15
0	3848	1473.924834420102	16
0	3853	1476.803755906751	14
0	3858	1478.033169444499	15
0	3869	1487.851423541411	13
0	3872	1488.547379691501	13
0	3888	1493.690589215507	11
0	3891	1495.067327043404	12
0	3893	1495.180393647354	13
0	3895	1495.646697658758	14
0	3897	1496.278231649861	15
0	3903	1499.540637521371	15
0	3909	1502.092391830929	15
0	3913	1502.958298465262	16
0	3916	1503.213895109749	17
0	3920	1503.947005231456	16
0	3924	1505.49503345609	15
0	3926	1506.088109048801	16
0	3928	1506.505405517843	17
0	3930	1506.596284593246	18
0	3948	1514.116282962069	17
0	3957	1517.088338094455	15
0	3960	1517.305876455316	15
0	3963	1518.17778739421	15
0	3966	1518.697133732511	15
0	3973	1519.862912980657	16
0	3975	1520.353437639823	17
0	3977	1520.599234805941	18
0	3983	1523.119959050512	19
0	3985	1523.849149794518	20
0	3995	1525.883959037955	21
0	3997	1526.206157880852	22
0	3999	1526.226639175646	23
0	4009	1529.666298986796	23
0	4011	1529.875580723535	24
0	4024	1535.314725393487	23
0	4026	1535.326487908811	24
0	4029	1537.400298601137	24
0	4034	1537.826490831063	25
0	4037	1538.382330592737	25
0	4042	1542.248333774488	23
0	4044	1543.080502404128	24
0	4046	1543.642458842816	25
0	4051	1545.0449184893	23
0	4056	1547.849982057347	21
0	4061	1549.728912466598	22
0	4068	1552.850637582159	21
0	4070	1553.350506714339	22
0	4082	1558.967551177222	21
0	4087	1559.674729527487	20
0	4102	1564.57101455663	19
0	4105	1564.720485664186	20
0	4107	1564.958074700422	21
0	4117	1567.628215675712	21
0	4119	1567.695036854008	22
0	4121	1568.565584937934	23
0	4124	1568.951658522196	24
0	4129	1570.516954546842	23
0	4132	1570.854746234896	23
0	4137	1571.855189764287	23
0	4142	1572.370728431435	24
0	4145	1573.512507467308	25
0	4148	1575.083908069701	25
0	4152	1575.365676788742	26
0	4157	1575.750039460774	27
0	4160	1576.525963329993	28
0	4167	1581.428776842418	26
0	4170	1584.052534008836	27
0	4176	1585.687733429182	24
0	4180	1587.029681492288	23
0	4187	1590.236667155498	22
0	4190	1593.551013435948	22
0	4192	1594.610920742561	23
0	4203	1599.518990327772	21
0	4206	1600.679247268366	21
0	4214	1604.82675655208	19
0	4220	1605.748249078875	20
0	4223	1606.470039712599	21
0	4226	1607.943057707358	22
0	4236	1609.808379341513	21
0	4238	1610.891158344338	22
0	4244	1612.507965653797	22
0	4248	1613.010893519453	21
0	4253	1613.644720031796	22
0	4256	1616.090057860405	22
0	4258	1617.152363990861	23
0	4267	1622.714815672417	20
0	4273	1623.724571548346	20
0	4279	1627.523863931805	19
0	4281	1627.784486590275	20
0	4284	1628.801845399197	21
0	4288	1629.654346287235	22
0	4291	1630.098270225356	23
0	4293	1630.162957508652	24
0	4310	1634.851111910082	25
0	4315	1636.034428493441	26
0	4317	1636.04856698593	27
0	4321	1637.601998398489	26
0	4323	1637.766776079245	27
0	4335	1641.898304154995	26
0	4339	1643.429600996982	26
0	4342	1645.043561939434	26
0	4345	1646.482920644382	26
0	4349	1647.125203819501	27
0	4353	1648.620325588934	27
0	4355	1648.676791883572	28
0	4366	1651.243010748703	26
0	4375	1654.96888010452	23
0	4386	1658.796077013053	24
0	4393	1662.59247813048	23
0	4396	1663.52153486016	23
0	4398	1663.914006150446	24
0	4400	1664.581906272742	25
0	4404	1666.097367112919	24
0	4419	1670.890348044111	21
0	4421	1672.211859647299	22
0	4428	1673.523445548466	23
0	4434	1677.604418403875	21
0	4441	1681.641733920528	17
0	4450	1686.258604039291	16
0	4452	1686.435445371539	17
0	4454	1687.302272326699	18
0	4468	1693.087613838667	14
0	4474	1694.602129226412	11
0	4476	1695.170330130206	12
0	4481	1699.603844487515	12
0	4490	1702.058040286663	10
0	4504	1709.460265090059	9
0	4506	1709.533835708337	10
0	4511	1711.837706307727	10
0	4513	1713.208477942535	11
0	4520	1715.715676679171	10
0	4522	1715.89244592589	11
0	4524	1715.977651383451	12
0	4527	1717.789488900388	12
0	4534	1720.301221330361	11
0	4544	1723.692079535117	12
0	4552	1727.914656170152	12
0	4559	1729.198900882263	13
0	4561	1729.859666972393	14
0	4566	1731.724855215912	15
0	4577	1734.895691433425	15
0	4581	1738.04702403791	15
0	4589	1740.035824925102	15
0	4592	1740.595911764027	16
0	4595	1741.587555722805	16
0	4600	1743.829160514459	17
0	4605	1745.302780064923	17
0	4608	1745.739013125794	18
0	4610	1745.783153997819	19
0	4613	1746.105201654994	19
0	4615	1747.460260809798	20
0	4617	1747.761546896948	21
0	4622	1748.604467732431	22
0	4624	1748.854288430653	23
0	4626	1750.012130629112	24
0	4635	1752.125007703602	22
0	4640	1753.08116746201	22
0	4650	1757.329898160454	19
0	4654	1758.853772387593	20
0	4660	1761.3369372151	20
0	4666	1764.536762067363	17
0	4668	1764.745063275232	18
0	4674	1766.009008317315	19
0	4678	1766.606195379732	20
0	4683	1766.795036440198	21
0	4685	1768.081705010157	22
0	4692	1768.851270317907	21
0	4694	1769.211548710604	22
0	4697	1769.919926483882	22
0	4699	1769.963782055388	23
0	4702	1771.136392261959	23
0	4704	1771.302921533304	24
0	4709	1772.832435121726	25
0	4713	1774.0876116693	26
0	4715	1774.726525499531	27
0	4721	1775.516161327038	28
0	4723	1776.065717000664	29
0	4725	1776.177671621761	30
0	4733	1778.759792124939	28
0	4736	1779.956934199045	28
0	4738	1780.670262278261	29
0	4743	1782.84519332972	30
0	4745	1783.20295937652	31
0	4752	1786.387596423064	30
0	4754	1786.617400707904	31
0	4756	1787.079239844328	32
0	4758	1787.28533245354	33
0	4761	1789.046460280239	33
0	4765	1790.399543502834	32
0	4767	1791.879018441617	33
0	4771	1795.080110163151	34
0	4780	1798.973578721612	33
0	4784	1799.962056019351	34
0	4791	1803.090435811166	33
0	4797	1805.973638586297	33
0	4802	1808.370639328666	34
0	4808	1812.538854069579	34
0	4812	1814.525985352456	33
0	4816	1817.122790199795	32
0	4821	1817.685063963707	33
0	4823	1819.495583788258	34
0	4827	1819.966239890101	33
0	4832	1822.138100885139	34
0	4845	1828.041534613271	27
0	4847	1828.597251044134	28
0	4853	1831.344690833476	28
0	4858	1832.461117492105	28
0	4863	1834.148039213869	27
0	4866	1835.603403847052	27
0	4868	1835.797095463344	28
0	4870	1835.906672759951	29
0	4878	1839.079949761908	30
0	4883	1840.332952529786	31
0	4901	1848.484215265654	27
0	4903	1849.792207605438	28
0	4912	1850.834537932835	29
0	4914	1851.549284453384	30
0	4916	1852.352078387905	31
0	4921	1853.472312092976	31
0	4930	1855.697022383332	32
0	4943	1860.41049502713	30
0	4948	1862.878275782578	29
0	4951	1863.401289557342	29
0	4954	1863.830207370289	29
0	4970	1874.092699591762	22
0	4973	1874.515133347574	22
0	4975	1875.359643697607	23
0	4977	1876.335390504828	24
0	4984	1879.405838676672	22
0	4997	1888.367153408631	16
0	4999	1890.075777306745	17
0	5008	1895.312012954934	14
0	5020	1900.312425875671	13
0	5023	1901.347387075373	14
0	5027	1902.955698519218	13
0	5032	1905.724586274577	11
0	5036	1907.164560836503	10
0	5041	1909.164258110388	10
0	5043	1910.348316313923	11
0	5047	1914.572101711112	11
0	5049	1916.043466873854	12
0	5052	1918.3100656894	12
0	5057	1919.395872323086	13
0	5063	1920.560386775685	14
0	5070	1921.412070797651	15
0	5077	1924.004798799397	14
0	5082	1925.801915389304	15
0	5084	1925.977915956015	16
0	5095	1934.435014460036	14
0	5097	1936.838745067658	15
0	5100	1938.297048253552	15
0	5129	1949.852012159026	13
0	5134	1950.741116968405	14
0	5137	1951.214843517474	14
0	5144	1953.733498161887	12
0	5151	1957.33702747768	12
0	5153	1957.799166668353	13
0	5155	1957.941938847989	14
0	5158	1959.400789410758	14
0	5161	1960.69092494851	14
0	5165	1961.434339828435	13
0	5180	1966.275169922063	12
0	5185	1968.55087150817	11
0	5199	1971.341904409391	12
0	5201	1971.411802508482	13
0	5205	1972.547891944241	12
0	5207	1973.215650938516	13
0	5209	1973.406208863513	14
0	5213	1974.272227162903	13
0	5215	1974.677858153455	14
0	5225	1977.484505739659	13
0	5227	1977.870102063327	14
0	5230	1980.999337660587	14
0	5232	1981.691964741578	15
0	5240	1985.370766201921	13
0	5242	1986.300800209863	14
0	5247	1987.680030842883	15
0	5249	1987.868081397573	16
0	5263	1993.444813852073	17
0	5265	1993.469727940581	18
0	5267	1994.572129882207	19
0	5270	1995.369390136999	19
0	5275	1998.301773947154	17
0	5277	1999.533351455141	18
1	0	0	0
1	4	0.792306177837	0
1	6	1.655332763573	0
1	17	3.825803712665	0
1	19	4.675523841243	1
1	20	4.831581864512	1
1	22	6.686767147851	1
1	24	6.999620431668	2
1	26	7.820391202698	3
1	27	8.173015373207	3
1	32	9.933452867052	3
1	33	10.27956373483	3
1	37	11.214108107926	3
1	39	11.798615110667	3
1	41	11.957940681905	3
1	43	13.577440393294	4
1	45	14.245859623067	5
1	46	15.248600493947	5
1	48	15.614301754247	5
1	49	15.824361009655	5
1	50	16.052378351306	4
1	51	16.696029055179	3
1	52	17.159003705958	2
1	53	17.400003095745	1
1	55	19.380248993268	1
1	57	19.431475659231	2
1	62	21.086169669329	3
1	64	21.115713353566	4
1	65	21.226135125869	4
1	67	21.272213239818	4
1	74	22.917925955662	5
1	76	23.753146493623	5
1	78	24.62162722144	5
1	79	25.977123966149	5
1	81	26.815356671902	5
1	82	27.917337804831	5
1	83	29.170244437903	4
1	85	29.200771581415	4
1	86	31.313025184718	4
1	87	33.00465382458	3
1	89	33.493750491173	3
1	91	33.917364646808	4
1	93	35.413050980281	5
1	95	35.901712558455	6
1	97	36.177117429655	7
1	99	36.354048653585	8
1	100	37.854176590911	8
1	102	42.043532648836	8
1	106	43.56887698655	8
1	108	43.892934351411	8
1	112	46.977180359076	8
1	116	47.596841516323	8
1	119	49.148314661837	9
1	121	51.125923709268	10
1	122	51.849827068472	10
1	124	52.23654421246	10
1	129	53.853202661125	11
1	131	54.328342366412	12
1	133	54.634422563016	13
1	137	57.015007591274	13
1	138	57.270368455657	12
1	139	57.351972050123	11
1	143	58.734192500094	10
1	151	60.558194976625	10
1	152	60.685925629088	10
1	154	60.919057479699	10
1	158	63.351542544129	11
1	166	67.212927721906	11
1	168	67.249772345314	11
1	172	68.747668088849	11
1	179	71.293585203886	10
1	181	71.674930540401	10
1	182	72.47736838699	10
1	184	75.000619448102	10
1	188	75.984075857546	10
1	190	76.369901695691	10
1	191	76.647621409196	10
1	193	76.876600668982	10
1	195	77.508301849478	11
1	197	78.515886482772	12
1	201	80.218170677464	12
1	202	80.266928503162	11
1	203	80.523340577414	10
1	208	80.62103121271	10
1	209	81.029112074653	10
1	210	81.852547608548	9
1	211	81.868546079034	8
1	213	81.956346161232	8
1	214	82.081202811211	8
1	221	83.01465315777	7
1	223	83.408664695037	7
1	224	84.177460533448	7
1	226	85.649425644788	7
1	227	85.700254918739	7
1	231	87.252283010963	7
1	233	87.349874368357	8
1	236	88.419279426642	9
1	240	88.932821789517	9
1	242	89.409971195084	9
1	246	89.504084082078	10
1	248	90.282291559441	10
1	249	91.294652531222	9
1	257	95.446690165087	9
1	259	95.458382163294	10
1	261	95.519390158197	11
1	263	96.904249526221	12
1	264	97.129755033745	12
1	266	97.56077925308	12
1	268	97.949084128419	13
1	270	98.471462049777	14
1	271	99.563866390433	14
1	273	99.857142751367	14
1	274	100.12695627649	14
1	276	100.367914101979	14
1	278	101.652972225251	15
1	279	101.981358560449	15
1	280	102.119609990843	14
1	281	102.308172357988	13
1	282	102.400724372622	12
1	283	103.353361027957	11
1	284	103.840200503189	10
1	286	104.335479663146	10
1	291	104.75132800536	11
1	292	104.793082447604	11
1	299	106.217251226141	10
1	300	106.689119191974	9
1	302	106.734223514479	9
1	304	107.395847649893	10
1	308	109.582511763812	10
1	310	109.66549024162	10
1	312	110.471972436221	11
1	313	110.694104572149	11
1	314	111.355985661893	10
1	319	112.584475204004	10
1	323	113.119990659243	11
1	325	113.231055290539	12
1	330	114.597814669645	12
1	332	114.921144016803	12
1	337	115.884477825181	13
1	339	116.416167858798	14
1	341	116.482295771483	15
1	342	118.200762020113	15
1	343	119.688004271044	14
1	345	119.852925250249	14
1	346	120.079007264641	14
1	347	120.949714109247	13
1	351	122.39838290771	12
1	352	122.682328765282	11
1	353	122.805881845616	10
1	355	123.146397321479	10
1	356	123.516665892386	10
1	357	123.596580172649	9
1	359	125.349888547413	9
1	367	128.321177317193	10
1	368	129.023203983315	10
1	370	130.226875085873	10
1	371	131.719425537551	10
1	372	132.453530937877	9
1	382	136.094095768096	8
1	383	137.258376948092	7
1	385	137.695333915515	7
1	386	138.195435044795	7
1	387	139.037293308653	6
1	389	139.657019833654	6
1	390	139.72853513626	6
1	391	139.955844507997	5
1	393	140.018651448918	5
1	394	141.213427700267	5
1	395	141.476505156062	4
1	396	141.697650373113	3
1	398	142.172392799949	3
1	402	142.385313366218	3
1	403	142.812581982082	2
1	405	143.261314985785	2
1	407	143.325392284119	3
1	409	144.047177208748	4
1	411	145.327323629457	5
1	413	145.528421630768	6
1	414	146.15825345189	6
1	415	146.310318299962	5
1	416	146.691653229621	4
1	418	147.095198908788	4
1	420	147.185760496993	5
1	422	147.930196523338	6
1	423	148.421403660572	6
1	424	149.047040273031	5
1	425	150.289355036797	4
1	430	153.593043629015	4
1	434	157.185342394655	4
1	435	157.502206426796	3
1	437	159.000731510332	3
1	439	160.579022549217	4
1	441	161.081966840538	5
1	442	161.290281273989	5
1	444	162.412330216431	5
1	445	163.051614960498	5
1	446	163.455495598648	4
1	447	164.591125314287	3
1	448	164.69387885628	2
1	449	164.935645287289	1
1	451	165.221588803489	1
1	456	167.724057906356	2
1	458	168.057041292888	3
1	460	169.11841504954	4
1	462	169.560501047083	5
1	466	170.854138971632	5
1	473	172.691612892859	5
1	479	174.424010049171	6
1	480	175.635235728754	6
1	481	177.96305432106	5
1	485	178.617752555616	4
1	486	179.191687430848	3
1	487	180.661041436238	2
1	489	182.865806967889	2
1	499	185.626516688495	2
1	500	188.131787932819	1
1	501	188.517011959767	0
1	503	189.002496794201	0
1	508	189.392158305292	1
1	512	189.72048003659	1
1	516	190.388983468451	1
1	519	191.431909625886	2
1	527	192.623688931803	3
1	528	192.752851391749	3
1	530	193.017787720467	3
1	531	193.464284157639	3
1	533	193.908427861315	3
1	538	196.326776286382	4
1	539	197.056091111007	4
1	540	197.308257757992	3
1	544	198.944728836223	3
1	546	199.001822844997	4
1	548	199.150483070274	5
1	550	199.405854730414	6
1	553	200.358947603243	7
1	554	200.577413409312	7
1	556	201.620512483109	7
1	560	201.993786696271	8
1	563	202.899188553954	9
1	564	203.065843185247	9
1	566	204.585142244709	9
1	571	205.857868772458	10
1	572	208.585637707869	10
1	573	208.672334129085	9
1	574	208.686407612312	8
1	575	210.231815327726	7
1	579	210.440876779626	7
1	581	210.660960916397	7
1	583	211.106601770612	7
1	585	213.055500139171	8
1	586	213.908299076735	8
1	587	214.145729277874	7
1	588	214.61188073545	6
1	595	217.616741330957	6
1	604	221.380265458079	7
1	606	221.92745090075	8
1	610	222.870385951964	9
1	612	223.746189870395	9
1	613	224.760556679827	8
1	614	224.893251658486	7
1	616	224.961251384325	7
1	617	225.78404615337	7
1	624	227.856434362486	6
1	625	227.878910735586	5
1	629	232.33991289669	4
1	630	232.762307461517	3
1	631	234.954984138588	2
1	632	235.653922215769	1
1	634	235.829034599031	1
1	635	236.031194449567	1
1	636	236.471241266502	0
1	638	236.588920677055	0
1	639	237.605710197629	0
1	641	238.463895085844	0
1	642	238.636699898519	0
1	644	239.912768299909	0
1	646	240.951120310235	1
1	647	241.052258914034	1
1	652	242.135003349099	1
1	653	242.198225886438	1
1	655	242.965012273121	1
1	656	244.492275921444	1
1	657	244.722900975986	0
1	671	251.892140720213	0
1	672	256.038955929015	0
1	680	259.690016403941	0
1	681	259.723461429345	0
1	683	259.801816408378	0
1	684	260.330715218484	0
1	688	261.711975730427	0
1	691	263.106804814935	1
1	692	264.159205869532	1
1	702	267.195190027568	0
1	704	268.218429403724	0
1	708	269.802578534437	0
1	722	274.331349948169	0
1	724	276.570183523033	1
1	725	276.657339233535	1
1	735	278.450798257054	1
1	738	280.682537741526	2
1	740	283.267259795413	3
1	744	285.908556695039	3
1	746	286.66017445217	3
1	752	287.660679984055	4
1	759	291.870820258489	5
1	761	293.033002698216	6
1	762	293.340358100834	6
1	763	293.445357929464	5
1	764	293.928337463651	4
1	771	295.265310112264	3
1	773	295.49586846798	3
1	778	296.121695531341	4
1	779	297.046023585026	4
1	781	298.056613358632	4
1	782	298.652934100799	4
1	787	300.774285638146	4
1	789	301.465487860522	5
1	796	303.045347363963	5
1	798	303.71733412545	5
1	799	304.229488292831	5
1	801	305.60757759394	5
1	803	305.737866532291	6
1	805	306.172386612218	7
1	807	306.466679152086	8
1	808	307.041550241592	8
1	812	308.083905191878	7
1	814	308.662716490994	7
1	815	309.414133351407	7
1	817	309.508208060175	7
1	818	310.015572683988	7
1	825	312.922240172117	6
1	830	313.330857336248	6
1	831	314.610315927402	6
1	833	314.649925932553	6
1	835	315.231486492596	7
1	836	315.900705034489	7
1	838	316.840669435745	7
1	842	317.541668401952	8
1	846	318.033386840822	9
1	850	320.893931168923	10
1	851	321.351580097477	10
1	852	322.403140311426	9
1	853	323.009597727859	8
1	854	323.169495836964	7
1	861	325.215381841026	6
1	868	328.461716921476	5
1	870	329.035996513567	5
1	871	329.065283752777	5
1	872	329.582558232708	4
1	874	330.034311641293	4
1	879	333.056339141126	5
1	880	333.750636157842	5
1	882	334.000716276771	5
1	883	334.16214721641	5
1	890	335.741303706422	4
1	891	335.93331147199	3
1	892	336.133440691577	2
1	894	336.394836327435	2
1	895	336.799884029689	2
1	899	340.629469461574	1
1	903	342.534445193404	0
1	908	343.803578352183	0
1	909	344.11355834548	0
1	928	349.081567925665	0
1	931	349.972642016069	1
1	935	352.159401901868	1
1	940	356.396629413118	1
1	946	358.575607929824	2
1	948	358.884013985759	3
1	951	361.109855177687	4
1	953	361.474091648707	4
1	954	362.269474674417	3
1	955	363.651561524842	2
1	960	364.741441117076	2
1	965	367.447061209154	3
1	970	370.670292113186	4
1	974	372.701479029209	4
1	975	373.230294199072	3
1	983	376.026150015532	3
1	984	376.322917066904	3
1	985	377.485297360754	2
1	990	378.494907839413	2
1	992	379.381450021087	3
1	996	381.221476588813	3
1	1007	382.839494114096	3
1	1009	384.629789937143	4
1	1011	384.781436112536	5
1	1012	385.06143761164	5
1	1014	385.584708623213	5
1	1018	388.050867352888	5
1	1020	388.35107470338	5
1	1021	388.423971735554	5
1	1023	388.546138882496	5
1	1024	388.546165105039	5
1	1031	393.105327654878	5
1	1036	396.576587908095	5
1	1037	397.435863294259	4
1	1039	397.561053949395	4
1	1043	401.154755381586	4
1	1045	402.817013561582	4
1	1047	403.022025738071	5
1	1048	403.382270848049	5
1	1049	403.532411367581	4
1	1054	404.901863252589	4
1	1056	405.660244332277	5
1	1057	406.468307085378	5
1	1058	409.963293544978	4
1	1060	410.145961110463	4
1	1061	410.661305889039	4
1	1063	410.750250062272	4
1	1071	411.917062529712	5
1	1073	411.918252597073	6
1	1074	412.319779257174	6
1	1075	412.644239745278	5
1	1076	413.349063857632	4
1	1077	413.909985762554	3
1	1078	414.020133701213	2
1	1080	414.397290028812	2
1	1084	415.163305246816	2
1	1085	415.60646974139	1
1	1086	415.857392968766	0
1	1091	418.914646259011	0
1	1095	419.591185126881	0
1	1099	421.724053706575	0
1	1101	421.775616985254	1
1	1103	422.497627860449	2
1	1105	422.649933338059	3
1	1109	423.104359923447	4
1	1112	424.801454661656	5
1	1115	425.41696486693	6
1	1125	428.38176139134	7
1	1127	429.726757889538	7
1	1129	429.890744139782	7
1	1131	429.903962515964	8
1	1132	430.080357047544	8
1	1136	432.813585629944	7
1	1138	434.073517061405	7
1	1139	434.139554088863	7
1	1140	434.308409283522	6
1	1144	434.518479675729	6
1	1146	434.783055230666	6
1	1147	434.837642236302	5
1	1149	434.846391238635	5
1	1151	434.867552487216	6
1	1155	436.827457833093	6
1	1157	438.6027231831	6
1	1162	440.34580557216	7
1	1163	440.38805876569	7
1	1164	440.692269378241	6
1	1169	442.118839325268	6
1	1171	442.778544662488	7
1	1172	443.104573281073	7
1	1174	443.525077098882	7
1	1176	443.604875386274	8
1	1180	444.403343708693	9
1	1182	444.483669659329	10
1	1188	446.378920827186	11
1	1192	448.184881731439	11
1	1196	450.233400703254	10
1	1197	451.070944091181	9
1	1198	451.075925356793	8
1	1200	451.968523341748	8
1	1201	452.657506495588	8
1	1202	452.775080359726	7
1	1203	453.473564890987	6
1	1207	455.429090762313	5
1	1211	455.697317116473	5
1	1213	455.796684730838	6
1	1216	456.588938540225	7
1	1217	457.306728735117	7
1	1219	457.458396599766	7
1	1221	457.886011029945	8
1	1222	458.859538109775	8
1	1224	459.048760423695	8
1	1226	459.653109570917	9
1	1227	459.74197210602	9
1	1229	460.834405308809	9
1	1230	460.838027486616	9
1	1232	461.317954419482	9
1	1234	461.938742385385	10
1	1236	462.099652893172	11
1	1240	462.619015523977	11
1	1241	462.644311059161	10
1	1246	463.486201222524	10
1	1250	465.58637452952	11
1	1255	467.715592784855	11
1	1257	468.090228684233	11
1	1261	469.800318398066	11
1	1265	471.409807209687	11
1	1267	472.232894613978	11
1	1269	473.064649621872	11
1	1273	474.515131432989	12
1	1275	474.963750953511	13
1	1277	475.040662894568	14
1	1279	475.158687177701	14
1	1284	477.408056587876	14
1	1285	477.465036469053	14
1	1287	477.556649350561	14
1	1291	478.182136593846	15
1	1293	478.390276148487	15
1	1295	479.608193852678	15
1	1296	480.381010727719	15
1	1300	481.917177404746	14
1	1304	483.934301919451	13
1	1305	485.76895956267	12
1	1306	485.876517425891	11
1	1310	488.420718690997	11
1	1312	489.078834164468	11
1	1313	489.292450853007	10
1	1317	490.332264324726	10
1	1322	491.968193948508	10
1	1323	492.453183390594	9
1	1325	494.712105589613	9
1	1326	494.765926606989	9
1	1327	495.146965485353	8
1	1329	496.493104975733	8
1	1337	497.231866648667	9
1	1339	497.876717818695	10
1	1343	498.539097915746	11
1	1345	500.283972037008	11
1	1347	500.389473208706	11
1	1348	500.683035170523	11
1	1350	501.347163982446	11
1	1352	501.694128316078	12
1	1357	502.404925080862	13
1	1359	502.500817343602	14
1	1363	503.936268932209	14
1	1364	504.06808134206	13
1	1365	504.282948216959	12
1	1372	505.882165059049	11
1	1374	507.177993000341	11
1	1376	508.016754835635	12
1	1380	509.240514714477	13
1	1386	511.384168220048	14
1	1393	516.378861857151	15
1	1400	519.473757622135	16
1	1403	520.178380551142	16
1	1407	521.670326812286	15
1	1409	522.556922168355	15
1	1410	522.802191832396	15
1	1411	523.166781005698	14
1	1415	524.502927009872	13
1	1416	525.129602375522	12
1	1421	526.220398121098	12
1	1426	526.527821901635	13
1	1427	526.990061711839	13
1	1431	528.336010201411	12
1	1437	528.665003490897	12
1	1447	532.398956090179	13
1	1448	532.408424060302	13
1	1449	533.164535030847	12
1	1451	533.175743851681	12
1	1459	535.468171072588	13
1	1469	538.352059842586	13
1	1473	539.515717197062	13
1	1475	540.014229059503	13
1	1476	541.130662586289	12
1	1482	546.620737034897	12
1	1485	547.805758641897	12
1	1486	547.909123632419	11
1	1487	548.505697724319	10
1	1495	551.419613463277	10
1	1496	552.375075267995	10
1	1498	552.664791390765	10
1	1499	554.489513932985	10
1	1500	554.59435520738	9
1	1505	556.190151421433	9
1	1516	559.241351935656	10
1	1517	559.523486964863	10
1	1519	560.300133415203	10
1	1535	569.279130223633	10
1	1537	569.634902969213	10
1	1539	569.778020104165	11
1	1541	570.769674834642	12
1	1542	572.83926498034	12
1	1543	573.222987694815	11
1	1544	573.981415874605	10
1	1548	575.287970109919	9
1	1549	575.774861192099	8
1	1551	576.709114667513	8
1	1552	576.813468969344	8
1	1553	577.681500938959	7
1	1554	577.991740905194	6
1	1555	578.558465561368	5
1	1560	579.188184244416	5
1	1561	580.046146992704	5
1	1562	580.713389815874	4
1	1567	581.703598531693	4
1	1568	582.416059393149	4
1	1573	584.538485376354	4
1	1577	586.309485618203	4
1	1578	586.746106266357	3
1	1579	587.360075798094	2
1	1580	587.419784896819	1
1	1581	588.372405003083	0
1	1589	592.041185705439	0
1	1591	592.372687197471	1
1	1592	592.47416305912	1
1	1593	592.746245065985	0
1	1604	597.731111263568	0
1	1606	597.886624902397	1
1	1608	597.977892675056	2
1	1612	598.690157751851	2
1	1614	599.632438449569	2
1	1616	599.876640758518	3
1	1617	599.947529773429	3
1	1619	601.018949537586	3
1	1621	601.409297889379	4
1	1622	602.056587029815	4
1	1626	603.38831689573	3
1	1628	604.943607171662	3
1	1630	605.790422767605	4
1	1631	606.094259570765	4
1	1632	607.135260927632	3
1	1636	609.695358187409	2
1	1637	610.48273809516	1
1	1639	611.011278380715	1
1	1647	613.748750162674	2
1	1648	613.935689395855	2
1	1650	614.437338515987	2
1	1657	616.248216969988	2
1	1661	617.501433121147	2
1	1663	617.93566933289	2
1	1664	618.154809000442	1
1	1666	618.820309210516	1
1	1668	619.658955597384	2
1	1669	619.874142733852	2
1	1673	620.515044019043	1
1	1675	622.598844276215	1
1	1677	623.223541668744	2
1	1679	623.418007369174	3
1	1681	623.643861025972	4
1	1682	623.824785933084	4
1	1684	624.334293885704	4
1	1685	625.379951298845	4
1	1689	626.906634227681	3
1	1690	628.76094591507	2
1	1691	629.712955323622	1
1	1698	630.533126844228	0
1	1702	633.428324247895	0
1	1704	634.469250403237	0
1	1706	636.607380370695	0
1	1710	638.431457310464	1
1	1712	639.897154632257	1
1	1714	640.20034917391	1
1	1715	640.861121465737	1
1	1720	641.26144899567	1
1	1722	641.390453253058	2
1	1723	641.766663819922	2
1	1725	642.467030090919	2
1	1727	643.120185537657	3
1	1729	643.355509259643	4
1	1733	644.643700779091	5
1	1739	645.392333750218	6
1	1743	645.692222934369	7
1	1749	647.137631358938	8
1	1751	647.588303285738	9
1	1758	651.202616453417	9
1	1762	652.712435762737	8
1	1763	653.483289449341	7
1	1764	653.791013826585	6
1	1765	657.791954598288	5
1	1766	658.464379577222	4
1	1767	658.538036139566	3
1	1768	659.030764356936	2
1	1769	660.522672645755	1
1	1771	661.705696731681	1
1	1772	662.121768720239	1
1	1773	662.691485319662	0
1	1775	662.752731212973	0
1	1777	663.12688349144	1
1	1778	663.603482054659	1
1	1779	664.561062302378	0
1	1787	666.353942895163	0
1	1788	666.443266386672	0
1	1790	669.183515938752	0
1	1792	669.453463106854	1
1	1793	670.21936868626	1
1	1794	670.396002015317	0
1	1796	672.395443179744	0
1	1797	672.437535575638	0
1	1802	678.237070679288	0
1	1806	681.974339057065	0
1	1808	682.148434349972	0
1	1809	682.482981958675	0
1	1811	684.11532582133	0
1	1813	684.216445732243	1
1	1815	684.231754220029	2
1	1816	684.233154551266	2
1	1821	687.370218403852	2
1	1822	690.125804794533	2
1	1823	691.222625325463	1
1	1825	692.787299051837	1
1	1826	693.234039509997	1
1	1828	693.566993431375	1
1	1829	694.621801271958	1
1	1831	695.337992185603	1
1	1832	695.543733520549	1
1	1834	696.708632639095	1
1	1838	697.780598502389	2
1	1847	699.745005379866	3
1	1850	700.852712164858	4
1	1852	700.853696980089	5
1	1855	701.219520108721	6
1	1857	703.465001790797	6
1	1859	704.115890878688	6
1	1860	705.355725016076	6
1	1861	705.482485122435	5
1	1863	705.748138858586	5
1	1867	707.12035155313	5
1	1868	707.438434277935	4
1	1872	710.01841458741	3
1	1877	712.336459768122	3
1	1879	712.802739802057	4
1	1883	714.781726116594	4
1	1891	717.714747299468	4
1	1895	720.452860728769	4
1	1897	720.937211489174	4
1	1899	721.063873632572	5
1	1901	723.220236667984	6
1	1909	724.730460664533	7
1	1916	727.16678944008	7
1	1921	728.24182259546	7
1	1923	729.010023614842	8
1	1924	729.709861037826	8
1	1926	729.787328324325	8
1	1927	729.949105447295	8
1	1935	732.819650956929	8
1	1937	733.914743550133	9
1	1939	735.55875882768	10
1	1949	738.123714922735	11
1	1952	738.792750109349	12
1	1953	740.94773860578	12
1	1954	741.477896464013	11
1	1959	743.26634691677	11
1	1960	743.445554901651	11
1	1967	746.646589202761	10
1	1972	747.801114859438	10
1	1974	748.407863923272	11
1	1975	748.60310265666	11
1	1977	749.092572654879	11
1	1982	755.452710264394	12
1	1983	757.760325377958	12
1	1985	758.81499846372	12
1	1987	759.522535313256	13
1	1991	761.574565877122	13
1	1992	761.830189934049	12
1	1996	763.989871251706	11
1	1997	764.146978338773	10
1	2004	766.426436158022	10
1	2006	767.3286874608	10
1	2007	767.584442161029	9
1	2008	770.601789620926	8
1	2010	771.185264051895	8
1	2014	771.718543517851	8
1	2018	773.990380075755	7
1	2019	774.341615365126	6
1	2021	774.428715899365	6
1	2025	775.422849766387	6
1	2026	776.090744208735	5
1	2027	776.232555897833	4
1	2034	776.952798728042	4
1	2041	779.096495818622	5
1	2048	781.67339657755	6
1	2050	785.707979203492	7
1	2051	787.095172462914	7
1	2052	788.330525669614	6
1	2053	788.44556757689	5
1	2054	789.462961391108	4
1	2056	789.744373321336	4
1	2060	794.60015945954	4
1	2061	794.869800418752	3
1	2063	794.93041502438	3
1	2064	796.503003279769	3
1	2066	798.283467487641	3
1	2068	798.86846336961	4
1	2069	801.15676988075	4
1	2070	802.096804919444	3
1	2074	803.933861829367	2
1	2079	806.315075918893	2
1	2081	807.062513745633	3
1	2082	811.26163191852	3
1	2083	811.602639620803	2
1	2085	812.351450742292	2
1	2086	812.552684319265	2
1	2094	817.158627045193	2
1	2099	819.013535586829	3
1	2101	820.319562179619	4
1	2103	820.445956507713	5
1	2104	820.797841122862	5
1	2106	821.148422116017	5
1	2107	821.728232527265	5
1	2109	821.959013427286	5
1	2113	822.175455096837	5
1	2115	822.615545176702	5
1	2117	822.964379553262	6
1	2118	825.372486628293	6
1	2119	825.627347098667	5
1	2129	828.518512555947	4
1	2130	828.668287597415	3
1	2131	829.606032505804	2
1	2133	829.754013342869	2
1	2134	829.847565137326	2
1	2135	829.929202428545	1
1	2136	831.101711625784	0
1	2150	840.348089645133	0
1	2151	844.221982119145	0
1	2153	844.940538589814	0
1	2155	846.622299743386	1
1	2156	847.126018090349	1
1	2157	847.515186397339	0
1	2170	849.388468441769	0
1	2176	851.340883839307	1
1	2178	852.191410794306	2
1	2179	852.886030293518	2
1	2181	852.924694251719	2
1	2183	853.193816103899	3
1	2189	854.472571526333	4
1	2195	856.387595631987	4
1	2196	856.779868168949	3
1	2197	857.292640236017	2
1	2205	860.14249937787	2
1	2206	861.002008900916	2
1	2208	861.006025933171	2
1	2209	861.804990406017	2
1	2211	862.61869191681	2
1	2219	864.195889845403	3
1	2221	864.644873856962	4
1	2228	866.45858271319	4
1	2229	867.17144678969	3
1	2233	867.543282633777	2
1	2238	869.416111340945	2
1	2240	869.979605658151	3
1	2241	870.125658824705	3
1	2242	870.699587442043	2
1	2243	871.24429003811	1
1	2244	871.74056532969	0
1	2248	872.485940647342	0
1	2253	875.191481455319	0
1	2255	875.22269246404	0
1	2274	880.861627564399	1
1	2277	881.311868657639	2
1	2281	882.618609794847	3
1	2283	883.523766193279	3
1	2284	885.033106810405	2
1	2289	886.960877037379	2
1	2290	886.964799391161	2
1	2292	887.416309561022	2
1	2294	887.435474914913	3
1	2299	891.095712690653	4
1	2306	895.962054556685	4
1	2313	897.498345655577	3
1	2314	897.834418555138	2
1	2318	898.823323134193	1
1	2320	898.962002874014	1
1	2321	899.020485962596	1
1	2323	899.158824046852	1
1	2327	899.743454721123	1
1	2328	899.920499654481	0
1	2330	901.041525972664	0
1	2332	901.17779048627	1
1	2333	901.879403828269	1
1	2335	901.909389834965	1
1	2337	903.108169561425	2
1	2339	904.042604903273	3
1	2340	904.146383885947	3
1	2341	904.703579294264	2
1	2345	905.388540965419	2
1	2348	905.880971957585	3
1	2349	906.141051976333	3
1	2351	906.33950632874	3
1	2352	906.348960919667	3
1	2354	906.352205307874	3
1	2356	907.554732929014	4
1	2357	908.020885035262	4
1	2358	908.331564710344	3
1	2363	912.284216152835	3
1	2364	912.539527345397	3
1	2366	913.006606991103	3
1	2368	913.11595902247	4
1	2372	913.263351660051	5
1	2375	913.815341658103	6
1	2376	914.129922098807	6
1	2378	914.562224766911	6
1	2379	915.866140576212	6
1	2381	915.956741425845	6
1	2382	916.653026974731	6
1	2383	916.97849967664	5
1	2385	917.445280155346	5
1	2386	917.613320425406	5
1	2387	918.86742142587	4
1	2388	920.560715853988	3
1	2395	921.861549878079	2
1	2397	922.173402103969	2
1	2399	922.611844824504	3
1	2401	924.300629661645	4
1	2402	924.339825282668	4
1	2407	927.52988461851	4
1	2408	928.597280807189	4
1	2413	929.286893471288	4
1	2414	930.236063474423	4
1	2415	930.347669483264	3
1	2416	930.515862201567	2
1	2418	934.04753036811	2
1	2422	934.743029643567	2
1	2423	937.369796420933	1
1	2424	938.084208473305	0
1	2426	938.714957375512	0
1	2433	939.253665375269	1
1	2441	941.529968854149	1
1	2443	941.940522742017	1
1	2447	943.265183913049	2
1	2461	946.305497929742	2
1	2462	947.527294383757	1
1	2464	947.696964596104	1
1	2466	947.901351056098	2
1	2467	949.485522548828	2
1	2469	950.519957328164	2
1	2470	951.07625042493	2
1	2474	951.698778038457	2
1	2482	955.225663114423	2
1	2483	957.422220194039	1
1	2484	957.926627393319	0
1	2486	959.314381965844	0
1	2490	959.875480483686	1
1	2495	961.793976445657	1
1	2508	967.048468711975	0
1	2510	969.917468427365	0
1	2512	970.133423740932	1
1	2513	970.23459342742	1
1	2523	972.1611866225	1
1	2529	973.11964075049	2
1	2534	975.6581074925	3
1	2538	976.418356450011	4
1	2541	977.401014773341	5
1	2543	977.426327274713	6
1	2545	977.916192660171	7
1	2551	978.459878358809	8
1	2553	978.744054840665	9
1	2555	978.917019559034	10
1	2559	979.422294281301	11
1	2561	979.532806016237	12
1	2562	979.878228263628	12
1	2564	980.354929814594	12
1	2565	980.978573177702	12
1	2567	981.07538268505	12
1	2568	981.222970802603	12
1	2570	981.543682338908	12
1	2571	981.642770332766	12
1	2578	986.932037661985	12
1	2581	987.470622914066	13
1	2583	988.853285931037	14
1	2584	989.370170026179	14
1	2585	990.514027819029	13
1	2586	991.18094433947	12
1	2591	992.161330287434	12
1	2593	993.410989930526	13
1	2597	996.102272445337	13
1	2598	996.128726723697	12
1	2605	998.681377674719	11
1	2606	999.966335512257	10
1	2610	1000.659753385959	10
1	2613	1001.542894502759	11
1	2617	1002.552184527713	11
1	2621	1003.24156189769	10
1	2625	1003.494333456239	10
1	2629	1005.454668430879	11
1	2648	1012.618076519849	12
1	2650	1012.856850736079	13
1	2651	1013.302066976621	13
1	2652	1013.872164027798	12
1	2654	1014.017558466807	12
1	2656	1015.982543312292	13
1	2658	1017.922599809289	14
1	2659	1017.92307032085	14
1	2663	1019.80780875396	13
1	2664	1019.897242285466	12
1	2669	1020.608710499783	12
1	2670	1020.967537905116	12
1	2672	1021.123096387555	12
1	2673	1021.722124023515	12
1	2674	1021.997590107198	11
1	2678	1023.182324830855	10
1	2679	1023.862882678203	9
1	2681	1023.911465109091	9
1	2682	1024.486364840273	9
1	2684	1024.821218976082	9
1	2685	1024.824670947467	9
1	2686	1025.075203185427	8
1	2687	1026.000986304051	7
1	2689	1026.511707959657	7
1	2691	1027.692100890361	8
1	2693	1030.281726388612	9
1	2695	1030.437630067313	10
1	2699	1031.478316258834	11
1	2701	1032.165521753377	11
1	2709	1035.343882662468	11
1	2714	1037.673885132148	12
1	2715	1037.760420773126	12
1	2717	1038.518629156577	12
1	2718	1039.350497871917	12
1	2719	1040.75379163478	11
1	2720	1044.426693435841	10
1	2721	1044.527118962293	9
1	2722	1045.630774765197	8
1	2724	1045.937474216307	8
1	2725	1047.068084222612	8
1	2727	1047.103826578646	8
1	2728	1047.455309164541	8
1	2729	1048.262261434978	7
1	2730	1048.817028908037	6
1	2731	1049.176625447613	5
1	2732	1050.345950723991	4
1	2736	1052.548603202306	3
1	2737	1052.583467801643	2
1	2738	1053.138181191222	1
1	2739	1054.640976691416	0
1	2741	1054.714220202457	0
1	2743	1058.294971122334	1
1	2744	1060.220431462944	1
1	2745	1060.647858272814	0
1	2750	1061.518446519069	0
1	2751	1062.009434388453	0
1	2753	1063.912940690965	0
1	2755	1064.011731308939	1
1	2757	1064.922080682577	2
1	2759	1065.268585232415	3
1	2767	1066.776278943129	4
1	2769	1066.826988109907	5
1	2770	1067.41134772248	5
1	2771	1070.115550182561	4
1	2772	1070.196723998579	3
1	2774	1070.738782429057	3
1	2782	1074.012483108599	4
1	2792	1076.527467778584	5
1	2794	1076.661536146529	6
1	2800	1080.347743193046	7
1	2801	1084.38355174937	7
1	2802	1084.693877010499	6
1	2804	1085.195601004313	6
1	2809	1088.605125394093	7
1	2810	1088.753843039058	7
1	2811	1088.979531031382	6
1	2812	1089.299927695575	5
1	2813	1089.338144196454	4
1	2815	1089.750098605262	4
1	2816	1089.854364124689	4
1	2817	1089.990545084814	3
1	2819	1090.644289166601	3
1	2820	1090.976439597447	3
1	2822	1091.080413683497	3
1	2823	1091.31537533941	3
1	2824	1091.601466784629	2
1	2826	1091.662655715043	2
1	2828	1091.854804495952	3
1	2829	1091.928692133795	3
1	2834	1095.387594328225	3
1	2836	1095.662878969626	4
1	2841	1097.893791008547	5
1	2842	1097.99914797334	5
1	2844	1098.288479939986	5
1	2846	1098.403328278941	6
1	2856	1100.428545031812	7
1	2859	1102.263038711975	8
1	2861	1102.556772111493	9
1	2863	1102.619011711195	10
1	2865	1102.91674275146	11
1	2867	1104.632901345375	12
1	2868	1105.352558825612	12
1	2869	1105.518425432482	11
1	2871	1105.813120465486	11
1	2872	1106.498566269844	11
1	2874	1106.563693744296	11
1	2875	1107.48551456447	11
1	2876	1107.665893931462	10
1	2877	1108.508975115394	9
1	2878	1108.622717287046	8
1	2885	1112.001832243467	7
1	2886	1112.346644186158	6
1	2887	1112.741968476861	5
1	2888	1113.369822377115	4
1	2890	1113.679100494446	4
1	2894	1114.798858703609	5
1	2896	1114.916092641362	6
1	2899	1115.571465033105	7
1	2901	1115.889429312399	8
1	2902	1116.259877863454	8
1	2903	1116.828409886201	7
1	2904	1117.922066263178	6
1	2908	1118.816248214841	5
1	2915	1121.466570386735	5
1	2918	1122.424820562994	6
1	2925	1126.874283643725	7
1	2930	1127.762966597373	8
1	2935	1128.858725731991	8
1	2937	1129.097393113303	8
1	2938	1130.952675740333	8
1	2940	1131.077605254214	8
1	2944	1131.714617962687	9
1	2946	1132.707884770109	9
1	2947	1133.30814363586	8
1	2948	1133.315865662586	7
1	2952	1134.482632124365	6
1	2953	1135.53313819142	5
1	2954	1135.844678120116	4
1	2955	1136.80451659291	3
1	2960	1137.56397734427	3
1	2964	1138.961348036883	3
1	2965	1139.938993698801	2
1	2966	1140.470293979474	1
1	2968	1141.146454791418	1
1	2970	1141.349925318685	2
1	2971	1141.516997567223	2
1	2973	1141.64947263424	2
1	2975	1142.133141489909	3
1	2976	1142.529868386703	3
1	2978	1142.59830404699	3
1	2979	1143.620088802114	3
1	2981	1146.315210216294	3
1	2983	1146.540164545617	4
1	2985	1147.729559270312	5
1	2989	1149.060160345727	5
1	2990	1149.166174496793	4
1	2991	1149.912700067287	3
1	2992	1149.916860777133	2
1	2994	1150.888203475758	2
1	2995	1151.660361523001	2
1	2999	1152.261597685188	2
1	3001	1153.650840285871	3
1	3006	1154.871706140685	3
1	3012	1155.204912276852	3
1	3015	1157.367258366233	3
1	3016	1157.619449719802	2
1	3017	1157.915581243837	1
1	3018	1158.10329478953	0
1	3026	1162.718519579072	0
1	3028	1162.830120498795	1
1	3029	1166.329623572288	1
1	3033	1168.444743630765	0
1	3035	1168.587064095511	0
1	3037	1169.097264654068	1
1	3041	1171.46494321301	1
1	3042	1171.566203812358	0
1	3047	1175.764398351672	0
1	3051	1176.2230457429	0
1	3053	1178.207729902891	0
1	3055	1178.208991665953	1
1	3057	1178.65541250038	2
1	3059	1180.400570819391	3
1	3061	1183.044572740583	4
1	3065	1183.512647906069	5
1	3070	1184.427079109338	6
1	3073	1186.633995468629	7
1	3077	1189.194277883755	7
1	3078	1189.656724095138	6
1	3080	1189.748810149891	6
1	3084	1191.921727278206	6
1	3086	1193.598969895943	6
1	3090	1194.611708521631	6
1	3092	1195.008387528875	6
1	3094	1195.941892328811	7
1	3096	1196.291675648356	8
1	3098	1196.366347794894	9
1	3105	1200.347113086579	9
1	3106	1201.659521343292	8
1	3107	1202.321140901406	7
1	3109	1202.355385771025	7
1	3110	1202.906542874163	7
1	3111	1205.494377425613	6
1	3112	1206.604055607364	5
1	3114	1206.898419455533	5
1	3118	1208.16063923729	6
1	3120	1209.042196169398	7
1	3122	1209.445392311098	7
1	3126	1209.973231904988	7
1	3128	1210.171826506453	7
1	3129	1210.457279371315	6
1	3139	1213.210594446074	5
1	3141	1213.654219943854	5
1	3142	1214.623515195983	5
1	3144	1215.843824930394	5
1	3146	1216.377065759224	6
1	3147	1217.39452047333	6
1	3148	1217.774197918983	5
1	3152	1219.056111727268	4
1	3153	1219.227460707015	3
1	3154	1219.968069032313	2
1	3155	1220.008693112442	1
1	3156	1221.287057962514	0
1	3161	1222.501166576533	0
1	3163	1222.986849175101	1
1	3165	1223.125065604813	2
1	3170	1224.560909733757	3
1	3171	1224.945142167741	3
1	3172	1225.202092945335	2
1	3174	1226.00316341525	2
1	3176	1226.225441435475	3
1	3181	1229.520380633656	4
1	3182	1230.189471644073	4
1	3184	1230.505559400262	4
1	3186	1230.899406491369	5
1	3187	1232.290858331714	5
1	3189	1233.468296318165	5
1	3190	1235.656881264579	5
1	3195	1236.288125899353	5
1	3196	1237.075164893054	5
1	3198	1237.342559068505	5
1	3199	1238.790257469734	5
1	3200	1239.108352188421	4
1	3202	1239.728795775433	4
1	3204	1239.840417574317	5
1	3205	1240.677995634295	5
1	3207	1241.357500015027	5
1	3209	1244.382365050369	6
1	3223	1247.643904843532	7
1	3224	1247.762724708925	7
1	3225	1248.484196343675	6
1	3226	1250.686775509807	5
1	3227	1251.401130622268	4
1	3229	1251.452276728259	4
1	3231	1251.887406713137	5
1	3233	1254.509958746009	6
1	3237	1255.336103138196	7
1	3240	1255.760626918799	8
1	3241	1256.279077417455	8
1	3242	1256.529862607575	7
1	3244	1257.452676719056	7
1	3246	1259.937828599381	8
1	3250	1261.592088779012	9
1	3252	1262.376480248999	10
1	3255	1262.795460183355	11
1	3259	1263.943975655882	11
1	3261	1264.016887699006	11
1	3263	1264.037170739062	12
1	3264	1264.130128291467	12
1	3275	1267.317225968893	12
1	3279	1268.653992508497	12
1	3280	1268.655148888767	11
1	3281	1268.702181324473	10
1	3283	1269.325002621085	10
1	3285	1269.86126539021	11
1	3286	1270.307034045666	11
1	3288	1270.775174810562	11
1	3289	1270.781356367944	11
1	3291	1271.626658805928	11
1	3292	1272.475864084084	11
1	3293	1272.794323747573	10
1	3297	1273.779885949186	10
1	3303	1277.8395315041	11
1	3304	1277.910075893458	11
1	3306	1278.404385789191	11
1	3308	1278.693422022563	12
1	3310	1278.711514466608	13
1	3312	1278.976468982211	14
1	3314	1279.733380317355	15
1	3316	1281.606291055666	16
1	3318	1281.756620404801	17
1	3322	1282.599155572539	17
1	3324	1282.777460650811	17
1	3331	1284.16472819515	17
1	3333	1285.805730894775	17
1	3337	1286.562448458917	17
1	3339	1290.70753372825	17
1	3340	1290.718571190468	17
1	3341	1291.256295734088	16
1	3346	1292.891128216923	16
1	3348	1293.312577085556	17
1	3349	1293.417710792763	17
1	3350	1294.588036129819	16
1	3351	1295.595990641189	15
1	3355	1296.912172977257	14
1	3356	1298.220329140444	13
1	3357	1298.22367358608	12
1	3358	1299.102561788931	11
1	3359	1300.309152542118	10
1	3364	1302.889313052148	10
1	3366	1303.048908113284	11
1	3368	1303.4856246707	12
1	3370	1303.699642954196	13
1	3372	1303.736560035526	14
1	3374	1304.118359684543	15
1	3375	1304.267161318879	15
1	3377	1306.463338520349	15
1	3382	1308.223780119746	16
1	3384	1308.652077236531	17
1	3385	1309.175003304798	17
1	3390	1311.723523413628	17
1	3392	1312.296490759543	18
1	3394	1312.945527156619	19
1	3398	1313.645564951092	19
1	3409	1316.603972495123	19
1	3410	1316.644387182681	19
1	3411	1317.234448981721	18
1	3412	1318.323782660031	17
1	3413	1318.923695744729	16
1	3415	1319.75322290733	16
1	3417	1320.591231869426	17
1	3424	1323.338462439098	17
1	3426	1323.365322093239	17
1	3427	1324.029615140708	17
1	3429	1324.053712767214	17
1	3436	1325.741057603777	17
1	3437	1325.74765746107	16
1	3438	1326.465865309184	15
1	3439	1326.603870724872	14
1	3443	1331.806005607388	14
1	3445	1331.909132822671	15
1	3451	1332.517178563418	16
1	3452	1334.716968519586	16
1	3453	1334.875724590267	15
1	3454	1335.711241644789	14
1	3455	1336.083519178697	13
1	3456	1337.680841116935	12
1	3457	1337.900981071142	11
1	3461	1338.706692914756	10
1	3463	1338.795810179974	10
1	3465	1338.92694795333	11
1	3467	1339.19211391746	12
1	3475	1340.133657894847	13
1	3476	1340.403464868824	13
1	3489	1349.738637789555	13
1	3497	1351.317136148706	13
1	3498	1351.404962790599	12
1	3500	1351.468377097421	12
1	3501	1352.899552213372	12
1	3503	1352.977353217191	12
1	3504	1353.266806979207	12
1	3506	1353.751237866328	12
1	3507	1354.294439832251	12
1	3509	1354.590075127777	12
1	3510	1355.924703273135	12
1	3512	1356.318270961522	12
1	3513	1356.658914467008	12
1	3514	1357.183871558371	11
1	3519	1359.034175522126	11
1	3524	1360.934717688205	12
1	3525	1361.483259034106	12
1	3527	1361.886411219481	12
1	3528	1363.445480710423	12
1	3530	1363.622003601852	12
1	3531	1363.899245016408	12
1	3532	1363.94534360043	11
1	3534	1364.621391936059	11
1	3541	1367.469112850808	12
1	3543	1367.622553981337	13
1	3545	1368.401839685573	13
1	3547	1368.519273279261	13
1	3551	1368.675315603135	14
1	3558	1370.884512497388	15
1	3561	1371.824922650841	16
1	3567	1372.783375206479	17
1	3569	1373.565305128482	18
1	3570	1374.397620886097	18
1	3571	1374.553728161374	17
1	3573	1375.597842536671	17
1	3574	1375.765435963787	17
1	3575	1376.726551669338	16
1	3576	1376.903155802505	15
1	3577	1376.985581307199	14
1	3578	1378.266349213187	13
1	3583	1380.517685952432	13
1	3587	1381.203404420797	13
1	3588	1381.380024836764	12
1	3589	1381.97539385828	11
1	3596	1383.642244322691	10
1	3598	1384.333128898249	10
1	3602	1384.754519697671	10
1	3604	1385.459502490134	10
1	3606	1385.590922369747	11
1	3607	1386.280054376489	11
1	3608	1386.573151014784	10
1	3613	1389.39188274896	10
1	3614	1389.584793537783	10
1	3619	1391.161510025809	10
1	3623	1393.61840432825	10
1	3624	1393.719738873209	9
1	3625	1394.977818208885	8
1	3627	1395.988326180306	8
1	3631	1396.817899892653	9
1	3634	1397.748680598465	10
1	3638	1398.99754694155	10
1	3640	1399.95067502721	10
1	3641	1400.028809072405	10
1	3645	1400.076904811862	10
1	3648	1400.316653911755	11
1	3650	1400.359529313416	12
1	3651	1400.916898343157	12
1	3655	1401.846828161029	12
1	3661	1404.501977229008	13
1	3662	1405.267132127758	13
1	3663	1405.686275574472	12
1	3664	1405.726474766107	11
1	3665	1405.997128619479	10
1	3666	1406.291213056485	9
1	3670	1407.399986181107	8
1	3671	1408.042560558449	7
1	3675	1408.906259977246	6
1	3677	1410.829030959412	6
1	3678	1411.302473585678	6
1	3680	1412.122388724199	6
1	3682	1412.296720583812	7
1	3684	1412.457695078795	8
1	3685	1412.786918645463	8
1	3695	1416.769862909478	8
1	3697	1417.045677609557	8
1	3698	1418.449967871181	7
1	3699	1418.980978261728	6
1	3700	1419.502267303825	5
1	3702	1420.148442209915	5
1	3704	1420.460360459768	6
1	3705	1421.067846524942	6
1	3712	1422.423235710171	6
1	3714	1424.97109131331	6
1	3722	1426.698132847118	6
1	3723	1428.137869164672	6
1	3725	1430.179943019286	6
1	3726	1430.868458211495	6
1	3730	1432.397676050936	6
1	3735	1433.141414545455	7
1	3737	1433.243108375525	7
1	3739	1435.122645157586	7
1	3740	1436.59348703303	7
1	3742	1437.032262907654	7
1	3747	1437.659960268194	8
1	3749	1438.264566103757	9
1	3750	1439.016318090138	9
1	3754	1441.783724016365	8
1	3762	1443.080054800698	8
1	3764	1443.207599262763	9
1	3766	1443.334821987247	10
1	3770	1444.880001273359	10
1	3772	1445.692352658977	10
1	3785	1451.793438978544	11
1	3793	1454.555669253882	11
1	3795	1455.295298208786	11
1	3796	1455.578161767828	11
1	3797	1455.980500909312	10
1	3806	1459.110992078956	10
1	3808	1459.352886610658	11
1	3810	1459.998072103354	12
1	3813	1460.342001319946	13
1	3818	1462.822022317838	14
1	3820	1463.346440997897	14
1	3825	1463.84212412101	14
1	3826	1465.068376000108	14
1	3827	1465.242797964786	13
1	3829	1465.447310858613	13
1	3831	1465.63613274973	14
1	3833	1465.770300161692	15
1	3837	1468.050007330715	15
1	3838	1469.477743439467	14
1	3840	1470.240107254	14
1	3848	1473.924834420102	15
1	3849	1474.451042911713	15
1	3850	1476.103449106202	14
1	3851	1476.148841019017	13
1	3853	1476.803755906751	13
1	3858	1478.033169444499	14
1	3859	1481.791279355814	14
1	3860	1481.937110645174	13
1	3861	1481.956624435043	12
1	3869	1487.851423541411	12
1	3870	1488.45660283462	12
1	3872	1488.547379691501	12
1	3876	1489.244045595279	12
1	3877	1489.739597114178	11
1	3881	1491.992786613815	10
1	3888	1493.690589215507	10
1	3891	1495.067327043404	11
1	3893	1495.180393647354	12
1	3895	1495.646697658758	13
1	3897	1496.278231649861	14
1	3898	1497.720737967667	14
1	3903	1499.540637521371	14
1	3904	1500.328620559517	14
1	3909	1502.092391830929	14
1	3913	1502.958298465262	15
1	3916	1503.213895109749	16
1	3917	1503.257821578352	16
1	3918	1503.625906545565	15
1	3920	1503.947005231456	15
1	3921	1504.541985777331	15
1	3922	1505.332670224758	14
1	3924	1505.49503345609	14
1	3926	1506.088109048801	15
1	3928	1506.505405517843	16
1	3930	1506.596284593246	17
1	3937	1509.78734163142	17
1	3944	1513.251392879077	16
1	3948	1514.116282962069	16
1	3950	1514.638086346258	16
1	3951	1515.244696989254	15
1	3955	1516.756716817366	14
1	3957	1517.088338094455	14
1	3958	1517.168343309635	14
1	3960	1517.305876455316	14
1	3961	1517.353116430845	14
1	3963	1518.17778739421	14
1	3964	1518.542030475634	14
1	3966	1518.697133732511	14
1	3973	1519.862912980657	15
1	3975	1520.353437639823	16
1	3977	1520.599234805941	17
1	3983	1523.119959050512	18
1	3985	1523.849149794518	19
1	3995	1525.883959037955	20
1	3997	1526.206157880852	21
1	3999	1526.226639175646	22
1	4004	1528.461133568185	22
1	4009	1529.666298986796	22
1	4011	1529.875580723535	23
1	4015	1531.748801532246	23
1	4016	1532.74001102901	22
1	4024	1535.314725393487	22
1	4026	1535.326487908811	23
1	4027	1536.812692119188	23
1	4029	1537.400298601137	23
1	4034	1537.826490831063	24
1	4035	1538.028033688285	24
1	4037	1538.382330592737	24
1	4038	1538.56318098357	24
1	4039	1540.625041620925	23
1	4040	1541.407238882242	22
1	4042	1542.248333774488	22
1	4044	1543.080502404128	23
1	4046	1543.642458842816	24
1	4047	1543.660505508191	24
1	4048	1543.87048864314	23
1	4049	1544.593322636569	22
1	4051	1545.0449184893	22
1	4052	1545.065082406019	22
1	4053	1546.496745338615	21
1	4054	1546.896965677587	20
1	4056	1547.849982057347	20
1	4061	1549.728912466598	21
1	4065	1551.608228886713	21
1	4066	1552.354266679581	20
1	4068	1552.850637582159	20
1	4070	1553.350506714339	21
1	4071	1554.486857869483	21
1	4072	1555.383950705092	20
1	4082	1558.967551177222	20
1	4084	1559.053963509978	20
1	4085	1559.119824464632	19
1	4087	1559.674729527487	19
1	4094	1561.188580822447	19
1	4098	1563.06743966127	18
1	4102	1564.57101455663	18
1	4105	1564.720485664186	19
1	4107	1564.958074700422	20
1	4108	1566.319048760982	20
1	4117	1567.628215675712	20
1	4119	1567.695036854008	21
1	4121	1568.565584937934	22
1	4124	1568.951658522196	23
1	4126	1569.323581749394	23
1	4127	1569.756689550926	22
1	4129	1570.516954546842	22
1	4130	1570.561909164678	22
1	4132	1570.854746234896	22
1	4133	1571.570671193945	22
1	4137	1571.855189764287	22
1	4142	1572.370728431435	23
1	4145	1573.512507467308	24
1	4146	1574.349955560721	24
1	4148	1575.083908069701	24
1	4152	1575.365676788742	25
1	4157	1575.750039460774	26
1	4160	1576.525963329993	27
1	4161	1576.957415024741	27
1	4162	1577.959916441692	26
1	4163	1578.023841460057	25
1	4167	1581.428776842418	25
1	4170	1584.052534008836	26
1	4171	1584.703632644392	26
1	4172	1584.737305457499	25
1	4173	1584.758984161606	24
1	4174	1585.583595899503	23
1	4176	1585.687733429182	23
1	4177	1585.931456412646	23
1	4178	1586.264088999282	22
1	4180	1587.029681492288	22
1	4181	1587.600525635196	22
1	4185	1589.170035820402	21
1	4187	1590.236667155498	21
1	4188	1592.412495289881	21
1	4190	1593.551013435948	21
1	4192	1594.610920742561	22
1	4193	1596.909620987223	22
1	4200	1599.124026919433	21
1	4201	1599.518767102943	20
1	4203	1599.518990327772	20
1	4204	1599.763804018323	20
1	4206	1600.679247268366	20
1	4207	1600.953280268544	20
1	4211	1601.794488371535	19
1	4212	1604.709886578163	18
1	4214	1604.82675655208	18
1	4220	1605.748249078875	19
1	4223	1606.470039712599	20
1	4226	1607.943057707358	21
1	4227	1608.057966097962	21
1	4228	1608.772036644305	20
1	4236	1609.808379341513	20
1	4238	1610.891158344338	21
1	4239	1611.465915056853	21
1	4244	1612.507965653797	21
1	4245	1612.72344792886	21
1	4246	1612.818161709733	20
1	4248	1613.010893519453	20
1	4253	1613.644720031796	21
1	4254	1613.997685980854	21
1	4256	1616.090057860405	21
1	4258	1617.152363990861	22
1	4259	1617.838774311835	22
1	4263	1619.622939125088	21
1	4264	1620.624958935921	20
1	4265	1621.207417123177	19
1	4267	1622.714815672417	19
1	4271	1623.44362376727	19
1	4273	1623.724571548346	19
1	4274	1624.160042854332	19
1	4275	1625.114112663923	18
1	4279	1627.523863931805	18
1	4281	1627.784486590275	19
1	4284	1628.801845399197	20
1	4288	1629.654346287235	21
1	4291	1630.098270225356	22
1	4293	1630.162957508652	23
1	4310	1634.851111910082	24
1	4315	1636.034428493441	25
1	4317	1636.04856698593	26
1	4318	1636.456315264604	26
1	4319	1637.362546902785	25
1	4321	1637.601998398489	25
1	4323	1637.766776079245	26
1	4327	1638.918234149331	26
1	4328	1639.283488870927	25
1	4335	1641.898304154995	25
1	4337	1643.428854522212	25
1	4339	1643.429600996982	25
1	4340	1644.247272023114	25
1	4342	1645.043561939434	25
1	4343	1645.389033660582	25
1	4345	1646.482920644382	25
1	4349	1647.125203819501	26
1	4351	1648.357699729957	26
1	4353	1648.620325588934	26
1	4355	1648.676791883572	27
1	4356	1648.886098782285	27
1	4360	1649.514283631219	26
1	4364	1650.987903389952	25
1	4366	1651.243010748703	25
1	4367	1652.108920553461	25
1	4371	1653.327416361881	24
1	4372	1654.922076857647	23
1	4373	1654.929697135039	22
1	4375	1654.96888010452	22
1	4386	1658.796077013053	23
1	4387	1659.449121277951	23
1	4391	1662.068492601935	22
1	4393	1662.59247813048	22
1	4394	1662.915820350748	22
1	4396	1663.52153486016	22
1	4398	1663.914006150446	23
1	4400	1664.581906272742	24
1	4401	1664.854656769387	24
1	4402	1664.987954005438	23
1	4404	1666.097367112919	23
1	4411	1667.972106087077	23
1	4412	1669.124231965054	22
1	4416	1670.508654213931	21
1	4417	1670.731053564549	20
1	4419	1670.890348044111	20
1	4421	1672.211859647299	21
1	4428	1673.523445548466	22
1	4430	1673.774052848441	22
1	4431	1674.908919707539	21
1	4432	1677.551148033468	20
1	4434	1677.604418403875	20
1	4435	1677.626159969401	20
1	4436	1678.837688076625	19
1	4437	1679.12677385758	18
1	4438	1679.450050977284	17
1	4439	1681.30572251967	16
1	4441	1681.641733920528	16
1	4445	1685.488722518571	16
1	4446	1685.636127499449	15
1	4450	1686.258604039291	15
1	4452	1686.435445371539	16
1	4454	1687.302272326699	17
1	4456	1688.039963059497	17
1	4457	1688.155657444911	16
1	4464	1690.846737377462	15
1	4465	1691.383952896702	14
1	4466	1692.919303130549	13
1	4468	1693.087613838667	13
1	4469	1693.1164988631	13
1	4470	1693.303051510078	12
1	4471	1693.54626138962	11
1	4472	1694.493049592723	10
1	4474	1694.602129226412	10
1	4476	1695.170330130206	11
1	4477	1697.086639447702	11
1	4481	1699.603844487515	11
1	4486	1701.454935829583	11
1	4487	1701.533405322458	10
1	4488	1701.565937645368	9
1	4490	1702.058040286663	9
1	4497	1706.531623665724	9
1	4498	1708.652558445872	8
1	4504	1709.460265090059	8
1	4506	1709.533835708337	9
1	4509	1710.903308470726	9
1	4511	1711.837706307727	9
1	4513	1713.208477942535	10
1	4517	1715.015258871134	10
1	4518	1715.252993843145	9
1	4520	1715.715676679171	9
1	4522	1715.89244592589	10
1	4524	1715.977651383451	11
1	4525	1717.311100531307	11
1	4527	1717.789488900388	11
1	4528	1718.49743686233	11
1	4529	1719.624418309489	10
1	4534	1720.301221330361	10
1	4544	1723.692079535117	11
1	4546	1726.004223245997	11
1	4552	1727.914656170152	11
1	4559	1729.198900882263	12
1	4561	1729.859666972393	13
1	4566	1731.724855215912	14
1	4570	1733.371360541198	14
1	4577	1734.895691433425	14
1	4579	1737.070722325458	14
1	4581	1738.04702403791	14
1	4582	1738.132650396221	14
1	4589	1740.035824925102	14
1	4592	1740.595911764027	15
1	4593	1740.778403260076	15
1	4595	1741.587555722805	15
1	4600	1743.829160514459	16
1	4601	1745.06100550761	16
1	4605	1745.302780064923	16
1	4608	1745.739013125794	17
1	4610	1745.783153997819	18
1	4611	1745.949741956424	18
1	4613	1746.105201654994	18
1	4615	1747.460260809798	19
1	4617	1747.761546896948	20
1	4622	1748.604467732431	21
1	4624	1748.854288430653	22
1	4626	1750.012130629112	23
1	4627	1750.980898142766	23
1	4628	1751.223986687784	22
1	4629	1751.322941955283	21
1	4635	1752.125007703602	21
1	4638	1752.759926772365	21
1	4640	1753.08116746201	21
1	4641	1753.237223041666	21
1	4642	1753.334379560471	20
1	4643	1755.170757876237	19
1	4644	1755.888118078788	18
1	4650	1757.329898160454	18
1	4654	1758.853772387593	19
1	4658	1760.744690420192	19
1	4660	1761.3369372151	19
1	4661	1763.241008520583	19
1	4662	1763.522709725727	18
1	4663	1763.826175727531	17
1	4664	1764.115367505756	16
1	4666	1764.536762067363	16
1	4668	1764.745063275232	17
1	4674	1766.009008317315	18
1	4678	1766.606195379732	19
1	4683	1766.795036440198	20
1	4685	1768.081705010157	21
1	4689	1768.633808825632	21
1	4690	1768.847849885107	20
1	4692	1768.851270317907	20
1	4694	1769.211548710604	21
1	4695	1769.530187871367	21
1	4697	1769.919926483882	21
1	4699	1769.963782055388	22
1	4700	1770.25168026916	22
1	4702	1771.136392261959	22
1	4704	1771.302921533304	23
1	4709	1772.832435121726	24
1	4713	1774.0876116693	25
1	4715	1774.726525499531	26
1	4721	1775.516161327038	27
1	4723	1776.065717000664	28
1	4725	1776.177671621761	29
1	4726	1777.251264996446	29
1	4727	1777.748322872957	28
1	4728	1777.951558676517	27
1	4733	1778.759792124939	27
1	4734	1779.103896972514	27
1	4736	1779.956934199045	27
1	4738	1780.670262278261	28
1	4743	1782.84519332972	29
1	4745	1783.20295937652	30
1	4749	1785.047433850521	30
1	4750	1785.19159420683	29
1	4752	1786.387596423064	29
1	4754	1786.617400707904	30
1	4756	1787.079239844328	31
1	4758	1787.28533245354	32
1	4759	1787.285745014552	32
1	4761	1789.046460280239	32
1	4762	1789.666809346961	32
1	4763	1789.966169828446	31
1	4765	1790.399543502834	31
1	4767	1791.879018441617	32
1	4771	1795.080110163151	33
1	4773	1795.352547992487	33
1	4774	1796.275881130526	32
1	4780	1798.973578721612	32
1	4784	1799.962056019351	33
1	4788	1801.564694102485	33
1	4789	1801.753874671032	32
1	4791	1803.090435811166	32
1	4795	1803.840485102438	32
1	4797	1805.973638586297	32
1	4802	1808.370639328666	33
1	4803	1808.403110229685	33
1	4808	1812.538854069579	33
1	4809	1813.869325154437	33
1	4810	1814.003376752343	32
1	4812	1814.525985352456	32
1	4813	1815.01508239534	32
1	4814	1815.467342399457	31
1	4816	1817.122790199795	31
1	4821	1817.685063963707	32
1	4823	1819.495583788258	33
1	4824	1819.638510127207	33
1	4825	1819.921998814638	32
1	4827	1819.966239890101	32
1	4832	1822.138100885139	33
1	4833	1822.530970847991	33
1	4837	1823.487455815667	32
1	4838	1824.670595435688	31
1	4839	1825.545846945658	30
1	4840	1825.571009820392	29
1	4841	1825.753315632637	28
1	4842	1825.858758396575	27
1	4843	1826.717007861814	26
1	4845	1828.041534613271	26
1	4847	1828.597251044134	27
1	4848	1829.155588508471	27
1	4853	1831.344690833476	27
1	4854	1831.988929946492	27
1	4858	1832.461117492105	27
1	4860	1833.692466956153	27
1	4861	1833.701359406931	26
1	4863	1834.148039213869	26
1	4864	1835.157994927106	26
1	4866	1835.603403847052	26
1	4868	1835.797095463344	27
1	4870	1835.906672759951	28
1	4878	1839.079949761908	29
1	4883	1840.332952529786	30
1	4890	1843.086531535789	30
1	4891	1844.235871941501	29
1	4892	1845.162807460683	28
1	4893	1845.34422629035	27
1	4894	1846.060720612222	26
1	4901	1848.484215265654	26
1	4903	1849.792207605438	27
1	4912	1850.834537932835	28
1	4914	1851.549284453384	29
1	4916	1852.352078387905	30
1	4917	1852.540402017713	30
1	4921	1853.472312092976	30
1	4930	1855.697022383332	31
1	4931	1856.427697377724	31
1	4938	1859.718059718994	30
1	4939	1860.092511156781	29
1	4943	1860.41049502713	29
1	4945	1860.862863752677	29
1	4946	1862.417447450976	28
1	4948	1862.878275782578	28
1	4949	1863.246593668842	28
1	4951	1863.401289557342	28
1	4952	1863.603831704495	28
1	4954	1863.830207370289	28
1	4958	1866.684412801219	28
1	4959	1869.033579959227	27
1	4963	1870.055426968389	26
1	4964	1870.545569402384	25
1	4965	1871.117503018375	24
1	4966	1871.167577671316	23
1	4967	1871.636603531404	22
1	4968	1873.620196436714	21
1	4970	1874.092699591762	21
1	4971	1874.459060278095	21
1	4973	1874.515133347574	21
1	4975	1875.359643697607	22
1	4977	1876.335390504828	23
1	4978	1876.752779439104	23
1	4979	1877.1018623246	22
1	4980	1878.00785427803	21
1	4984	1879.405838676672	21
1	4986	1882.499068468782	21
1	4987	1883.597944244982	20
1	4988	1884.899116008815	19
1	4989	1886.611397785737	18
1	4993	1887.528388944999	17
1	4994	1887.735682648568	16
1	4995	1888.038548736304	15
1	4997	1888.367153408631	15
1	4999	1890.075777306745	16
1	5003	1893.423609050813	16
1	5004	1893.562812392245	15
[...]
10	2816	1089.854364124689	9.506620931643
10	2817	1089.990545084814	4.794944080501
10	2820	1090.976439597447	3.808827196603
10	2823	1091.31537533941	2.710249945317
10	2824	1091.601466784629	1.851368179367
10	2829	1091.928692133795	1.284402967194
10	2842	1097.99914797334	6.144343477388
10	2868	1105.352558825612	9.689679855986
10	2869	1105.518425432482	9.367426048387
10	2872	1106.498566269844	8.604775261297
10	2875	1107.48551456447	9.197034624484
10	2876	1107.665893931462	9.262565652521
10	2877	1108.508975115394	9.612263921308
10	2878	1108.622717287046	8.913910743735
10	2885	1112.001832243467	9.445060131974
10	2886	1112.346644186158	9.727632474963
10	2887	1112.741968476861	9.825225725401
10	2888	1113.369822377115	8.73692103174
10	2902	1116.259877863454	9.696184119158
10	2903	1116.828409886201	7.779563214714
10	2904	1117.922066263178	6.859310830843
10	2908	1118.816248214841	4.709679168792
10	2935	1128.858725731991	8.791323922132
10	2938	1130.952675740333	10.320979748097
10	2946	1132.707884770109	10.283064207115
10	2947	1133.30814363586	8.981978327105
10	2948	1133.315865662586	7.172165560164
10	2952	1134.482632124365	6.732375698728
10	2953	1135.53313819142	7.770171594047
10	2954	1135.844678120116	6.747285006813
10	2955	1136.80451659291	5.726911338696
10	2964	1138.961348036883	5.519802691041
10	2965	1139.938993698801	2.555992729595
10	2966	1140.470293979474	2.906316635204
10	2971	1141.516997567223	3.396167974688
10	2976	1142.529868386703	1.383413595285
10	2979	1143.620088802114	2.270163483429
10	2989	1149.060160345727	6.927018855818
10	2990	1149.166174496793	6.567870449803
10	2991	1149.912700067287	3.597489850993
10	2992	1149.916860777133	3.376696231516
10	2995	1151.660361523001	3.930802252689
10	3006	1154.871706140685	3.000085458627
10	3015	1157.367258366233	3.716418080362
10	3016	1157.619449719802	3.131909132874
10	3017	1157.915581243837	3.000830813562
10	3018	1158.10329478953	2.898382512678
10	3029	1166.329623572288	3.611103993216
10	3033	1168.444743630765	1.67609260934
10	3041	1171.46494321301	2.367678558942
10	3042	1171.566203812358	1.59069622733
10	3051	1176.2230457429	0.235084174279
10	3077	1189.194277883755	8.793707064364
10	3078	1189.656724095138	6.612151354555
10	3084	1191.921727278206	8.409079372137
10	3090	1194.611708521631	10.184629412293
10	3105	1200.347113086579	10.598302936688
10	3106	1201.659521343292	10.137213688579
10	3107	1202.321140901406	8.722171005463
10	3110	1202.906542874163	8.778176312262
10	3111	1205.494377425613	10.485989896738
10	3112	1206.604055607364	10.662163278553
10	3122	1209.445392311098	13.079044516204
10	3128	1210.171826506453	11.41527305312
10	3129	1210.457279371315	8.10189360029
10	3139	1213.210594446074	4.168398276676
10	3142	1214.623515195983	4.824891185163
10	3147	1217.39452047333	7.421288568342
10	3148	1217.774197918983	6.912432560052
10	3152	1219.056111727268	6.182587276574
10	3153	1219.227460707015	5.573240763161
10	3154	1219.968069032313	4.124244101919
10	3155	1220.008693112442	3.631627353218
10	3156	1221.287057962514	3.166628101977
10	3171	1224.945142167741	1.95829299264
10	3172	1225.202092945335	2.077027340522
10	3182	1230.189471644073	5.628561910316
10	3187	1232.290858331714	6.287694916464
10	3190	1235.656881264579	9.431439829104
10	3196	1237.075164893054	7.554784259398
10	3199	1238.790257469734	8.284698069472
10	3200	1239.108352188421	8.208945697052
10	3205	1240.677995634295	7.20969931613
10	3224	1247.762724708925	10.42016564042
10	3225	1248.484196343675	8.755400568242
10	3226	1250.686775509807	10.84635793549
10	3227	1251.401130622268	10.043630607241
10	3241	1256.279077417455	11.548991075374
10	3242	1256.529862607575	9.520695286487
10	3259	1263.943975655882	12.056568942745
10	3264	1264.130128291467	9.620169545458
10	3279	1268.653992508497	12.893365589698
10	3280	1268.655148888767	11.202472169711
10	3281	1268.702181324473	8.764352725092
10	3286	1270.307034045666	9.962892403856
10	3289	1270.781356367944	9.189267588932
10	3292	1272.475864084084	10.099383835085
10	3293	1272.794323747573	9.998863564218
10	3304	1277.910075893458	13.893188194452
10	3322	1282.599155572539	17.645179276261
10	3331	1284.16472819515	16.292969602993
10	3337	1286.562448458917	16.701183068707
10	3340	1290.718571190468	19.943396379906
10	3341	1291.256295734088	19.62963692816
10	3349	1293.417710792763	19.637824843577
10	3350	1294.588036129819	16.748504625719
10	3351	1295.595990641189	17.191604851998
10	3355	1296.912172977257	18.200658510649
10	3356	1298.220329140444	19.243860158233
10	3357	1298.22367358608	18.490293268725
10	3358	1299.102561788931	17.496270733265
10	3359	1300.309152542118	18.552532137317
10	3375	1304.267161318879	21.489700668068
10	3385	1309.175003304798	23.369272410023
10	3398	1313.645564951092	21.542670124454
10	3410	1316.644387182681	20.300623840677
10	3411	1317.234448981721	16.561385920276
10	3412	1318.323782660031	15.434469607883
10	3413	1318.923695744729	15.874787631445
10	3424	1323.338462439098	19.638819484902
10	3427	1324.029615140708	20.293055105182
10	3436	1325.741057603777	19.277719083428
10	3437	1325.74765746107	18.397566453482
10	3438	1326.465865309184	18.242085189438
10	3439	1326.603870724872	17.951793488341
10	3452	1334.716968519586	22.993445105958
10	3453	1334.875724590267	22.579233830724
10	3454	1335.711241644789	22.76571448817
10	3455	1336.083519178697	22.919802777777
10	3456	1337.680841116935	23.939528430874
10	3457	1337.900981071142	22.925622547703
10	3461	1338.706692914756	18.953470007426
10	3476	1340.403464868824	18.858815440611
10	3497	1351.317136148706	19.408003326035
10	3498	1351.404962790599	18.887784227181
10	3501	1352.899552213372	14.766856295881
10	3504	1353.266806979207	14.470996799233
10	3507	1354.294439832251	15.367491878921
10	3510	1355.924703273135	16.732589355675
10	3513	1356.658914467008	17.285133012969
10	3514	1357.183871558371	17.050213663524
10	3525	1361.483259034106	15.560743515325
10	3528	1363.445480710423	14.414222803824
10	3531	1363.899245016408	14.160607226853
10	3532	1363.94534360043	13.727081036342
10	3545	1368.401839685573	15.424486468382
10	3570	1374.397620886097	19.80754575832
10	3571	1374.553728161374	18.235457199852
10	3574	1375.765435963787	18.109936002896
10	3575	1376.726551669338	17.692376147212
10	3576	1376.903155802505	17.675080851043
10	3577	1376.985581307199	16.050863618994
10	3578	1378.266349213187	16.379937993706
10	3587	1381.203404420797	15.911088953723
10	3588	1381.380024836764	13.910911985956
10	3589	1381.97539385828	14.352839876943
10	3596	1383.642244322691	14.966928719556
10	3602	1384.754519697671	12.92959704683
10	3607	1386.280054376489	13.49667917001
10	3608	1386.573151014784	13.007845886302
10	3614	1389.584793537783	10.979773311918
10	3623	1393.61840432825	11.404075673727
10	3624	1393.719738873209	10.333540105151
10	3625	1394.977818208885	10.644689310636
10	3638	1398.99754694155	13.406624571803
10	3641	1400.028809072405	12.054180859159
10	3651	1400.916898343157	10.799513139776
10	3662	1405.267132127758	13.777699088973
10	3663	1405.686275574472	9.697949394166
10	3664	1405.726474766107	9.54106753212
10	3665	1405.997128619479	9.179228726826
10	3666	1406.291213056485	8.54253245802
10	3670	1407.399986181107	7.449311153897
10	3671	1408.042560558449	7.971877206815
10	3675	1408.906259977246	8.589606065491
10	3678	1411.302473585678	10.942944272262
10	3685	1412.786918645463	11.561187605621
10	3697	1417.045677609557	10.715766618079
10	3698	1418.449967871181	10.352705649198
10	3699	1418.980978261728	8.151947302316
10	3700	1419.502267303825	7.379878579626
10	3705	1421.067846524942	8.77112594113
10	3714	1424.97109131331	9.451507250692
10	3723	1428.137869164672	7.677508704904
10	3726	1430.868458211495	9.699023805038
10	3737	1433.243108375525	8.108136214328
10	3740	1436.59348703303	11.136756785669
10	3750	1439.016318090138	8.836375070852
10	3754	1441.783724016365	9.386047965429
10	3770	1444.880001273359	7.847738365705
10	3793	1454.555669253882	12.67133774953
10	3796	1455.578161767828	13.353254699695
10	3797	1455.980500909312	12.900446108614
10	3820	1463.346440997897	19.501427507658
10	3826	1465.068376000108	17.2850109084
10	3827	1465.242797964786	13.557729305586
10	3837	1468.050007330715	15.522086527987
10	3838	1469.477743439467	16.136327073369
10	3849	1474.451042911713	15.340050832757
10	3850	1476.103449106202	16.750562495544
10	3851	1476.148841019017	16.150768915663
10	3859	1481.791279355814	20.061814160875
10	3860	1481.937110645174	19.115088327336
10	3861	1481.956624435043	18.386292827912
10	3870	1488.45660283462	22.82047008489
10	3876	1489.244045595279	21.92894123763
10	3877	1489.739597114178	19.499489860178
10	3881	1491.992786613815	18.425594374669
10	3898	1497.720737967667	20.916982060916
10	3904	1500.328620559517	22.295451115018
10	3917	1503.257821578352	15.406398036941
10	3918	1503.625906545565	15.078526854064
10	3921	1504.541985777331	15.416958840054
10	3922	1505.332670224758	15.564468289492
10	3937	1509.78734163142	14.720014588016
10	3944	1513.251392879077	17.604695220319
10	3950	1514.638086346258	16.893357445826
10	3951	1515.244696989254	15.704059467883
10	3955	1516.756716817366	14.664324986437
10	3958	1517.168343309635	14.84242240345
10	3961	1517.353116430845	14.394817965583
10	3964	1518.542030475634	15.328135365885
10	4004	1528.461133568185	19.334296110765
10	4015	1531.748801532246	18.341895331334
10	4016	1532.74001102901	18.623728066941
10	4027	1536.812692119188	19.506815663872
10	4035	1538.028033688285	19.330899955774
10	4038	1538.56318098357	19.837684451307
10	4039	1540.625041620925	21.241680665041
10	4040	1541.407238882242	21.544325901585
10	4047	1543.660505508191	23.307067868368
10	4048	1543.87048864314	23.271253837199
10	4049	1544.593322636569	21.473363586057
10	4052	1545.065082406019	21.215932611501
10	4053	1546.496745338615	22.357006585648
10	4054	1546.896965677587	22.182181069693
10	4065	1551.608228886713	25.381589711067
10	4066	1552.354266679581	24.282413429383
10	4071	1554.486857869483	25.738871692535
10	4072	1555.383950705092	25.717651718296
10	4084	1559.053963509978	25.036618178106
10	4085	1559.119824464632	23.805099071145
10	4094	1561.188580822447	23.78828222131
10	4098	1563.06743966127	25.240948830207
10	4108	1566.319048760982	24.070714986494
10	4126	1569.323581749394	24.278663260094
10	4127	1569.756689550926	21.906707493579
10	4130	1570.561909164678	20.98537461601
10	4133	1571.570671193945	21.841758727347
10	4146	1574.349955560721	21.499317978562
10	4161	1576.957415024741	19.213548604791
10	4162	1577.959916441692	19.739987587862
10	4163	1578.023841460057	19.056290282835
10	4171	1584.703632644392	24.426622995953
10	4172	1584.737305457499	22.619733893614
10	4173	1584.758984161606	20.67236053543
10	4174	1585.583595899503	21.012581342873
10	4177	1585.931456412646	21.21097074846
10	4178	1586.264088999282	21.30601429886
10	4181	1587.600525635196	21.135059582588
10	4185	1589.170035820402	21.54182014469
10	4188	1592.412495289881	24.717458435873
10	4193	1596.909620987223	28.344036049289
10	4200	1599.124026919433	28.607072372591
10	4201	1599.518767102943	28.664020868047
10	4204	1599.763804018323	27.94498695303
10	4207	1600.953280268544	29.098090504257
10	4211	1601.794488371535	28.281980904227
10	4212	1604.709886578163	29.625978508462
10	4227	1608.057966097962	32.69228930922
10	4228	1608.772036644305	33.21290580507
10	4239	1611.465915056853	30.618266002617
10	4245	1612.72344792886	28.670913920024
10	4246	1612.818161709733	27.130428280551
10	4254	1613.997685980854	25.686915886045
10	4259	1617.838774311835	27.602107156337
10	4263	1619.622939125088	25.012018382527
10	4264	1620.624958935921	23.526595782119
10	4265	1621.207417123177	21.688426795405
10	4271	1623.44362376727	22.424643627639
10	4274	1624.160042854332	19.333286302252
10	4275	1625.114112663923	19.853689177472
10	4318	1636.456315264604	26.777858037091
10	4319	1637.362546902785	27.554167561272
10	4327	1638.918234149331	27.038781593264
10	4328	1639.283488870927	26.77552321713
10	4337	1643.428854522212	30.141460589336
10	4340	1644.247272023114	30.602551991318
10	4343	1645.389033660582	29.298975800177
10	4351	1648.357699729957	29.556398780593
10	4356	1648.886098782285	26.171283109868
10	4360	1649.514283631219	25.789712082873
10	4364	1650.987903389952	23.464039458147
10	4367	1652.108920553461	24.324433963186
10	4371	1653.327416361881	24.31480886208
10	4372	1654.922076857647	25.267730570412
10	4373	1654.929697135039	24.831426909683
10	4387	1659.449121277951	28.459679462751
10	4391	1662.068492601935	26.034064108494
10	4394	1662.915820350748	26.867253364818
10	4401	1664.854656769387	27.252658370898
10	4402	1664.987954005438	27.221177926193
10	4411	1667.972106087077	27.356264969858
10	4412	1669.124231965054	27.225927810059
10	4416	1670.508654213931	25.465092274497
10	4417	1670.731053564549	24.248132920167
10	4430	1673.774052848441	25.153727259507
10	4431	1674.908919707539	26.232127823967
10	4432	1677.551148033468	28.572305605415
10	4435	1677.626159969401	26.851397913927
10	4436	1678.837688076625	27.594677327922
10	4437	1679.12677385758	26.891936143629
10	4438	1679.450050977284	24.481170872764
10	4439	1681.30572251967	24.43162178035
10	4445	1685.488722518571	26.692645505518
10	4446	1685.636127499449	24.726567784864
10	4456	1688.039963059497	24.518428199337
10	4457	1688.155657444911	24.241651294465
10	4464	1690.846737377462	24.596434352054
10	4465	1691.383952896702	22.054850014888
10	4466	1692.919303130549	22.028955086438
10	4469	1693.1164988631	20.904639215801
10	4470	1693.303051510078	20.28718114651
10	4471	1693.54626138962	20.247336903202
10	4472	1694.493049592723	20.969604044257
10	4477	1697.086639447702	19.482221043827
10	4486	1701.454935829583	15.378325138049
10	4487	1701.533405322458	15.274801283167
10	4488	1701.565937645368	15.130492273829
10	4497	1706.531623665724	17.204533297786
10	4498	1708.652558445872	15.564944607205
10	4509	1710.903308470726	15.73297834052
10	4517	1715.015258871134	15.411414383619
10	4518	1715.252993843145	15.174598636956
10	4525	1717.311100531307	15.253060244644
10	4528	1718.49743686233	13.989498046007
10	4529	1719.624418309489	14.113427144876
10	4546	1726.004223245997	16.47038753766
10	4570	1733.371360541198	17.655683862027
10	4579	1737.070722325458	21.093070942007
10	4582	1738.132650396221	20.343161495833
10	4593	1740.778403260076	19.182021928511
10	4601	1745.06100550761	18.978464837462
10	4611	1745.949741956424	16.750841074161
10	4627	1750.980898142766	20.509745310957
10	4628	1751.223986687784	19.499131471872
10	4629	1751.322941955283	18.818425166273
10	4638	1752.759926772365	17.86423533894
10	4641	1753.237223041666	15.190199003756
10	4642	1753.334379560471	14.26491317965
10	4643	1755.170757876237	15.691078250047
10	4644	1755.888118078788	15.852293153686
10	4658	1760.744690420192	17.443171113499
10	4661	1763.241008520583	19.411848006124
10	4662	1763.522709725727	18.399558166527
10	4663	1763.826175727531	18.523395662608
10	4664	1764.115367505756	18.376354379962
10	4689	1768.633808825632	20.872261928684
10	4690	1768.847849885107	20.86101836874
10	4695	1769.530187871367	20.925720138936
10	4700	1770.25168026916	21.397391838507
10	4726	1777.251264996446	24.170097534436
10	4727	1777.748322872957	21.436963102718
10	4728	1777.951558676517	20.621660516063
10	4734	1779.103896972514	19.798112305537
10	4749	1785.047433850521	20.302370575289
10	4750	1785.19159420683	19.623243130855
10	4759	1787.285745014552	21.276736697237
10	4762	1789.666809346961	23.060613967229
10	4763	1789.966169828446	23.328643105402
10	4773	1795.352547992487	27.27084298233
10	4774	1796.275881130526	28.01432273589
10	4788	1801.564694102485	31.644767618603
10	4789	1801.753874671032	31.790092615644
10	4795	1803.840485102438	32.537563569134
10	4803	1808.403110229685	35.570675107959
10	4809	1813.869325154437	39.781713485137
10	4810	1814.003376752343	39.276851252812
10	4813	1815.01508239534	40.048810175034
10	4814	1815.467342399457	39.951181072419
10	4824	1819.638510127207	43.460838505446
10	4825	1819.921998814638	41.806779894173
10	4833	1822.530970847991	42.574036648946
10	4837	1823.487455815667	41.444509885772
10	4838	1824.670595435688	41.825402105968
10	4839	1825.545846945658	42.342887569138
10	4840	1825.571009820392	40.631390781619
10	4841	1825.753315632637	39.365719209573
10	4842	1825.858758396575	39.241357688671
10	4843	1826.717007861814	39.637768017486
10	4848	1829.155588508471	41.870256054931
10	4854	1831.988929946492	41.589386443658
10	4860	1833.692466956153	40.794965735542
10	4861	1833.701359406931	38.62124924378
10	4864	1835.157994927106	37.08723877364
10	4890	1843.086531535789	37.112892949492
10	4891	1844.235871941501	38.125930897328
10	4892	1845.162807460683	36.792168132017
10	4893	1845.34422629035	34.65645521533
10	4894	1846.060720612222	33.521866542643
10	4917	1852.540402017713	35.375140479085
10	4931	1856.427697377724	36.932113589466
10	4938	1859.718059718994	39.196152217183
10	4939	1860.092511156781	37.954410271642
10	4945	1860.862863752677	32.821329139406
10	4946	1862.417447450976	33.820196406842
10	4949	1863.246593668842	31.999186923061
10	4952	1863.603831704495	32.259140871019
10	4958	1866.684412801219	34.223295309114
10	4959	1869.033579959227	34.885540745358
10	4963	1870.055426968389	34.258331505045
10	4964	1870.545569402384	34.638896642433
10	4965	1871.117503018375	33.966762587653
10	4966	1871.167577671316	32.702379381459
10	4967	1871.636603531404	32.556653769496
10	4968	1873.620196436714	34.053997257982
10	4971	1874.459060278095	34.126107748309
10	4978	1876.752779439104	35.804261831109
10	4979	1877.1018623246	35.250720751351
10	4980	1878.00785427803	31.09427487108
10	4986	1882.499068468782	34.014853203128
10	4987	1883.597944244982	33.805736639544
10	4988	1884.899116008815	34.06457807598
10	4989	1886.611397785737	35.062113332353
10	4993	1887.528388944999	34.214503806208
10	4994	1887.735682648568	34.263370555592
10	4995	1888.038548736304	32.341526352972
10	5003	1893.423609050813	33.031804400874
10	5004	1893.562812392245	33.152317365115
10	5005	1894.228873050105	31.350597267527
10	5006	1894.351627832094	30.950338274752
10	5012	1897.080288793287	31.838575600121
10	5016	1899.660461464209	25.567761872447
10	5024	1902.519325356486	27.159681658879
10	5025	1902.546895715446	26.211505210618
10	5028	1903.828045088228	25.215332074303
10	5029	1904.709239564823	25.303400888151
10	5030	1905.464386104795	18.505903814941
10	5033	1906.583756114023	18.216602705392
10	5034	1906.757509815041	16.681732508296
10	5037	1907.532568820222	14.249629820447
10	5045	1914.406970961717	18.210529418521
10	5050	1918.147930679351	20.751905827807
10	5071	1922.845759710171	21.498372634798
10	5072	1922.935991366168	19.98029284695
10	5091	1930.720738748243	20.37242243432
10	5092	1932.661229626564	18.089127915452
10	5093	1933.96768442644	17.924217552586
10	5098	1937.062486535372	18.752420845972
10	5101	1938.712624171323	19.734105943143
10	5111	1941.844840978156	21.284454202471
10	5118	1944.835298260659	20.830499461262
10	5135	1950.889869974586	24.889245804854
10	5138	1951.305721279473	21.574222924103
10	5139	1951.99359986525	17.558585405214
10	5140	1952.276819461248	15.43807439359
10	5149	1955.610324095715	14.435695913266
10	5156	1959.210438311644	17.200526968106
10	5159	1959.47368759401	15.782502927683
10	5162	1960.92605587125	15.054623474674
10	5163	1961.228819215041	12.529813394417
10	5166	1962.042152859607	12.190140700581
10	5170	1963.003153281543	12.262036313138
10	5182	1966.607509685676	12.387856222408
10	5183	1967.947252215454	10.610224737774
10	5202	1972.238762902957	11.547837954447
10	5203	1972.542898725798	11.108558897363
10	5210	1973.937441960066	11.196373000557
10	5211	1974.090997084813	9.163344208465
10	5222	1977.026411644414	10.849376876332
10	5223	1977.407079387328	11.131909465265
10	5228	1978.719597539547	10.168726031377
10	5233	1983.128795800868	14.330460474233
10	5237	1984.034333105851	13.045506838424
10	5238	1985.048397736377	13.706493326986
10	5268	1995.217839257409	20.539981103954
10	5271	1996.584814485387	21.584062894945
10	5272	1996.629396973081	19.144891233422
10	5273	1996.936267818357	19.06616575503
11	5278	2000	0.4995
12	5278	2000	0.374

