version 2
run Monotonicity_test_recover_rate-490-20221219-18:28:53-16947
attr configname Monotonicity_test_recover_rate
attr datetime 20221219-18:28:53
attr experiment Monotonicity_test_recover_rate
attr inifile omnetpp.ini
attr iterationvars $0=100
attr iterationvarsf 100-
attr measurement $0=100
attr network Network
attr processid 16947
attr repetition 90
attr replication #90
attr resultdir results
attr runnumber 490
attr seedset 90
param *.minion.arrival_mean 2
param *.minion.service_mean 1.5
param *.boss.arrival_mean 2.5
param *.boss.service_mean 0.5
param *.player.recover_rate_x 100
param **.minion.arrival_distribution 0
param **.minion.service_distribution 0
param **.boss.arrival_distribution 0
param **.boss.service_distribution 0

vector 0 Network.player minion_jobs_number_stat:vector ETV
attr source signal_minion_jobs_number
vector 1 Network.player minion_jobs_queue_number_stat:vector ETV
attr source signal_minion_jobs_queue_number
vector 2 Network.player minion_recovered_stat:vector ETV
attr source signal_minion_recovered
vector 3 Network.player minion_defeated_stat:vector ETV
attr source signal_minion_defeated
vector 4 Network.player boss_jobs_number_stat:vector ETV
attr source signal_boss_jobs_number
vector 5 Network.player boss_jobs_queue_number_stat:vector ETV
attr source signal_boss_jobs_queue_number
vector 6 Network.player boss_defeated_stat:vector ETV
attr source signal_boss_defeated
vector 7 Network.player boss_waiting_time_stat:vector ETV
attr source signal_boss_waiting_time
vector 8 Network.player boss_response_time_stat:vector ETV
attr source signal_boss_response_time
vector 9 Network.player minion_waiting_time_stat:vector ETV
attr source signal_minion_waiting_time
vector 10 Network.player minion_response_time_stat:vector ETV
attr source signal_minion_response_time
vector 11 Network.player minion_throughput:vector ETV
attr source signal_minion_throughput
vector 12 Network.player boss_throughput:vector ETV
attr source signal_boss_throughput
0	0	0	0
0	5	1.37742681719	1
0	8	3.436528668937	1
0	11	9.114852711449	1
0	13	9.247562386494	2
0	15	10.170053927024	3
0	19	10.856410019923	4
0	22	11.968821826691	5
0	27	13.145465843271	6
0	35	16.362458585276	4
0	37	16.824274888801	5
0	39	16.856052562814	6
0	45	19.944314408708	6
0	48	22.040934574636	6
0	54	22.722772337096	7
0	56	23.1911483109	8
0	73	27.918769500525	8
0	81	29.916801916027	6
0	84	31.155634580969	6
0	86	31.287031376129	7
0	88	31.301262060786	8
0	90	32.998711137054	9
0	93	34.012560172423	9
0	113	38.482278666871	7
0	115	38.750385495574	8
0	118	39.0446304701	8
0	120	39.359749909342	9
0	124	40.192905115703	10
0	127	41.502391994224	11
0	129	41.606009397809	12
0	131	41.831035854994	13
0	134	43.352099084947	13
0	140	43.966266301441	13
0	144	45.240583125951	14
0	147	45.815633157314	15
0	149	46.041729719627	16
0	158	49.248924206113	16
0	161	51.819510487276	16
0	169	54.808797882225	14
0	173	55.589366371794	15
0	175	56.041282204487	16
0	183	57.321801454761	15
0	187	58.544434989618	16
0	190	58.995443825988	17
0	202	62.791793864843	17
0	213	65.17537770827	18
0	215	65.620152651623	19
0	217	65.665840848344	20
0	233	72.156905673473	19
0	241	73.516952302748	20
0	250	78.144883013791	20
0	253	80.004399878974	20
0	255	80.318985844981	21
0	258	82.582785516757	21
0	260	82.645466798636	22
0	265	83.152916824175	23
0	268	85.224229248058	23
0	281	88.72655427838	22
0	283	89.629283004611	23
0	292	93.233944118207	24
0	305	95.969170868305	25
0	320	105.830923012113	22
0	322	105.907199782116	23
0	324	106.14093962826	24
0	326	108.680691231448	25
0	330	109.655461232924	24
0	336	110.63442484069	24
0	339	111.910274702118	24
0	341	113.228496927303	25
0	343	113.926323949458	26
0	356	119.213289695139	25
0	358	119.972479657871	26
0	363	121.983819274479	27
0	365	123.058718114879	28
0	370	126.116825368688	29
0	372	128.374799276024	30
0	374	128.609738708904	31
0	380	130.760997541015	31
0	383	130.961209453672	31
0	391	134.369986251238	31
0	393	134.741421434532	32
0	396	135.112112174904	33
0	398	135.147353117001	34
0	402	136.316023667295	35
0	405	137.64216496316	36
0	408	140.41327923573	36
0	413	140.873362886709	36
0	419	142.226327127291	37
0	426	145.047245465996	36
0	428	146.375746711051	37
0	435	147.587782881751	36
0	440	147.910601492149	37
0	442	150.560524950239	38
0	444	150.79584905827	39
0	449	151.650003230368	40
0	451	152.19510779381	41
0	455	154.535013176761	40
0	457	155.96318129477	41
0	466	160.093997596888	38
0	472	161.290953239419	38
0	474	162.175380251035	39
0	478	164.122685582857	38
0	494	171.660997983081	36
0	496	172.449267320433	37
0	498	172.480361224645	38
0	504	175.867469911551	38
0	506	176.023924505862	39
0	514	179.585069212928	38
0	521	182.067679270855	37
0	534	189.531150013819	33
0	536	189.603431047839	34
0	539	189.884962145115	34
0	550	194.72966829365	32
0	558	196.344896400896	32
0	565	197.385689786849	32
0	567	197.593623211811	33
0	576	201.518719786814	33
0	579	204.074360074871	33
0	582	204.817959154347	33
0	586	209.40565287176	32
0	591	210.610713979538	33
0	595	213.275391751889	32
0	609	221.280235771631	27
0	615	222.240603910641	27
0	619	222.769638931645	28
0	638	228.065820172654	28
0	640	228.086066366474	29
0	653	233.775351171809	27
0	658	234.480375893445	28
0	662	237.210629609113	28
0	677	241.49008740445	28
0	697	248.858835799241	26
0	702	249.22174168513	26
0	712	255.589089495628	26
0	714	255.731882056188	27
0	717	256.896339750253	27
0	720	258.451194542508	27
0	727	262.863378548067	26
0	740	266.052920309514	26
0	744	266.964183203181	27
0	746	267.460690386655	28
0	748	267.722938669287	29
0	752	269.518875799646	30
0	756	270.715027886529	30
0	761	272.548872803592	28
0	767	276.696301438146	25
0	770	277.138132473349	25
0	774	277.968400115472	26
0	786	282.053366712235	24
0	788	282.507797080189	25
0	792	285.069160023144	24
0	795	286.134472056559	24
0	798	287.174714738089	24
0	804	291.032683096082	24
0	807	291.272898605276	24
0	809	291.481569108352	25
0	815	295.931523630939	25
0	819	296.900708193706	26
0	823	298.887635125316	26
0	830	301.852926318771	25
0	833	304.304916624796	25
0	835	304.659247707553	26
0	848	309.990762023437	22
0	852	313.675457598558	21
0	859	316.587833147117	20
0	866	323.078541666504	19
0	871	323.526665359413	20
0	873	323.650632672545	21
0	875	323.663035622443	22
0	878	324.18957037686	22
0	880	325.773111263752	23
0	883	326.485195225202	23
0	886	328.633236560712	23
0	888	328.952753059654	24
0	890	329.410645483005	25
0	892	329.425772165738	26
0	897	330.384461320428	27
0	902	331.449743587276	28
0	910	335.111793854404	26
0	912	335.160519402726	27
0	915	336.71448033087	27
0	917	336.749966186552	28
0	921	337.244406651192	29
0	924	339.270021976401	30
0	930	342.856646192161	30
0	935	344.350498272675	31
0	937	344.817871892886	32
0	952	349.377085899476	29
0	957	350.156588580891	27
0	960	350.70371368651	27
0	964	351.935001788322	28
0	970	354.00615319	29
0	972	354.139909211514	30
0	974	354.15500010472	31
0	981	355.63583643842	32
0	983	356.024351899519	33
0	988	357.075332544008	32
0	993	360.137234074787	33
0	995	361.773112010092	34
0	1006	365.417958344811	35
0	1010	366.130218261147	34
0	1014	366.297252385358	33
0	1017	367.676262534017	33
0	1019	367.816301272578	34
0	1021	367.886350983642	35
0	1027	369.60520059395	35
0	1029	370.330996725887	36
0	1032	370.642820991663	36
0	1034	370.658630825408	37
0	1037	371.65967529937	37
0	1042	375.172906159467	35
0	1058	382.58213691435	31
0	1060	383.494344769602	32
0	1064	385.29226727911	31
0	1068	386.423765952376	32
0	1071	387.672330354879	33
0	1073	388.52958888561	34
0	1075	389.098297409016	35
0	1079	390.570576762069	34
0	1082	390.945570022315	34
0	1088	394.477163271813	31
0	1094	397.16437173005	31
0	1100	400.93291561693	31
0	1104	401.934791825654	30
0	1106	403.09668000312	31
0	1110	405.275646732571	32
0	1125	412.482484124302	30
0	1127	413.046893003128	31
0	1136	415.174528748218	28
0	1138	416.000791956748	29
0	1142	417.934768795039	30
0	1150	421.676737613459	28
0	1155	423.872765698674	29
0	1158	426.365676448867	30
0	1160	427.284753191804	31
0	1163	427.469624936304	31
0	1165	428.059251472882	32
0	1167	428.115752114203	33
0	1173	432.682865887653	30
0	1178	434.047822423179	28
0	1182	435.337588952979	29
0	1193	436.658294987584	30
0	1196	437.344965140675	31
0	1201	441.654785121543	32
0	1203	441.952081761648	33
0	1215	449.091391005558	30
0	1217	449.313699299235	31
0	1233	454.403009468036	29
0	1239	458.154342143738	27
0	1242	460.430137954826	27
0	1246	462.27452148479	26
0	1249	462.318984136372	26
0	1255	464.653191305651	26
0	1257	465.284263222256	27
0	1260	465.449062473709	27
0	1262	465.886158773754	28
0	1268	466.567280506364	29
0	1273	467.598111541997	30
0	1277	469.055343843495	31
0	1289	473.398166470157	28
0	1296	475.906566199332	27
0	1300	480.487287501203	26
0	1302	481.103440907366	27
0	1313	482.560757229654	28
0	1315	482.767020956932	29
0	1321	489.869111348726	29
0	1325	491.290926739749	28
0	1327	492.12159632081	29
0	1337	494.774028784389	28
0	1340	495.680960269006	28
0	1349	498.116530573141	29
0	1354	499.672254133508	29
0	1359	500.308574642313	30
0	1367	504.620520163531	25
0	1370	504.747478977492	25
0	1379	508.076917576278	25
0	1381	508.086901647296	26
0	1386	509.545793186389	27
0	1392	513.20780814476	27
0	1396	513.757690714129	28
0	1399	514.011123152839	29
0	1411	516.831390312324	29
0	1414	517.999873000242	29
0	1434	524.934422011638	27
0	1438	525.664493223146	28
0	1440	525.779034978423	29
0	1447	528.612692300934	29
0	1450	531.173735307385	29
0	1452	531.300177355054	30
0	1456	532.029645880019	31
0	1459	533.13388387479	32
0	1464	534.591202065297	33
0	1478	540.991583052694	31
0	1501	551.035083316612	26
0	1503	551.589919911866	27
0	1513	554.182939160686	26
0	1518	558.9819095865	24
0	1520	559.660377973378	25
0	1522	560.790770867633	26
0	1527	565.074547410492	24
0	1531	565.354057065941	23
0	1541	568.372125346909	22
0	1549	570.007537326322	22
0	1555	570.456677967788	23
0	1563	573.403358639423	24
0	1569	574.130079173459	25
0	1571	574.258239955559	26
0	1577	575.465752740513	27
0	1580	575.990735773352	28
0	1582	576.178064193664	29
0	1584	576.433559603148	30
0	1588	578.047134507473	31
0	1591	582.155854962539	32
0	1593	583.471181191796	33
0	1602	586.440084082662	33
0	1604	586.816527177916	34
0	1613	591.352460975674	31
0	1625	596.803638124802	28
0	1628	598.460662682376	28
0	1632	600.36341476487	27
0	1634	600.629706884967	28
0	1636	601.079103995446	29
0	1643	603.292491494985	30
0	1648	605.405243796807	31
0	1650	606.147985058974	32
0	1653	607.186707713317	33
0	1662	610.376909833602	32
0	1675	614.722779561859	31
0	1705	623.723520583399	28
0	1708	624.455464653269	29
0	1710	624.523439297923	30
0	1721	629.371440325255	28
0	1738	634.48241955165	28
0	1740	635.080352867473	29
0	1743	635.254369903817	30
0	1746	635.802527497749	30
0	1750	635.979111313388	31
0	1759	639.157661157049	29
0	1771	644.261195385171	29
0	1774	645.741961891564	29
0	1783	649.292751360733	29
0	1786	650.753209962832	29
0	1788	652.315395425498	30
0	1799	653.806963872013	31
0	1804	656.225324935541	31
0	1806	657.017228543505	32
0	1809	657.123265577953	33
0	1814	660.138810846794	34
0	1817	660.6666660361	34
0	1819	660.683758107125	35
0	1823	665.343507505647	34
0	1825	665.382177694188	35
0	1829	667.14288500872	34
0	1833	668.882002773874	33
0	1837	670.548071225052	34
0	1851	676.545523582927	32
0	1859	680.034917495224	33
0	1872	685.307271575451	30
0	1875	687.907384628361	30
0	1879	690.099725629249	29
0	1881	690.899234423325	30
0	1885	694.407062020289	29
0	1890	696.536320341456	30
0	1892	697.887804342141	31
0	1894	698.239037422395	32
0	1900	699.715336221698	32
0	1902	700.737824831006	33
0	1907	705.104546117328	31
0	1910	707.773276938897	31
0	1918	709.570202253194	31
0	1920	709.877535454048	32
0	1924	711.845343170011	32
0	1933	715.763726534038	32
0	1938	716.732618599382	33
0	1942	717.391154428981	34
0	1946	719.363199221368	34
0	1950	719.651082608238	35
0	1952	720.103261554707	36
0	1955	721.580391052051	37
0	1960	725.880729813005	35
0	1970	729.440109892324	34
0	1972	729.827568514636	35
0	1974	730.205908277756	36
0	1976	730.908105941307	37
0	1987	735.821869923904	35
0	1991	736.918235337959	34
0	1996	739.182554141483	34
0	2007	743.344298949353	35
0	2009	744.125937473857	36
0	2012	745.538295945688	37
0	2025	749.372099311452	35
0	2027	749.487218185156	36
0	2035	753.448076776193	35
0	2037	753.54515622754	36
0	2039	753.636615344973	37
0	2041	753.818973542165	38
0	2043	754.657494209925	39
0	2045	755.144875122171	40
0	2063	760.888363883676	37
0	2066	762.485225778518	37
0	2073	763.624981699287	38
0	2077	764.435936266244	38
0	2085	767.360880208959	36
0	2088	769.89634203601	36
0	2090	770.217768246162	37
0	2094	771.306985939244	36
0	2096	772.814613356461	37
0	2100	775.073122491962	36
0	2109	778.737727417854	35
0	2126	785.466436507052	30
0	2129	786.354139766672	31
0	2133	787.844635178083	30
0	2135	788.208125387777	31
0	2137	788.599397495073	32
0	2139	789.74623212662	33
0	2149	791.642811914043	32
0	2151	792.469658519539	33
0	2155	793.321645764224	32
0	2164	798.596309540394	31
0	2168	799.561582784823	31
0	2170	799.571753931167	32
0	2180	804.113272874748	33
0	2184	805.297979229376	33
0	2186	806.324431819262	34
0	2190	806.847365313898	35
0	2193	807.147744653985	36
0	2216	821.349589662099	31
0	2218	821.691448500637	32
0	2232	823.786469676016	30
0	2234	824.971560942076	31
0	2238	827.54118259393	30
0	2241	828.198431817271	30
0	2243	829.444463547818	31
0	2245	829.544905952092	32
0	2247	829.710104531241	33
0	2249	830.980200235335	34
0	2256	833.318709792059	35
0	2281	841.611231410355	34
0	2283	841.715384764011	35
0	2292	843.547132947296	36
0	2296	844.10170675105	35
0	2299	845.683839147899	35
0	2301	845.954981657398	36
0	2303	845.970463593854	37
0	2306	847.268695470344	37
0	2310	848.795792288337	38
0	2317	855.858058359828	38
0	2319	856.167216076639	39
0	2323	859.546715118201	38
0	2325	860.449951889958	39
0	2330	860.752688740948	40
0	2332	860.978124893173	41
0	2334	861.10611611243	42
0	2343	864.254009178422	39
0	2351	865.840339834352	37
0	2359	869.362228372275	38
0	2366	870.888578207101	37
0	2369	872.865444284484	37
0	2378	874.290844753341	38
0	2380	874.729528550466	39
0	2383	875.14005348549	40
0	2394	880.624344151757	38
0	2396	880.775261176722	39
0	2400	882.077092534141	39
0	2402	882.13463611344	40
0	2407	884.028019539238	41
0	2409	885.681516391001	42
0	2412	886.555494669192	42
0	2414	886.910520566701	43
0	2418	888.770501115026	44
0	2420	890.130367505845	45
0	2426	890.62810945153	46
0	2428	890.783011700419	47
0	2430	891.638206621705	48
0	2434	892.546254771655	47
0	2442	896.511924719323	47
0	2445	897.103189190931	48
0	2448	897.322891089386	48
0	2452	900.029631952489	47
0	2454	900.074678061106	48
0	2474	905.927836001924	49
0	2479	908.409364306795	47
0	2492	912.464919197271	46
0	2495	914.464113771944	46
0	2497	915.2153997071	47
0	2499	916.688748903634	48
0	2504	918.489306679476	49
0	2508	922.097466969382	50
0	2514	924.137247093726	51
0	2517	926.37608033625	51
0	2523	927.442191983432	51
0	2527	930.242188719275	50
0	2533	933.805578892615	50
0	2540	937.456233624421	49
0	2550	939.877144946626	45
0	2552	940.307863806514	46
0	2554	941.3559317006	47
0	2557	941.494473772941	47
0	2563	943.315742119365	47
0	2565	945.240330055247	48
0	2571	947.707277489338	48
0	2575	950.559070712012	47
0	2582	953.09288455937	48
0	2592	956.18109537011	48
0	2598	958.910353342509	48
0	2601	959.741427058578	48
0	2606	961.023985862535	49
0	2608	961.296656422998	50
0	2610	962.52246019824	51
0	2612	963.073757185496	52
0	2625	966.689361517545	51
0	2627	968.908873084755	52
0	2629	970.080426221572	53
0	2641	973.290692371815	53
0	2643	973.557073578618	54
0	2645	973.627921751857	55
0	2653	977.402021796085	56
0	2655	977.440842661078	57
0	2657	979.414449682632	58
0	2660	980.058636980581	58
0	2665	981.086893726751	59
0	2674	986.841286406192	59
0	2682	988.996097939796	59
0	2694	995.470451307942	57
0	2696	996.181190009262	58
0	2700	996.737381477021	59
0	2703	997.225443937016	60
0	2705	997.249769337588	61
0	2708	997.454457870584	61
0	2714	1001.655450996065	61
0	2717	1002.729051693177	61
0	2731	1007.788270798014	57
0	2735	1008.149567811882	58
0	2745	1011.419721471021	59
0	2747	1013.149712667099	60
0	2754	1015.952177802966	60
0	2757	1017.055823105577	60
0	2759	1017.100478604611	61
0	2767	1021.606635444502	59
0	2770	1022.100159994639	59
0	2772	1023.735358353908	60
0	2786	1033.199455751775	55
0	2788	1033.672962020906	56
0	2790	1034.020907541555	57
0	2800	1039.996277492862	56
0	2802	1040.054034017398	57
0	2805	1040.475545090935	57
0	2813	1041.997914595408	58
0	2818	1044.782989877854	59
0	2827	1049.620437820535	59
0	2838	1051.813702181674	57
0	2848	1053.953615578895	57
0	2858	1056.211983687474	58
0	2867	1057.89603812302	57
0	2870	1058.163073504689	58
0	2879	1060.678632192148	59
0	2882	1060.917439685235	60
0	2885	1062.022695873413	61
0	2889	1062.931169351836	62
0	2895	1066.442134189851	60
0	2897	1066.957713093174	61
0	2920	1078.1403940772	59
0	2926	1080.922124240806	56
0	2930	1083.019816955855	57
0	2935	1083.509770194915	58
0	2955	1090.005537457897	56
0	2958	1091.297676048955	57
0	2960	1091.899728745921	58
0	2969	1094.921857512269	55
0	2979	1099.686353484227	56
0	2992	1103.574767730269	56
0	3001	1107.040799043691	55
0	3007	1108.407435281106	56
0	3012	1109.535338739415	57
0	3014	1110.567800354407	58
0	3016	1111.082409559399	59
0	3024	1113.871358504081	60
0	3026	1113.911392210665	61
0	3034	1116.318471930807	62
0	3045	1117.938321684812	62
0	3048	1118.610390883571	63
0	3053	1120.567305546872	64
0	3056	1121.338751713721	64
0	3058	1121.564275954451	65
0	3060	1121.601430650284	66
0	3067	1125.606623256973	65
0	3069	1125.97671859449	66
0	3071	1127.089177977402	67
0	3075	1128.094888693781	68
0	3077	1128.117573525908	69
0	3083	1129.331442241008	70
0	3101	1137.520474976629	66
0	3115	1142.966921676557	65
0	3118	1143.810838345845	65
0	3120	1144.010880945577	66
0	3125	1146.330121176862	67
0	3128	1147.427271820377	67
0	3130	1148.720496511614	68
0	3132	1148.883159222422	69
0	3143	1153.801960151687	67
0	3162	1157.410566799888	67
0	3173	1161.840418186558	67
0	3183	1166.306397501206	66
0	3187	1167.670089573269	65
0	3194	1172.077397505095	64
0	3199	1172.770278907492	65
0	3201	1174.131107278287	66
0	3205	1176.420762454408	67
0	3216	1181.741029738728	66
0	3226	1185.84673289967	65
0	3228	1185.964802893452	66
0	3231	1187.297584131337	66
0	3234	1187.911206909848	66
0	3242	1191.096208346085	67
0	3244	1192.478341018181	68
0	3246	1193.380066684725	69
0	3258	1196.021413681202	69
0	3260	1196.723722033916	70
0	3268	1200.096619563481	65
0	3274	1201.831824162554	66
0	3276	1201.999568237946	67
0	3280	1203.682266278483	68
0	3290	1208.214441437285	67
0	3302	1211.813621993481	67
0	3309	1213.007571877128	66
0	3313	1213.176848340756	67
0	3316	1213.412481621684	68
0	3319	1214.328579173317	68
0	3323	1215.652802594142	69
0	3327	1217.022089267757	69
0	3329	1218.795158993698	70
0	3337	1223.367848637005	70
0	3341	1225.0785277109	70
0	3343	1225.25187447992	71
0	3345	1225.72830613778	72
0	3348	1226.203974994935	72
0	3357	1228.117944683444	73
0	3359	1229.070004028674	74
0	3369	1231.250738812634	75
0	3371	1232.485428964339	76
0	3376	1234.342012319273	77
0	3387	1237.221381524695	78
0	3393	1238.115988176528	78
0	3400	1240.915276324453	77
0	3406	1242.403553998307	77
0	3412	1246.080263520663	77
0	3415	1247.020726957209	77
0	3418	1248.955870863478	77
0	3426	1250.80115536046	75
0	3442	1256.063748674942	74
0	3457	1261.79290309026	74
0	3462	1264.455546870212	72
0	3475	1268.669912635305	67
0	3480	1269.594303840156	68
0	3484	1272.697477502604	68
0	3490	1276.73129212815	68
0	3492	1277.054703768509	69
0	3494	1278.79941866502	70
0	3496	1279.858639458655	71
0	3498	1280.700435380191	72
0	3500	1281.676015581778	73
0	3502	1282.756777872209	74
0	3507	1283.72856220442	75
0	3510	1284.046537953162	75
0	3516	1285.130444803532	75
0	3523	1287.075990005717	74
0	3528	1288.816015060712	75
0	3536	1293.519246780476	73
0	3540	1293.898967831618	74
0	3544	1294.564565179647	74
0	3554	1297.719112168783	73
0	3557	1300.572567902543	73
0	3561	1301.973248977284	72
0	3569	1303.642145511928	70
0	3574	1305.252595061157	71
0	3587	1308.130661909895	67
0	3589	1308.267703741033	68
0	3602	1312.431586749866	67
0	3605	1313.165032478222	67
0	3614	1315.678845464268	67
0	3619	1319.110541376446	65
0	3621	1319.126849670647	66
0	3623	1319.512348872522	67
0	3626	1321.017168765217	67
0	3628	1321.017636368954	68
0	3633	1321.774556069341	69
0	3635	1321.936357500887	70
0	3637	1322.62213644066	71
0	3642	1323.775440218426	71
0	3645	1324.686750434692	72
0	3650	1326.738946218329	73
0	3652	1326.913013820396	74
0	3669	1333.234435239221	72
0	3671	1333.318644998018	73
0	3673	1333.946669567011	74
0	3677	1336.106659812856	73
0	3681	1336.564492359941	72
0	3683	1337.234498970172	73
0	3685	1337.894624770039	74
0	3691	1338.721239601145	75
0	3697	1341.98115015262	76
0	3706	1345.920320618987	74
0	3723	1351.28740869526	72
0	3728	1354.580758335771	73
0	3741	1358.488950889758	72
0	3743	1358.703354823349	73
0	3747	1360.705265287296	74
0	3751	1361.684567420537	75
0	3754	1362.300741632239	76
0	3757	1363.38691453345	77
0	3759	1363.839250047893	78
0	3766	1365.207368613769	77
0	3773	1368.519181429391	75
0	3775	1368.552750275329	76
0	3777	1368.573808606477	77
0	3796	1378.767359985181	71
0	3798	1380.247589608874	72
0	3806	1386.607154423223	73
0	3809	1389.045558876638	73
0	3811	1389.97687897433	74
0	3814	1391.405555264054	74
0	3816	1392.160702574456	75
0	3827	1396.341862536522	76
0	3830	1397.599024362291	76
0	3832	1398.005728924304	77
0	3839	1400.043276580011	76
0	3844	1402.017361044452	77
0	3849	1404.24326460888	77
0	3852	1404.789172953634	78
0	3855	1407.735493930462	78
0	3860	1409.349048702363	78
0	3870	1413.541533052578	79
0	3883	1416.8831164315	80
0	3905	1421.873689797092	79
0	3907	1421.901343747548	80
0	3912	1422.437239885087	81
0	3923	1427.353298597326	79
0	3927	1428.388545955846	78
0	3931	1429.950177596627	77
0	3934	1430.632281632463	77
0	3936	1430.873425456258	78
0	3938	1431.502926239471	79
0	3940	1432.504096443031	80
0	3942	1432.738629867294	81
0	3944	1434.934770492214	82
0	3947	1435.195830652906	82
0	3950	1436.059955578125	82
0	3955	1437.815626014844	83
0	3961	1440.110757581975	83
0	3964	1441.191401872629	83
0	3969	1442.179668681095	84
0	3973	1443.5583149641	83
0	3975	1444.370259558157	84
0	3978	1445.8241727263	84
0	3980	1447.276365723322	85
0	3983	1448.94670604558	85
0	3993	1451.503036592059	84
0	3999	1457.6573063753	84
0	4001	1457.69887259319	85
0	4003	1457.769239836418	86
0	4005	1457.777826046223	87
0	4008	1458.766685886253	87
0	4017	1462.313174622935	84
0	4027	1464.971244511827	82
0	4035	1468.38814742568	81
0	4037	1468.925429095704	82
0	4039	1471.209213343649	83
0	4044	1473.85437532967	83
0	4046	1473.915524076913	84
0	4051	1478.317175558362	83
0	4057	1484.801957600969	83
0	4065	1486.491845163594	84
0	4068	1488.325753796434	84
0	4073	1489.443094779476	85
0	4075	1489.60826623148	86
0	4078	1490.179539427326	86
0	4082	1491.099046707772	87
0	4090	1495.281694067838	86
0	4092	1495.447758892616	87
0	4097	1497.24215071279	87
0	4099	1497.882269552452	88
0	4103	1500.567920815128	88
0	4105	1501.851813959756	89
0	4109	1503.564393641313	88
0	4119	1507.750159393733	87
0	4122	1508.506235266029	87
0	4135	1513.687391265666	86
0	4143	1518.22460644853	84
0	4147	1524.354864399719	83
0	4152	1526.678719590686	84
0	4157	1528.526501361568	85
0	4159	1529.046700184378	86
0	4169	1532.114918100153	85
0	4172	1534.013112925804	85
0	4181	1539.904418255372	85
0	4187	1541.83981009576	85
0	4191	1544.759429393868	84
0	4194	1546.172310939679	84
0	4199	1549.100088196538	84
0	4207	1551.226203975715	85
0	4210	1551.736929510819	86
0	4212	1551.823303196089	87
0	4214	1553.423867885613	88
0	4219	1554.83975509191	88
0	4226	1555.889261638741	89
0	4234	1562.198202760051	86
0	4243	1565.771560257013	86
0	4246	1569.190727584156	86
0	4248	1569.443693340203	87
0	4252	1573.025597979727	86
0	4256	1573.543230109446	87
0	4271	1577.289864789248	85
0	4274	1579.405303052379	85
0	4276	1581.002698937868	86
0	4279	1581.640266653626	86
0	4287	1583.902744571849	86
0	4296	1587.20607639431	87
0	4300	1588.41308004043	88
0	4309	1591.366446852897	89
0	4311	1591.509335537477	90
0	4313	1591.820991248394	91
0	4320	1594.682415800353	90
0	4328	1597.891519528685	91
0	4332	1598.020840472143	92
0	4336	1598.788346708118	92
0	4338	1598.870753456158	93
0	4342	1600.919762562532	92
0	4348	1602.561275699082	92
0	4375	1615.69010820286	87
0	4380	1616.415144749957	88
0	4403	1624.181957446879	88
0	4405	1624.243269497243	89
0	4412	1626.377332285976	88
0	4419	1628.148361409984	87
0	4421	1628.482021635591	88
0	4428	1632.756482531904	86
0	4435	1634.699665062457	86
0	4437	1636.364134557641	87
0	4440	1636.700728582335	87
0	4446	1638.143438277908	87
0	4451	1642.293659833787	88
0	4456	1643.720754354444	89
0	4460	1647.355962390606	88
0	4462	1648.488229283762	89
0	4464	1648.697048794992	90
0	4470	1649.599241122196	89
0	4474	1651.348955380447	89
0	4476	1651.968550494953	90
0	4478	1652.3862865004	91
0	4480	1654.080262279018	92
0	4489	1658.452761908413	91
0	4502	1665.080914836588	88
0	4504	1665.758836097163	89
0	4511	1668.632577187379	90
0	4522	1674.101039614105	89
0	4524	1674.52538495844	90
0	4532	1677.597276965704	91
0	4534	1678.374904723137	92
0	4539	1682.75210077907	93
0	4543	1683.291682067001	94
0	4548	1684.169803617815	93
0	4550	1684.388201109644	94
0	4552	1685.095973571146	95
0	4556	1686.140346098016	94
0	4558	1686.747120067786	95
0	4560	1686.963865935418	96
0	4562	1687.726570501512	97
0	4581	1695.585007200192	95
0	4584	1700.432569726418	96
0	4591	1703.665890043752	95
0	4597	1704.511906603395	95
0	4599	1704.8436217645	96
0	4605	1707.819442521259	96
0	4607	1709.746204397267	97
0	4609	1710.703130733712	98
0	4611	1711.045087906044	99
0	4614	1715.240247557153	99
0	4617	1715.669650192028	99
0	4620	1716.340268730439	99
0	4622	1716.431530206829	100
0	4624	1718.071483195493	101
0	4626	1718.942262816149	102
0	4628	1724.309644519316	103
0	4633	1725.410411391476	103
0	4642	1730.090643269128	104
0	4645	1730.618877986713	104
0	4649	1732.150872467531	105
0	4655	1732.631862443535	106
0	4658	1734.141289692914	106
0	4663	1735.129225653973	107
0	4671	1735.802183382122	108
0	4673	1738.647998840393	109
0	4677	1740.912784373148	110
0	4683	1741.602210100088	111
0	4697	1748.174092425793	109
0	4708	1751.391439310656	110
0	4715	1757.542979535071	109
0	4717	1757.659648305781	110
0	4720	1759.429067605991	110
0	4723	1759.551199229221	110
0	4731	1761.207447059016	110
0	4742	1765.583315831725	109
0	4747	1766.572710536621	107
0	4751	1767.280660442987	108
0	4754	1767.698431345404	109
0	4761	1769.78622937213	110
0	4769	1772.888573139477	109
0	4776	1778.371127919124	105
0	4779	1780.748290460725	105
0	4781	1781.377027424959	106
0	4788	1782.817748715444	106
0	4795	1787.315491275363	107
0	4798	1789.065385422407	107
0	4809	1791.799725084219	107
0	4819	1794.714203632054	107
0	4822	1796.992278103427	107
0	4837	1800.610768834499	104
0	4841	1801.296060959558	105
0	4844	1801.940386476156	106
0	4852	1804.026103251205	107
0	4854	1806.55364581598	108
0	4856	1807.31807259811	109
0	4864	1808.927842396001	109
0	4874	1811.880784438486	109
0	4887	1817.138239312893	108
0	4893	1819.901100946012	108
0	4896	1822.384926264419	108
0	4910	1830.989254064286	106
0	4913	1834.694289592239	106
0	4916	1835.327785328749	106
0	4921	1838.685741397566	107
0	4923	1838.766244222245	108
0	4927	1839.473442932265	107
0	4931	1843.49915808393	106
0	4933	1844.151861753824	107
0	4935	1844.92986018527	108
0	4939	1847.513643562875	107
0	4949	1850.557470126013	103
0	4953	1851.725780961463	104
0	4956	1853.038796329855	105
0	4964	1855.306123780892	106
0	4966	1855.521220510796	107
0	4968	1855.808476992059	108
0	4988	1865.001448998201	103
0	5005	1876.655835738018	98
0	5009	1878.310316079915	97
0	5020	1881.896277693093	98
0	5030	1884.320655044783	97
0	5033	1888.47783719119	97
0	5037	1889.259999848654	98
0	5045	1893.205420318524	97
0	5050	1897.27433703974	95
0	5052	1897.290454128248	96
0	5056	1898.034819969209	97
0	5067	1901.966361760568	96
0	5069	1902.826276050133	97
0	5071	1903.627329698359	98
0	5077	1908.112408770771	98
0	5079	1908.365220251254	99
0	5089	1910.26647190316	98
0	5095	1913.626809655496	98
0	5097	1914.052861171745	99
0	5102	1915.042609889881	100
0	5114	1916.815492139082	99
0	5122	1920.260131221893	98
0	5124	1921.104289949638	99
0	5126	1921.602607593348	100
0	5128	1922.081243553844	101
0	5131	1922.938095952652	101
0	5136	1924.377832244435	102
0	5152	1930.876828011541	98
0	5154	1930.883601894457	99
0	5159	1933.571834520074	100
0	5161	1936.312019915727	101
0	5170	1940.414463193984	101
0	5174	1941.940150766964	100
0	5180	1945.38543501977	100
0	5202	1951.164185099252	99
0	5206	1953.433006792121	98
0	5209	1954.040953678751	98
0	5213	1957.890498746191	97
0	5225	1962.418760861452	97
0	5227	1964.047147320975	98
0	5229	1965.649507444738	99
0	5232	1967.850992124115	99
0	5238	1970.404565118541	99
0	5242	1971.550929067125	100
0	5250	1976.426078305879	99
0	5252	1976.568298851128	100
0	5257	1980.19286198447	101
0	5259	1980.263056192117	102
0	5263	1981.037872084027	101
0	5266	1982.54346741533	101
0	5269	1982.661737453544	101
0	5271	1984.458392256825	102
0	5273	1984.470272048096	103
0	5279	1985.356872041002	103
0	5284	1988.156057811463	104
0	5289	1991.095419625811	105
0	5295	1992.4172882829	102
0	5297	1992.496664646211	103
0	5299	1992.687114312619	104
0	5305	1994.925878930266	104
0	5307	1994.991587813357	105
0	5312	1996.901011753008	106
0	5321	1999.67894827115	106
0	5323	1999.893391239333	107
1	0	0	0
1	5	1.37742681719	0
1	6	1.552562827874	0
1	8	3.436528668937	0
1	9	3.983315081806	0
1	11	9.114852711449	0
1	13	9.247562386494	1
1	15	10.170053927024	2
1	19	10.856410019923	3
1	22	11.968821826691	4
1	27	13.145465843271	5
1	31	15.428206846058	5
1	32	15.516272059386	4
1	33	16.307719182188	3
1	35	16.362458585276	3
1	37	16.824274888801	4
1	39	16.856052562814	5
1	43	19.602999821918	5
1	45	19.944314408708	5
1	46	21.596665522177	5
1	48	22.040934574636	5
1	54	22.722772337096	6
1	56	23.1911483109	7
1	71	27.212460140685	7
1	73	27.918769500525	7
1	77	28.332508780911	7
1	78	29.390812160928	6
1	79	29.465562510183	5
1	81	29.916801916027	5
1	82	30.818400407634	5
1	84	31.155634580969	5
1	86	31.287031376129	6
1	88	31.301262060786	7
1	90	32.998711137054	8
1	91	33.002676729613	8
1	93	34.012560172423	8
1	103	36.506702514501	8
1	110	37.872648341794	7
1	111	38.335690748314	6
1	113	38.482278666871	6
1	115	38.750385495574	7
1	116	38.894500326309	7
1	118	39.0446304701	7
1	120	39.359749909342	8
1	124	40.192905115703	9
1	127	41.502391994224	10
1	129	41.606009397809	11
1	131	41.831035854994	12
1	132	43.045671319582	12
1	134	43.352099084947	12
1	135	43.408487178762	12
1	140	43.966266301441	12
1	144	45.240583125951	13
1	147	45.815633157314	14
1	149	46.041729719627	15
1	150	46.725998107391	15
1	158	49.248924206113	15
1	159	50.002412049552	15
1	161	51.819510487276	15
1	162	52.409224018293	15
1	163	52.632242633941	14
1	167	54.030971677597	13
1	169	54.808797882225	13
1	173	55.589366371794	14
1	175	56.041282204487	15
1	180	56.82833022605	15
1	181	57.010666680712	14
1	183	57.321801454761	14
1	187	58.544434989618	15
1	190	58.995443825988	16
1	194	59.783971911408	16
1	202	62.791793864843	16
1	213	65.17537770827	17
1	215	65.620152651623	18
1	217	65.665840848344	19
1	218	65.77105657363	19
1	222	66.601671423499	18
1	233	72.156905673473	18
1	241	73.516952302748	19
1	248	76.842452295513	19
1	250	78.144883013791	19
1	251	78.514628307051	19
1	253	80.004399878974	19
1	255	80.318985844981	20
1	256	82.494347416132	20
1	258	82.582785516757	20
1	260	82.645466798636	21
1	265	83.152916824175	22
1	266	83.690057947728	22
1	268	85.224229248058	22
1	278	87.87303280892	22
1	279	88.69557024976	21
1	281	88.72655427838	21
1	283	89.629283004611	22
1	292	93.233944118207	23
1	305	95.969170868305	24
1	306	97.195010936413	24
1	307	97.562340829969	23
1	308	101.534469733344	22
1	312	103.832964699338	21
1	320	105.830923012113	21
1	322	105.907199782116	22
1	324	106.14093962826	23
1	326	108.680691231448	24
1	327	109.135508941108	24
1	328	109.625180139115	23
1	330	109.655461232924	23
1	334	110.504318261248	23
1	336	110.63442484069	23
1	337	111.871452540413	23
1	339	111.910274702118	23
1	341	113.228496927303	24
1	343	113.926323949458	25
1	353	117.610412145825	25
1	354	118.563091121582	24
1	356	119.213289695139	24
1	358	119.972479657871	25
1	363	121.983819274479	26
1	365	123.058718114879	27
1	370	126.116825368688	28
1	372	128.374799276024	29
1	374	128.609738708904	30
1	378	129.356039083378	30
1	380	130.760997541015	30
1	381	130.943143992446	30
1	383	130.961209453672	30
1	384	131.707556396991	30
1	391	134.369986251238	30
1	393	134.741421434532	31
1	396	135.112112174904	32
1	398	135.147353117001	33
1	402	136.316023667295	34
1	405	137.64216496316	35
1	406	137.913190149467	35
1	408	140.41327923573	35
1	409	140.575027460827	35
1	413	140.873362886709	35
1	419	142.226327127291	36
1	423	144.664743696888	36
1	424	144.944402537611	35
1	426	145.047245465996	35
1	428	146.375746711051	36
1	429	146.536037376816	36
1	430	147.422585857318	35
1	435	147.587782881751	35
1	440	147.910601492149	36
1	442	150.560524950239	37
1	444	150.79584905827	38
1	449	151.650003230368	39
1	451	152.19510779381	40
1	452	153.143008763625	40
1	453	153.901490649384	39
1	455	154.535013176761	39
1	457	155.96318129477	40
1	461	157.867220644154	40
1	462	158.7022448833	39
1	463	159.149435583262	38
1	464	160.019682192539	37
1	466	160.093997596888	37
1	467	160.201385597096	37
1	472	161.290953239419	37
1	474	162.175380251035	38
1	475	162.330275035033	38
1	476	163.702995193072	37
1	478	164.122685582857	37
1	479	164.917732465835	37
1	480	166.197648478171	36
1	487	168.231283151468	35
1	494	171.660997983081	35
1	496	172.449267320433	36
1	498	172.480361224645	37
1	500	172.960047608581	37
1	504	175.867469911551	37
1	506	176.023924505862	38
1	511	178.210620997165	38
1	512	178.832776119871	37
1	514	179.585069212928	37
1	515	179.719410887063	37
1	516	180.140789355918	36
1	521	182.067679270855	36
1	528	185.383813921921	36
1	529	186.462353686635	35
1	530	186.700483193281	34
1	531	186.94625416898	33
1	532	189.105330955493	32
1	534	189.531150013819	32
1	536	189.603431047839	33
1	537	189.73184845189	33
1	539	189.884962145115	33
1	543	192.050755872363	33
1	544	192.826448986299	32
1	545	193.5928715095	31
1	550	194.72966829365	31
1	551	194.753997410864	31
1	558	196.344896400896	31
1	563	197.346996505327	31
1	565	197.385689786849	31
1	567	197.593623211811	32
1	568	198.938121708093	32
1	576	201.518719786814	32
1	577	203.878429085285	32
1	579	204.074360074871	32
1	580	204.088147959359	32
1	582	204.817959154347	32
1	583	206.492311097767	32
1	584	207.354881348836	31
1	586	209.40565287176	31
1	591	210.610713979538	32
1	592	210.718591893552	32
1	593	211.023715490912	31
1	595	213.275391751889	31
1	596	215.626923343388	31
1	597	216.440537264026	30
1	601	218.627239967858	29
1	602	218.831062376678	28
1	606	219.940087608455	27
1	607	220.467473707473	26
1	609	221.280235771631	26
1	613	221.767726793203	26
1	615	222.240603910641	26
1	619	222.769638931645	27
1	624	225.266378038094	27
1	638	228.065820172654	27
1	640	228.086066366474	28
1	641	228.479875326825	28
1	645	229.74057234807	27
1	646	230.022339211201	26
1	653	233.775351171809	26
1	658	234.480375893445	27
1	660	237.107786764244	27
1	662	237.210629609113	27
1	663	237.2584745309	27
1	677	241.49008740445	27
1	678	241.886258078077	27
1	679	242.244051755772	26
1	692	248.081725391206	25
1	697	248.858835799241	25
1	698	249.039455767306	25
1	702	249.22174168513	25
1	710	255.377683967244	25
1	712	255.589089495628	25
1	714	255.731882056188	26
1	715	256.145532929417	26
1	717	256.896339750253	26
1	718	257.596010799494	26
1	720	258.451194542508	26
1	721	258.483443932434	26
1	722	260.034180639015	25
1	727	262.863378548067	25
1	728	263.707521652688	25
1	740	266.052920309514	25
1	744	266.964183203181	26
1	746	267.460690386655	27
1	748	267.722938669287	28
1	752	269.518875799646	29
1	754	269.916933892059	29
1	756	270.715027886529	29
1	757	271.054608478349	29
1	758	271.783590338127	28
1	759	272.135556606712	27
1	761	272.548872803592	27
1	762	274.303661845276	27
1	763	275.558089203483	26
1	764	276.441156997664	25
1	765	276.621973571568	24
1	767	276.696301438146	24
1	768	277.06664566199	24
1	770	277.138132473349	24
1	774	277.968400115472	25
1	782	280.825832501526	25
1	783	281.320403909145	24
1	784	281.846219779043	23
1	786	282.053366712235	23
1	788	282.507797080189	24
1	789	283.089404834903	24
1	790	284.113017929317	23
1	792	285.069160023144	23
1	793	285.916920797811	23
1	795	286.134472056559	23
1	796	286.510942389268	23
1	798	287.174714738089	23
1	799	287.369517658113	23
1	804	291.032683096082	23
1	805	291.251567113537	23
1	807	291.272898605276	23
1	809	291.481569108352	24
1	813	295.694624366594	24
1	815	295.931523630939	24
1	819	296.900708193706	25
1	821	298.124232607503	25
1	823	298.887635125316	25
1	824	300.006017827563	25
1	825	300.968776383791	24
1	830	301.852926318771	24
1	831	302.209453244114	24
1	833	304.304916624796	24
1	835	304.659247707553	25
1	836	304.935597584989	25
1	840	307.784508711918	24
1	844	308.670874961214	23
1	845	308.706403708031	22
1	846	308.840457421252	21
1	848	309.990762023437	21
1	849	310.80201702979	21
1	850	313.245428863655	20
1	852	313.675457598558	20
1	856	315.305223123552	20
1	857	315.814325343033	19
1	859	316.587833147117	19
1	860	318.598998567621	19
1	864	321.992129625746	18
1	866	323.078541666504	18
1	871	323.526665359413	19
1	873	323.650632672545	20
1	875	323.663035622443	21
1	876	324.152820759429	21
1	878	324.18957037686	21
1	880	325.773111263752	22
1	881	325.934772525848	22
1	883	326.485195225202	22
1	884	328.13264338384	22
1	886	328.633236560712	22
1	888	328.952753059654	23
1	890	329.410645483005	24
1	892	329.425772165738	25
1	897	330.384461320428	26
1	902	331.449743587276	27
1	903	331.794726938353	27
1	904	332.36566581365	26
1	905	334.220479909589	25
1	910	335.111793854404	25
1	912	335.160519402726	26
1	913	336.636410464581	26
1	915	336.71448033087	26
1	917	336.749966186552	27
1	921	337.244406651192	28
1	924	339.270021976401	29
1	925	341.125118545277	29
1	930	342.856646192161	29
1	935	344.350498272675	30
1	937	344.817871892886	31
1	938	344.873002155845	31
1	942	347.299176908745	30
1	949	348.56519670754	29
1	950	348.73259857158	28
1	952	349.377085899476	28
1	953	349.580365971454	28
1	954	349.584112885622	27
1	955	349.742141327828	26
1	957	350.156588580891	26
1	958	350.295625448012	26
1	960	350.70371368651	26
1	964	351.935001788322	27
1	970	354.00615319	28
1	972	354.139909211514	29
1	974	354.15500010472	30
1	981	355.63583643842	31
1	983	356.024351899519	32
1	985	356.346864011417	32
1	986	356.451507182908	31
1	988	357.075332544008	31
1	993	360.137234074787	32
1	995	361.773112010092	33
1	1006	365.417958344811	34
1	1007	365.653033140021	34
1	1008	365.773168658492	33
1	1010	366.130218261147	33
1	1011	366.194964090217	33
1	1012	366.268306564575	32
1	1014	366.297252385358	32
1	1015	366.706010406299	32
1	1017	367.676262534017	32
1	1019	367.816301272578	33
1	1021	367.886350983642	34
1	1025	369.37460447611	34
1	1027	369.60520059395	34
1	1029	370.330996725887	35
1	1030	370.416182085558	35
1	1032	370.642820991663	35
1	1034	370.658630825408	36
1	1035	371.371652960219	36
1	1037	371.65967529937	36
1	1038	372.39200055048	36
1	1039	374.418736361009	35
1	1040	374.813997689903	34
1	1042	375.172906159467	34
1	1049	377.318793061943	34
1	1050	377.687735783193	33
1	1051	378.149171558849	32
1	1055	379.696188429228	31
1	1056	380.85160045113	30
1	1058	382.58213691435	30
1	1060	383.494344769602	31
1	1061	383.550808525691	31
1	1062	385.051105624156	30
1	1064	385.29226727911	30
1	1068	386.423765952376	31
1	1071	387.672330354879	32
1	1073	388.52958888561	33
1	1075	389.098297409016	34
1	1076	389.221611511307	34
1	1077	390.162136085395	33
1	1079	390.570576762069	33
1	1080	390.890671708175	33
1	1082	390.945570022315	33
1	1083	391.101958940649	33
1	1084	391.510849070152	32
1	1085	393.100208903653	31
1	1086	394.259034707345	30
1	1088	394.477163271813	30
1	1089	394.996057455548	30
1	1094	397.16437173005	30
1	1098	399.533864649685	30
1	1100	400.93291561693	30
1	1101	401.153950770305	30
1	1102	401.845925616131	29
1	1104	401.934791825654	29
1	1106	403.09668000312	30
1	1110	405.275646732571	31
1	1112	405.742574778313	31
1	1113	408.038121319131	30
1	1114	408.642992284943	29
1	1125	412.482484124302	29
1	1127	413.046893003128	30
1	1128	413.059800347998	30
1	1129	413.077360593432	29
1	1130	413.118063188797	28
1	1131	413.638154824129	27
1	1136	415.174528748218	27
1	1138	416.000791956748	28
1	1142	417.934768795039	29
1	1144	419.526559386902	29
1	1145	420.882872037184	28
1	1146	421.243693858239	27
1	1150	421.676737613459	27
1	1155	423.872765698674	28
1	1158	426.365676448867	29
1	1160	427.284753191804	30
1	1161	427.414754278436	30
1	1163	427.469624936304	30
1	1165	428.059251472882	31
1	1167	428.115752114203	32
1	1168	429.839619885109	32
1	1169	431.093775915922	31
1	1170	431.251090734394	30
1	1171	431.987233058405	29
1	1173	432.682865887653	29
1	1174	432.94931430458	29
1	1175	433.199582192145	28
1	1176	433.261104584979	27
1	1178	434.047822423179	27
1	1182	435.337588952979	28
1	1193	436.658294987584	29
1	1196	437.344965140675	30
1	1201	441.654785121543	31
1	1203	441.952081761648	32
1	1204	442.855149337596	32
1	1205	443.858179559545	31
1	1212	447.051794848467	30
1	1213	448.809962793302	29
1	1215	449.091391005558	29
1	1217	449.313699299235	30
1	1218	449.831670037634	30
1	1222	450.667236933976	29
1	1223	450.710715053129	28
1	1233	454.403009468036	28
1	1235	455.572488166579	28
1	1236	456.073780603128	27
1	1237	457.008093030956	26
1	1239	458.154342143738	26
1	1240	459.766898007853	26
1	1242	460.430137954826	26
1	1243	461.753488836148	26
1	1244	462.073089326172	25
1	1246	462.27452148479	25
1	1247	462.301165627171	25
1	1249	462.318984136372	25
1	1253	464.584355386416	25
1	1255	464.653191305651	25
1	1257	465.284263222256	26
1	1258	465.382703530452	26
1	1260	465.449062473709	26
1	1262	465.886158773754	27
1	1268	466.567280506364	28
1	1273	467.598111541997	29
1	1277	469.055343843495	30
1	1278	469.501364915602	30
1	1282	470.658976474488	29
1	1283	471.706808557129	28
1	1284	471.829091458451	27
1	1289	473.398166470157	27
1	1290	473.762814595179	27
1	1291	474.589949179045	26
1	1296	475.906566199332	26
1	1297	478.472214427195	26
1	1298	479.146513540279	25
1	1300	480.487287501203	25
1	1302	481.103440907366	26
1	1313	482.560757229654	27
1	1315	482.767020956932	28
1	1316	487.155746620521	28
1	1321	489.869111348726	28
1	1322	490.051524376714	28
1	1323	490.742277523603	27
1	1325	491.290926739749	27
1	1327	492.12159632081	28
1	1328	492.57559910151	28
1	1329	492.807374162164	27
1	1337	494.774028784389	27
1	1338	495.265866912966	27
1	1340	495.680960269006	27
1	1349	498.116530573141	28
1	1352	499.353070127212	28
1	1354	499.672254133508	28
1	1359	500.308574642313	29
1	1360	501.300620459605	29
1	1361	502.508936155605	28
1	1362	502.645413376608	27
1	1363	502.911427218228	26
1	1364	503.178399580468	25
1	1365	503.556513859681	24
1	1367	504.620520163531	24
1	1368	504.672012199478	24
1	1370	504.747478977492	24
1	1374	506.123549876142	24
1	1379	508.076917576278	24
1	1381	508.086901647296	25
1	1386	509.545793186389	26
1	1390	512.448574610194	26
1	1392	513.20780814476	26
1	1396	513.757690714129	27
1	1399	514.011123152839	28
1	1403	515.712255352852	28
1	1411	516.831390312324	28
1	1412	516.98732456544	28
1	1414	517.999873000242	28
1	1415	518.678825947828	28
1	1416	520.224794180781	27
1	1417	521.09801450616	26
1	1434	524.934422011638	26
1	1438	525.664493223146	27
1	1440	525.779034978423	28
1	1445	528.076322414198	28
1	1447	528.612692300934	28
1	1448	530.45059539325	28
1	1450	531.173735307385	28
1	1452	531.300177355054	29
1	1456	532.029645880019	30
1	1459	533.13388387479	31
1	1464	534.591202065297	32
1	1465	536.204026654199	32
1	1466	536.504316701926	31
1	1476	540.120900063759	30
1	1478	540.991583052694	30
1	1482	543.268484753105	30
1	1483	543.881393840075	29
1	1487	544.995251533355	28
1	1488	546.346731796298	27
1	1489	546.914633004788	26
1	1490	547.464203260009	25
1	1501	551.035083316612	25
1	1503	551.589919911866	26
1	1507	552.264747877028	26
1	1511	554.121001186961	25
1	1513	554.182939160686	25
1	1514	556.197954800518	25
1	1515	556.407986644887	24
1	1516	557.380468359308	23
1	1518	558.9819095865	23
1	1520	559.660377973378	24
1	1522	560.790770867633	25
1	1523	561.080330694339	25
1	1524	562.902510260349	24
1	1525	562.976816243061	23
1	1527	565.074547410492	23
1	1528	565.076459448914	23
1	1529	565.177678107601	22
1	1531	565.354057065941	22
1	1535	567.481949472037	22
1	1536	567.681135104218	21
1	1541	568.372125346909	21
1	1542	569.016720832498	21
1	1549	570.007537326322	21
1	1555	570.456677967788	22
1	1563	573.403358639423	23
1	1569	574.130079173459	24
1	1571	574.258239955559	25
1	1577	575.465752740513	26
1	1580	575.990735773352	27
1	1582	576.178064193664	28
1	1584	576.433559603148	29
1	1588	578.047134507473	30
1	1591	582.155854962539	31
1	1593	583.471181191796	32
1	1597	586.203313858963	32
1	1602	586.440084082662	32
1	1604	586.816527177916	33
1	1605	587.96173599754	33
1	1606	588.849498696406	32
1	1610	590.576957685619	31
1	1611	591.080973105316	30
1	1613	591.352460975674	30
1	1614	591.780387943509	30
1	1615	592.374469564706	29
1	1622	596.40276952291	28
1	1623	596.714913173151	27
1	1625	596.803638124802	27
1	1626	597.143837317154	27
1	1628	598.460662682376	27
1	1629	598.957407448023	27
1	1630	599.459204393709	26
1	1632	600.36341476487	26
1	1634	600.629706884967	27
1	1636	601.079103995446	28
1	1643	603.292491494985	29
1	1648	605.405243796807	30
1	1650	606.147985058974	31
1	1653	607.186707713317	32
1	1654	608.447823870515	32
1	1655	608.791135379533	31
1	1662	610.376909833602	31
1	1667	613.221931263768	31
1	1671	614.176783105368	30
1	1675	614.722779561859	30
1	1692	617.610274737619	30
1	1693	618.015713548504	29
1	1694	618.153844554153	28
1	1695	618.371439084968	27
1	1705	623.723520583399	27
1	1708	624.455464653269	28
1	1710	624.523439297923	29
1	1714	625.417300913923	29
1	1715	625.500450165662	28
1	1719	628.046783713541	27
1	1721	629.371440325255	27
1	1728	630.744999896637	27
1	1738	634.48241955165	27
1	1740	635.080352867473	28
1	1743	635.254369903817	29
1	1744	635.683778287569	29
1	1746	635.802527497749	29
1	1750	635.979111313388	30
1	1752	636.968186103841	30
1	1756	638.529455950673	29
1	1757	638.664564299627	28
1	1759	639.157661157049	28
1	1760	640.371703922943	28
1	1771	644.261195385171	28
1	1772	645.426727301	28
1	1774	645.741961891564	28
1	1781	648.70734426397	28
1	1783	649.292751360733	28
1	1784	650.490787810454	28
1	1786	650.753209962832	28
1	1788	652.315395425498	29
1	1799	653.806963872013	30
1	1800	654.539427828216	30
1	1804	656.225324935541	30
1	1806	657.017228543505	31
1	1809	657.123265577953	32
1	1814	660.138810846794	33
1	1815	660.163550023181	33
1	1817	660.6666660361	33
1	1819	660.683758107125	34
1	1820	661.907247925291	34
1	1821	664.521882287076	33
1	1823	665.343507505647	33
1	1825	665.382177694188	34
1	1826	665.478686460801	34
1	1827	666.834525008259	33
1	1829	667.14288500872	33
1	1830	668.543378714109	33
1	1831	668.604298349469	32
1	1833	668.882002773874	32
1	1837	670.548071225052	33
1	1842	673.328625407974	33
1	1843	673.63344840969	32
1	1847	674.403418923369	31
1	1851	676.545523582927	31
1	1859	680.034917495224	32
1	1864	681.247042482103	32
1	1868	682.320736578927	31
1	1869	682.362608311996	30
1	1870	682.387707632467	29
1	1872	685.307271575451	29
1	1873	686.316871330122	29
1	1875	687.907384628361	29
1	1876	688.38731037073	29
1	1877	688.46182138912	28
1	1879	690.099725629249	28
1	1881	690.899234423325	29
1	1882	692.330583389986	29
1	1883	693.07414894975	28
1	1885	694.407062020289	28
1	1890	696.536320341456	29
1	1892	697.887804342141	30
1	1894	698.239037422395	31
1	1898	699.007014577626	31
1	1900	699.715336221698	31
1	1902	700.737824831006	32
1	1903	701.444017589873	32
1	1904	702.186834416703	31
1	1905	703.641641667388	30
1	1907	705.104546117328	30
1	1908	707.537742290368	30
1	1910	707.773276938897	30
1	1911	707.904040388172	30
1	1918	709.570202253194	30
1	1920	709.877535454048	31
1	1922	710.621386448143	31
1	1924	711.845343170011	31
1	1925	713.143719464524	31
1	1933	715.763726534038	31
1	1938	716.732618599382	32
1	1942	717.391154428981	33
1	1944	718.794974019648	33
1	1946	719.363199221368	33
1	1950	719.651082608238	34
1	1952	720.103261554707	35
1	1955	721.580391052051	36
1	1956	723.186812611266	36
1	1957	724.623154648369	35
1	1958	725.2136458554	34
1	1960	725.880729813005	34
1	1964	727.573894833372	34
1	1968	729.150652782226	33
1	1970	729.440109892324	33
1	1972	729.827568514636	34
1	1974	730.205908277756	35
1	1976	730.908105941307	36
1	1977	732.700197093146	36
1	1978	732.865990861926	35
1	1985	734.778023465971	34
1	1987	735.821869923904	34
1	1988	736.246551931157	34
1	1989	736.726303392685	33
1	1991	736.918235337959	33
1	1992	737.801264572189	33
1	1996	739.182554141483	33
1	2007	743.344298949353	34
1	2009	744.125937473857	35
1	2012	745.538295945688	36
1	2013	745.721979757245	36
1	2014	745.990912510225	35
1	2018	747.6690558145	34
1	2025	749.372099311452	34
1	2027	749.487218185156	35
1	2029	750.064863841789	35
1	2030	751.044082279847	34
1	2035	753.448076776193	34
1	2037	753.54515622754	35
1	2039	753.636615344973	36
1	2041	753.818973542165	37
1	2043	754.657494209925	38
1	2045	755.144875122171	39
1	2049	755.986995851799	39
1	2050	756.330318283215	38
1	2051	756.545039398098	37
1	2058	759.816709555092	36
1	2063	760.888363883676	36
1	2064	761.842181714394	36
1	2066	762.485225778518	36
1	2073	763.624981699287	37
1	2075	764.092522739938	37
1	2077	764.435936266244	37
1	2078	765.208375940011	37
1	2079	765.418095390056	36
1	2080	765.869686075574	35
1	2085	767.360880208959	35
1	2086	768.010581355738	35
1	2088	769.89634203601	35
1	2090	770.217768246162	36
1	2091	771.004902018085	36
1	2092	771.063303799895	35
1	2094	771.306985939244	35
1	2096	772.814613356461	36
1	2097	773.404850920661	36
1	2098	774.990306825226	35
1	2100	775.073122491962	35
1	2101	776.052469472071	35
1	2105	777.938293204994	34
1	2109	778.737727417854	34
1	2114	779.911624404557	34
1	2115	780.365559824781	33
1	2119	781.054757265609	32
1	2120	783.022711231951	31
1	2121	783.93607875654	30
1	2122	784.400521511981	29
1	2126	785.466436507052	29
1	2129	786.354139766672	30
1	2130	786.70196890613	30
1	2131	787.348548773332	29
1	2133	787.844635178083	29
1	2135	788.208125387777	30
1	2137	788.599397495073	31
1	2139	789.74623212662	32
1	2140	789.881754658806	32
1	2141	790.565866716312	31
1	2149	791.642811914043	31
1	2151	792.469658519539	32
1	2152	792.605292118047	32
1	2153	792.818899740667	31
1	2155	793.321645764224	31
1	2156	793.600858347703	31
1	2157	793.796950359239	30
1	2164	798.596309540394	30
1	2166	799.17160645681	30
1	2168	799.561582784823	30
1	2170	799.571753931167	31
1	2180	804.113272874748	32
1	2182	805.270310811255	32
1	2184	805.297979229376	32
1	2186	806.324431819262	33
1	2190	806.847365313898	34
1	2193	807.147744653985	35
1	2194	808.394705943953	35
1	2198	811.067948278498	34
1	2199	811.743710521683	33
1	2200	812.64510873747	32
1	2213	819.711391606096	31
1	2214	820.77470214935	30
1	2216	821.349589662099	30
1	2218	821.691448500637	31
1	2222	822.443842631512	31
1	2229	823.280107437724	30
1	2230	823.657860535766	29
1	2232	823.786469676016	29
1	2234	824.971560942076	30
1	2235	825.323195557154	30
1	2236	827.09756548014	29
1	2238	827.54118259393	29
1	2239	828.14336802758	29
1	2241	828.198431817271	29
1	2243	829.444463547818	30
1	2245	829.544905952092	31
1	2247	829.710104531241	32
1	2249	830.980200235335	33
1	2256	833.318709792059	34
1	2261	835.496493593112	34
1	2268	837.329944870625	33
1	2281	841.611231410355	33
1	2283	841.715384764011	34
1	2292	843.547132947296	35
1	2293	843.619507203935	35
1	2294	843.713049193944	34
1	2296	844.10170675105	34
1	2297	844.209474648633	34
1	2299	845.683839147899	34
1	2301	845.954981657398	35
1	2303	845.970463593854	36
1	2304	846.36579138206	36
1	2306	847.268695470344	36
1	2310	848.795792288337	37
1	2315	851.629284699948	37
1	2317	855.858058359828	37
1	2319	856.167216076639	38
1	2320	856.798554860275	38
1	2321	857.427691491997	37
1	2323	859.546715118201	37
1	2325	860.449951889958	38
1	2330	860.752688740948	39
1	2332	860.978124893173	40
1	2334	861.10611611243	41
1	2335	861.416490109463	41
1	2336	861.71752711724	40
1	2337	861.9164337399	39
1	2338	862.396109759661	38
1	2343	864.254009178422	38
1	2344	864.630253876034	38
1	2345	865.500781212202	37
1	2346	865.528944750619	36
1	2351	865.840339834352	36
1	2359	869.362228372275	37
1	2360	869.413415374321	37
1	2364	870.694840136831	36
1	2366	870.888578207101	36
1	2367	871.610633777504	36
1	2369	872.865444284484	36
1	2378	874.290844753341	37
1	2380	874.729528550466	38
1	2383	875.14005348549	39
1	2388	877.59409110992	39
1	2389	878.265840044209	38
1	2390	879.355670552303	37
1	2394	880.624344151757	37
1	2396	880.775261176722	38
1	2398	881.290077517573	38
1	2400	882.077092534141	38
1	2402	882.13463611344	39
1	2407	884.028019539238	40
1	2409	885.681516391001	41
1	2410	885.738515348162	41
1	2412	886.555494669192	41
1	2414	886.910520566701	42
1	2418	888.770501115026	43
1	2420	890.130367505845	44
1	2426	890.62810945153	45
1	2428	890.783011700419	46
1	2430	891.638206621705	47
1	2431	891.675997581906	47
1	2432	892.480018147172	46
1	2434	892.546254771655	46
1	2435	895.135847040978	46
1	2442	896.511924719323	46
1	2445	897.103189190931	47
1	2446	897.222997931735	47
1	2448	897.322891089386	47
1	2449	897.485719322108	47
1	2450	899.642231611113	46
1	2452	900.029631952489	46
1	2454	900.074678061106	47
1	2474	905.927836001924	48
1	2475	906.550765747959	48
1	2476	907.781742384144	47
1	2477	908.031802058404	46
1	2479	908.409364306795	46
1	2480	908.619902737371	46
1	2484	910.556198651118	45
1	2492	912.464919197271	45
1	2493	912.51490065907	45
1	2495	914.464113771944	45
1	2497	915.2153997071	46
1	2499	916.688748903634	47
1	2504	918.489306679476	48
1	2508	922.097466969382	49
1	2514	924.137247093726	50
1	2515	925.261426981673	50
1	2517	926.37608033625	50
1	2518	926.445111709261	50
1	2523	927.442191983432	50
1	2524	928.978681980634	50
1	2525	929.908345041514	49
1	2527	930.242188719275	49
1	2531	933.794176014912	49
1	2533	933.805578892615	49
1	2534	935.136891243349	49
1	2535	935.781784001762	48
1	2540	937.456233624421	48
1	2541	937.573353723609	48
1	2542	937.82338330011	47
1	2543	938.161559916997	46
1	2544	938.199976562004	45
1	2545	939.226429833695	44
1	2550	939.877144946626	44
1	2552	940.307863806514	45
1	2554	941.3559317006	46
1	2555	941.422796787582	46
1	2557	941.494473772941	46
1	2561	943.114890102899	46
1	2563	943.315742119365	46
1	2565	945.240330055247	47
1	2569	946.955537634532	47
1	2571	947.707277489338	47
1	2572	948.924060286024	47
1	2573	950.41725272691	46
1	2575	950.559070712012	46
1	2582	953.09288455937	47
1	2584	953.356004838089	47
1	2592	956.18109537011	47
1	2593	957.056016532601	47
1	2598	958.910353342509	47
1	2599	959.072974542299	47
1	2601	959.741427058578	47
1	2606	961.023985862535	48
1	2608	961.296656422998	49
1	2610	962.52246019824	50
1	2612	963.073757185496	51
1	2622	965.664300103959	51
1	2623	966.266441036432	50
1	2625	966.689361517545	50
1	2627	968.908873084755	51
1	2629	970.080426221572	52
1	2630	970.527751524637	52
1	2641	973.290692371815	52
1	2643	973.557073578618	53
1	2645	973.627921751857	54
1	2653	977.402021796085	55
1	2655	977.440842661078	56
1	2657	979.414449682632	57
1	2658	979.866064405197	57
1	2660	980.058636980581	57
1	2665	981.086893726751	58
1	2672	985.998549361914	58
1	2674	986.841286406192	58
1	2678	988.449721796467	58
1	2682	988.996097939796	58
1	2684	989.838470133253	58
1	2685	990.816649127748	57
1	2692	992.552511233973	56
1	2694	995.470451307942	56
1	2696	996.181190009262	57
1	2700	996.737381477021	58
1	2703	997.225443937016	59
1	2705	997.249769337588	60
1	2706	997.372891090027	60
1	2708	997.454457870584	60
1	2709	998.133834639355	60
1	2714	1001.655450996065	60
1	2715	1002.161832630552	60
1	2717	1002.729051693177	60
1	2721	1004.756144811284	60
1	2722	1004.795695821322	59
1	2723	1005.039443989436	58
1	2724	1005.080398837708	57
1	2725	1006.055590013983	56
1	2731	1007.788270798014	56
1	2735	1008.149567811882	57
1	2745	1011.419721471021	58
1	2747	1013.149712667099	59
1	2749	1014.194492736568	59
1	2754	1015.952177802966	59
1	2755	1016.525217793738	59
1	2757	1017.055823105577	59
1	2759	1017.100478604611	60
1	2760	1017.121426461883	60
1	2764	1021.295070096067	59
1	2765	1021.564413562158	58
1	2767	1021.606635444502	58
1	2768	1022.020240063482	58
1	2770	1022.100159994639	58
1	2772	1023.735358353908	59
1	2773	1024.003778600946	59
1	2774	1024.311872983148	58
1	2775	1024.511536559398	57
1	2779	1027.531847559292	56
1	2783	1029.867538164686	55
1	2784	1030.329370356629	54
1	2786	1033.199455751775	54
1	2788	1033.672962020906	55
1	2790	1034.020907541555	56
1	2797	1038.048073492518	56
1	2798	1039.36148391131	55
1	2800	1039.996277492862	55
1	2802	1040.054034017398	56
1	2803	1040.284262826602	56
1	2805	1040.475545090935	56
1	2813	1041.997914595408	57
1	2818	1044.782989877854	58
1	2819	1046.044084225695	58
1	2827	1049.620437820535	58
1	2834	1051.184081767283	58
1	2835	1051.234312763108	57
1	2836	1051.466071453708	56
1	2838	1051.813702181674	56
1	2839	1052.968342495526	56
1	2848	1053.953615578895	56
1	2858	1056.211983687474	57
1	2862	1056.763899847211	57
1	2863	1057.080730013731	56
1	2867	1057.89603812302	56
1	2870	1058.163073504689	57
1	2879	1060.678632192148	58
1	2882	1060.917439685235	59
1	2885	1062.022695873413	60
1	2889	1062.931169351836	61
1	2891	1063.734149913568	61
1	2892	1064.338228625108	60
1	2893	1065.451360122157	59
1	2895	1066.442134189851	59
1	2897	1066.957713093174	60
1	2901	1070.523436188381	60
1	2908	1072.809055118851	59
1	2909	1072.957468634334	58
1	2920	1078.1403940772	58
1	2921	1078.234223883337	58
1	2922	1079.147704819878	57
1	2923	1079.938540971819	56
1	2924	1080.15595318559	55
1	2926	1080.922124240806	55
1	2930	1083.019816955855	56
1	2935	1083.509770194915	57
1	2940	1084.648914678287	57
1	2947	1087.404701491778	56
1	2948	1088.920174073532	55
1	2955	1090.005537457897	55
1	2958	1091.297676048955	56
1	2960	1091.899728745921	57
1	2961	1092.458408550971	57
1	2962	1092.556522427635	56
1	2963	1093.336063422621	55
1	2964	1093.904018225155	54
1	2969	1094.921857512269	54
1	2979	1099.686353484227	55
1	2981	1099.86688785922	55
1	2992	1103.574767730269	55
1	2993	1103.975044346224	55
1	2994	1105.120004605542	54
1	3001	1107.040799043691	54
1	3007	1108.407435281106	55
1	3012	1109.535338739415	56
1	3014	1110.567800354407	57
1	3016	1111.082409559399	58
1	3024	1113.871358504081	59
1	3026	1113.911392210665	60
1	3034	1116.318471930807	61
1	3035	1116.40321603617	61
1	3045	1117.938321684812	61
1	3048	1118.610390883571	62
1	3053	1120.567305546872	63
1	3054	1121.323894749997	63
1	3056	1121.338751713721	63
1	3058	1121.564275954451	64
1	3060	1121.601430650284	65
1	3061	1121.822300835006	65
1	3062	1122.569934855746	64
1	3067	1125.606623256973	64
1	3069	1125.97671859449	65
1	3071	1127.089177977402	66
1	3075	1128.094888693781	67
1	3077	1128.117573525908	68
1	3083	1129.331442241008	69
1	3090	1131.974749365069	69
1	3091	1132.195778813501	68
1	3092	1133.037123653955	67
1	3093	1134.453378097318	66
1	3097	1137.151149231265	65
1	3101	1137.520474976629	65
1	3103	1138.797083968584	65
1	3110	1141.937190168149	64
1	3115	1142.966921676557	64
1	3116	1142.982947919629	64
1	3118	1143.810838345845	64
1	3120	1144.010880945577	65
1	3125	1146.330121176862	66
1	3126	1147.026101620637	66
1	3128	1147.427271820377	66
1	3130	1148.720496511614	67
1	3132	1148.883159222422	68
1	3133	1150.957555715588	68
1	3140	1153.442285024072	67
1	3141	1153.640737922933	66
1	3143	1153.801960151687	66
1	3144	1154.709463881397	66
1	3162	1157.410566799888	66
1	3165	1159.810797154547	66
1	3173	1161.840418186558	66
1	3177	1163.528481801362	66
1	3181	1165.381278680706	65
1	3183	1166.306397501206	65
1	3184	1166.752740282437	65
1	3185	1166.857145588824	64
1	3187	1167.670089573269	64
1	3188	1167.674516357744	64
1	3189	1170.113256122494	63
1	3194	1172.077397505095	63
1	3199	1172.770278907492	64
1	3201	1174.131107278287	65
1	3205	1176.420762454408	66
1	3207	1177.415343444294	66
1	3211	1179.122421172597	65
1	3216	1181.741029738728	65
1	3217	1182.369606213975	65
1	3224	1185.090226732844	64
1	3226	1185.84673289967	64
1	3228	1185.964802893452	65
1	3229	1186.389605335589	65
1	3231	1187.297584131337	65
1	3232	1187.784347270702	65
1	3234	1187.911206909848	65
1	3242	1191.096208346085	66
1	3244	1192.478341018181	67
1	3246	1193.380066684725	68
1	3253	1195.326188140242	68
1	3258	1196.021413681202	68
1	3260	1196.723722033916	69
1	3261	1196.990547070678	69
1	3262	1197.337002322453	68
1	3263	1197.84646742192	67
1	3264	1198.260893270008	66
1	3265	1199.360203693423	65
1	3266	1199.983259276051	64
1	3268	1200.096619563481	64
1	3274	1201.831824162554	65
1	3276	1201.999568237946	66
1	3280	1203.682266278483	67
1	3284	1204.47656482447	67
1	3288	1206.763609858318	66
1	3290	1208.214441437285	66
1	3294	1209.612553298898	66
1	3302	1211.813621993481	66
1	3303	1212.21274160178	66
1	3304	1212.552810353257	65
1	3309	1213.007571877128	65
1	3313	1213.176848340756	66
1	3316	1213.412481621684	67
1	3317	1214.085472728716	67
1	3319	1214.328579173317	67
1	3323	1215.652802594142	68
1	3325	1216.696354587089	68
1	3327	1217.022089267757	68
1	3329	1218.795158993698	69
1	3333	1222.007832362704	69
1	3337	1223.367848637005	69
1	3339	1224.744589012861	69
1	3341	1225.0785277109	69
1	3343	1225.25187447992	70
1	3345	1225.72830613778	71
1	3346	1225.816976088354	71
1	3348	1226.203974994935	71
1	3357	1228.117944683444	72
1	3359	1229.070004028674	73
1	3369	1231.250738812634	74
1	3371	1232.485428964339	75
1	3376	1234.342012319273	76
1	3387	1237.221381524695	77
1	3388	1237.231510681405	77
1	3393	1238.115988176528	77
1	3397	1240.495411820712	77
1	3398	1240.72463560053	76
1	3400	1240.915276324453	76
1	3404	1242.035359162326	76
1	3406	1242.403553998307	76
1	3410	1245.867197347227	76
1	3412	1246.080263520663	76
1	3413	1246.623295255612	76
1	3415	1247.020726957209	76
1	3416	1247.398857635522	76
1	3418	1248.955870863478	76
1	3419	1249.463346062722	76
1	3423	1250.078153428439	75
1	3424	1250.637826607636	74
1	3426	1250.80115536046	74
1	3427	1251.054977212824	74
1	3431	1254.854652897922	73
1	3442	1256.063748674942	73
1	3455	1260.922096809491	73
1	3457	1261.79290309026	73
1	3458	1263.207871440372	73
1	3459	1263.810340226104	72
1	3460	1264.250881951379	71
1	3462	1264.455546870212	71
1	3463	1264.606810690465	71
1	3467	1265.612846739419	70
1	3468	1266.29172965609	69
1	3469	1266.543271869614	68
1	3470	1266.669917662014	67
1	3471	1267.652990518352	66
1	3475	1268.669912635305	66
1	3480	1269.594303840156	67
1	3482	1270.412711893812	67
1	3484	1272.697477502604	67
1	3488	1276.423054703711	67
1	3490	1276.73129212815	67
1	3492	1277.054703768509	68
1	3494	1278.79941866502	69
1	3496	1279.858639458655	70
1	3498	1280.700435380191	71
1	3500	1281.676015581778	72
1	3502	1282.756777872209	73
1	3507	1283.72856220442	74
1	3508	1283.854031423299	74
1	3510	1284.046537953162	74
1	3514	1284.829389309851	74
1	3516	1285.130444803532	74
1	3517	1285.220623230488	74
1	3521	1286.529709571429	73
1	3523	1287.075990005717	73
1	3528	1288.816015060712	74
1	3532	1291.685696650727	74
1	3533	1292.591211842867	73
1	3534	1293.325906922577	72
1	3536	1293.519246780476	72
1	3540	1293.898967831618	73
1	3542	1294.424068592711	73
1	3544	1294.564565179647	73
1	3548	1296.115445073153	73
1	3552	1296.763718529477	72
1	3554	1297.719112168783	72
1	3555	1298.974786542169	72
1	3557	1300.572567902543	72
1	3558	1301.041427640727	72
1	3559	1301.777375962532	71
1	3561	1301.973248977284	71
1	3562	1302.192000943485	71
1	3563	1302.425697895234	70
1	3564	1302.983043007588	69
1	3569	1303.642145511928	69
1	3574	1305.252595061157	70
1	3578	1306.445406537148	70
1	3582	1307.342248290819	69
1	3583	1307.474752348694	68
1	3584	1307.732309273373	67
1	3585	1308.08501323891	66
1	3587	1308.130661909895	66
1	3589	1308.267703741033	67
1	3590	1308.865680190752	67
1	3591	1310.14425738512	66
1	3602	1312.431586749866	66
1	3603	1312.965705162211	66
1	3605	1313.165032478222	66
1	3609	1314.203764966605	66
1	3614	1315.678845464268	66
1	3615	1316.530982346419	66
1	3616	1316.778246103272	65
1	3617	1317.725640396899	64
1	3619	1319.110541376446	64
1	3621	1319.126849670647	65
1	3623	1319.512348872522	66
1	3624	1320.100631667058	66
1	3626	1321.017168765217	66
1	3628	1321.017636368954	67
1	3633	1321.774556069341	68
1	3635	1321.936357500887	69
1	3637	1322.62213644066	70
1	3638	1322.640873043485	70
1	3642	1323.775440218426	70
1	3645	1324.686750434692	71
1	3650	1326.738946218329	72
1	3652	1326.913013820396	73
1	3653	1327.070347762653	73
1	3660	1329.624435691949	72
1	3664	1331.141668970179	71
1	3669	1333.234435239221	71
1	3671	1333.318644998018	72
1	3673	1333.946669567011	73
1	3674	1335.457895257089	73
1	3675	1336.075030618773	72
1	3677	1336.106659812856	72
1	3678	1336.28660175599	72
1	3679	1336.359416480072	71
1	3681	1336.564492359941	71
1	3683	1337.234498970172	72
1	3685	1337.894624770039	73
1	3691	1338.721239601145	74
1	3697	1341.98115015262	75
1	3702	1344.092039750458	75
1	3703	1344.48383766366	74
1	3704	1344.96997805596	73
1	3706	1345.920320618987	73
1	3707	1346.073186292549	73
1	3714	1348.33722940877	72
1	3721	1349.515935399027	71
1	3723	1351.28740869526	71
1	3728	1354.580758335771	72
1	3732	1355.05676743007	72
1	3736	1356.79364030518	71
1	3741	1358.488950889758	71
1	3743	1358.703354823349	72
1	3747	1360.705265287296	73
1	3751	1361.684567420537	74
1	3754	1362.300741632239	75
1	3757	1363.38691453345	76
1	3759	1363.839250047893	77
1	3760	1363.957966212854	77
1	3764	1364.341192763355	76
1	3766	1365.207368613769	76
1	3767	1365.728288761864	76
1	3768	1366.873675225683	75
1	3769	1367.505620292775	74
1	3773	1368.519181429391	74
1	3775	1368.552750275329	75
1	3777	1368.573808606477	76
1	3779	1369.460157125573	76
1	3783	1372.306428036922	75
1	3784	1373.113124175386	74
1	3785	1373.191614270649	73
1	3786	1375.482932570179	72
1	3787	1375.706896331443	71
1	3791	1376.494998593761	70
1	3796	1378.767359985181	70
1	3798	1380.247589608874	71
1	3806	1386.607154423223	72
1	3807	1387.804734508328	72
1	3809	1389.045558876638	72
1	3811	1389.97687897433	73
1	3812	1390.526827367356	73
1	3814	1391.405555264054	73
1	3816	1392.160702574456	74
1	3827	1396.341862536522	75
1	3828	1397.448553850966	75
1	3830	1397.599024362291	75
1	3832	1398.005728924304	76
1	3833	1398.397194784648	76
1	3837	1399.64228267361	75
1	3839	1400.043276580011	75
1	3844	1402.017361044452	76
1	3845	1402.149070904266	76
1	3849	1404.24326460888	76
1	3852	1404.789172953634	77
1	3853	1406.087898559319	77
1	3855	1407.735493930462	77
1	3856	1408.462513392184	77
1	3860	1409.349048702363	77
1	3870	1413.541533052578	78
1	3883	1416.8831164315	79
1	3884	1416.915173791999	79
1	3903	1421.669745633798	78
1	3905	1421.873689797092	78
1	3907	1421.901343747548	79
1	3912	1422.437239885087	80
1	3916	1425.169870681751	80
1	3917	1425.194140657006	79
1	3918	1425.497794216786	78
1	3923	1427.353298597326	78
1	3924	1427.680129399538	78
1	3925	1428.014391812311	77
1	3927	1428.388545955846	77
1	3928	1429.092739921903	77
1	3929	1429.772945584914	76
1	3931	1429.950177596627	76
1	3932	1430.193863321128	76
1	3934	1430.632281632463	76
1	3936	1430.873425456258	77
1	3938	1431.502926239471	78
1	3940	1432.504096443031	79
1	3942	1432.738629867294	80
1	3944	1434.934770492214	81
1	3945	1435.088359785127	81
1	3947	1435.195830652906	81
1	3948	1435.450591777978	81
1	3950	1436.059955578125	81
1	3955	1437.815626014844	82
1	3956	1437.990206911058	82
1	3961	1440.110757581975	82
1	3962	1440.967967301423	82
1	3964	1441.191401872629	82
1	3969	1442.179668681095	83
1	3970	1442.391848934956	83
1	3971	1442.624959522389	82
1	3973	1443.5583149641	82
1	3975	1444.370259558157	83
1	3976	1445.314895600489	83
1	3978	1445.8241727263	83
1	3980	1447.276365723322	84
1	3981	1448.23166606998	84
1	3983	1448.94670604558	84
1	3984	1449.706938298923	84
1	3985	1449.86328023504	83
1	3993	1451.503036592059	83
1	3997	1455.979748871392	83
1	3999	1457.6573063753	83
1	4001	1457.69887259319	84
1	4003	1457.769239836418	85
1	4005	1457.777826046223	86
1	4006	1458.003064963618	86
1	4008	1458.766685886253	86
1	4009	1459.379517613034	86
1	4010	1459.48634324598	85
1	4014	1461.731741440469	84
1	4015	1462.223870590708	83
1	4017	1462.313174622935	83
1	4021	1462.758156408578	83
1	4022	1462.986656670032	82
1	4023	1463.582809525067	81
1	4027	1464.971244511827	81
1	4032	1467.881650427065	81
1	4033	1467.926823785497	80
1	4035	1468.38814742568	80
1	4037	1468.925429095704	81
1	4039	1471.209213343649	82
1	4040	1472.896327706947	82
1	4044	1473.85437532967	82
1	4046	1473.915524076913	83
1	4048	1476.80488711493	83
1	4049	1477.998126871433	82
1	4051	1478.317175558362	82
1	4052	1482.113625408823	82
1	4057	1484.801957600969	82
1	4065	1486.491845163594	83
1	4066	1487.392465134903	83
1	4068	1488.325753796434	83
1	4073	1489.443094779476	84
1	4075	1489.60826623148	85
1	4076	1489.881223829946	85
1	4078	1490.179539427326	85
1	4082	1491.099046707772	86
1	4084	1491.402846636387	86
1	4088	1495.150838237403	85
1	4090	1495.281694067838	85
1	4092	1495.447758892616	86
1	4093	1495.620546919997	86
1	4097	1497.24215071279	86
1	4099	1497.882269552452	87
1	4101	1499.816823774449	87
1	4103	1500.567920815128	87
1	4105	1501.851813959756	88
1	4106	1502.060005106301	88
1	4107	1502.773597006492	87
1	4109	1503.564393641313	87
1	4116	1506.213321179776	87
1	4117	1507.149571394018	86
1	4119	1507.750159393733	86
1	4120	1508.182455531829	86
1	4122	1508.506235266029	86
1	4123	1510.546012984164	86
1	4124	1511.637755272156	85
1	4135	1513.687391265666	85
1	4136	1513.839116075466	85
1	4137	1514.788753576813	84
1	4141	1517.756254042204	83
1	4143	1518.22460644853	83
1	4144	1523.124605525329	83
1	4145	1523.297254728252	82
1	4147	1524.354864399719	82
1	4152	1526.678719590686	83
1	4157	1528.526501361568	84
1	4159	1529.046700184378	85
1	4160	1529.45629028088	85
1	4161	1529.638429248718	84
1	4169	1532.114918100153	84
1	4170	1532.495591165915	84
1	4172	1534.013112925804	84
1	4173	1534.503111522072	84
1	4181	1539.904418255372	84
1	4182	1540.125806852178	84
1	4187	1541.83981009576	84
1	4188	1543.301163620375	84
1	4189	1544.370905020282	83
1	4191	1544.759429393868	83
1	4192	1545.438808437133	83
1	4194	1546.172310939679	83
1	4195	1546.299206113556	83
1	4199	1549.100088196538	83
1	4207	1551.226203975715	84
1	4210	1551.736929510819	85
1	4212	1551.823303196089	86
1	4214	1553.423867885613	87
1	4215	1554.520946274843	87
1	4219	1554.83975509191	87
1	4226	1555.889261638741	88
1	4229	1557.07624041925	88
1	4230	1559.706990011244	87
1	4231	1559.859233576968	86
1	4232	1562.194051936853	85
1	4234	1562.198202760051	85
1	4235	1563.515736567987	85
1	4243	1565.771560257013	85
1	4244	1566.160203237558	85
1	4246	1569.190727584156	85
1	4248	1569.443693340203	86
1	4249	1571.090166372083	86
1	4250	1571.868142328782	85
1	4252	1573.025597979727	85
1	4256	1573.543230109446	86
1	4258	1573.876473702097	86
1	4259	1574.497772013966	85
1	4260	1574.728903477876	84
1	4271	1577.289864789248	84
1	4272	1579.293480537469	84
1	4274	1579.405303052379	84
1	4276	1581.002698937868	85
1	4277	1581.40930001946	85
1	4279	1581.640266653626	85
1	4280	1581.899887982559	85
1	4287	1583.902744571849	85
1	4296	1587.20607639431	86
1	4300	1588.41308004043	87
1	4309	1591.366446852897	88
1	4311	1591.509335537477	89
1	4313	1591.820991248394	90
1	4314	1592.204782693305	90
1	4318	1594.537591457703	89
1	4320	1594.682415800353	89
1	4328	1597.891519528685	90
1	4332	1598.020840472143	91
1	4334	1598.435208807995	91
1	4336	1598.788346708118	91
1	4338	1598.870753456158	92
1	4339	1599.153700596664	92
1	4340	1599.414262887172	91
1	4342	1600.919762562532	91
1	4343	1601.226351927154	91
1	4348	1602.561275699082	91
1	4349	1603.368145289937	91
1	4350	1605.927780706961	90
1	4354	1607.699406710626	89
1	4355	1607.987194159583	88
1	4359	1610.88921921354	87
1	4360	1611.656374722601	86
1	4375	1615.69010820286	86
1	4380	1616.415144749957	87
1	4389	1619.92508888138	87
1	4403	1624.181957446879	87
1	4405	1624.243269497243	88
1	4406	1625.333882519579	88
1	4410	1626.357027686475	87
1	4412	1626.377332285976	87
1	4413	1626.586110885845	87
1	4414	1627.721812712907	86
1	4419	1628.148361409984	86
1	4421	1628.482021635591	87
1	4422	1630.228814993073	87
1	4423	1630.662064423926	86
1	4424	1632.009048461827	85
1	4428	1632.756482531904	85
1	4430	1634.064108095302	85
1	4435	1634.699665062457	85
1	4437	1636.364134557641	86
1	4438	1636.676251589707	86
1	4440	1636.700728582335	86
1	4441	1637.405779203021	86
1	4446	1638.143438277908	86
1	4451	1642.293659833787	87
1	4456	1643.720754354444	88
1	4457	1644.522408805583	88
1	4458	1646.897023179233	87
1	4460	1647.355962390606	87
1	4462	1648.488229283762	88
1	4464	1648.697048794992	89
1	4465	1648.705711355984	89
1	4466	1648.972777111369	88
1	4470	1649.599241122196	88
1	4472	1651.131523175638	88
1	4474	1651.348955380447	88
1	4476	1651.968550494953	89
1	4478	1652.3862865004	90
1	4480	1654.080262279018	91
1	4481	1654.322588469746	91
1	4482	1657.654715904787	90
1	4489	1658.452761908413	90
1	4491	1659.14620300024	90
1	4492	1659.411925433491	89
1	4493	1660.239534199474	88
1	4500	1663.301405638046	87
1	4502	1665.080914836588	87
1	4504	1665.758836097163	88
1	4511	1668.632577187379	89
1	4513	1670.13304976251	89
1	4517	1673.239003390012	88
1	4522	1674.101039614105	88
1	4524	1674.52538495844	89
1	4532	1677.597276965704	90
1	4534	1678.374904723137	91
1	4539	1682.75210077907	92
1	4543	1683.291682067001	93
1	4545	1683.561658258532	93
1	4546	1683.566336170095	92
1	4548	1684.169803617815	92
1	4550	1684.388201109644	93
1	4552	1685.095973571146	94
1	4553	1685.205719973322	94
1	4554	1685.848974003588	93
1	4556	1686.140346098016	93
1	4558	1686.747120067786	94
1	4560	1686.963865935418	95
1	4562	1687.726570501512	96
1	4566	1690.432001011123	96
1	4567	1690.991779370651	95
1	4568	1691.753400134327	94
1	4581	1695.585007200192	94
1	4584	1700.432569726418	95
1	4588	1702.620419404607	95
1	4589	1703.153909003417	94
1	4591	1703.665890043752	94
1	4592	1703.949573408284	94
1	4597	1704.511906603395	94
1	4599	1704.8436217645	95
1	4600	1705.235344598213	95
1	4605	1707.819442521259	95
1	4607	1709.746204397267	96
1	4609	1710.703130733712	97
1	4611	1711.045087906044	98
1	4612	1712.860550882991	98
1	4614	1715.240247557153	98
1	4615	1715.241586604547	98
1	4617	1715.669650192028	98
1	4618	1716.274562062328	98
1	4620	1716.340268730439	98
1	4622	1716.431530206829	99
1	4624	1718.071483195493	100
1	4626	1718.942262816149	101
1	4628	1724.309644519316	102
1	4629	1724.527456994667	102
1	4633	1725.410411391476	102
1	4642	1730.090643269128	103
1	4643	1730.196296496953	103
1	4645	1730.618877986713	103
1	4649	1732.150872467531	104
1	4655	1732.631862443535	105
1	4656	1732.831790740285	105
1	4658	1734.141289692914	105
1	4663	1735.129225653973	106
1	4671	1735.802183382122	107
1	4673	1738.647998840393	108
1	4677	1740.912784373148	109
1	4683	1741.602210100088	110
1	4684	1742.974001019849	110
1	4685	1743.19109815875	109
1	4695	1747.536387003022	108
1	4697	1748.174092425793	108
1	4708	1751.391439310656	109
1	4712	1756.633812362477	109
1	4713	1757.021039820159	108
1	4715	1757.542979535071	108
1	4717	1757.659648305781	109
1	4718	1758.200399506563	109
1	4720	1759.429067605991	109
1	4721	1759.457909648	109
1	4723	1759.551199229221	109
1	4724	1759.685215543065	109
1	4731	1761.207447059016	109
1	4736	1763.428874729391	109
1	4740	1764.986487954817	108
1	4742	1765.583315831725	108
1	4743	1765.749472109969	108
1	4744	1765.824529979658	107
1	4745	1766.462161163949	106
1	4747	1766.572710536621	106
1	4751	1767.280660442987	107
1	4754	1767.698431345404	108
1	4761	1769.78622937213	109
1	4763	1771.39161437118	109
1	4767	1772.800723252348	108
1	4769	1772.888573139477	108
1	4770	1774.930416413227	108
1	4771	1776.314916866935	107
1	4772	1776.316520624994	106
1	4773	1776.610906784945	105
1	4774	1777.224293309647	104
1	4776	1778.371127919124	104
1	4777	1780.302332993712	104
1	4779	1780.748290460725	104
1	4781	1781.377027424959	105
1	4782	1782.037553936887	105
1	4788	1782.817748715444	105
1	4795	1787.315491275363	106
1	4796	1788.614736216525	106
1	4798	1789.065385422407	106
1	4802	1790.661312656004	106
1	4809	1791.799725084219	106
1	4814	1793.139812036338	106
1	4819	1794.714203632054	106
1	4820	1795.358915462091	106
1	4822	1796.992278103427	106
1	4826	1797.748283003608	106
1	4827	1798.613837280942	105
1	4828	1798.792161408001	104
1	4829	1799.450951559315	103
1	4837	1800.610768834499	103
1	4841	1801.296060959558	104
1	4844	1801.940386476156	105
1	4852	1804.026103251205	106
1	4854	1806.55364581598	107
1	4856	1807.31807259811	108
1	4857	1807.893165302299	108
1	4864	1808.927842396001	108
1	4869	1809.766648640995	108
1	4874	1811.880784438486	108
1	4875	1812.224020396016	108
1	4882	1815.143505204395	107
1	4887	1817.138239312893	107
1	4888	1817.621512986045	107
1	4893	1819.901100946012	107
1	4894	1820.148395037417	107
1	4896	1822.384926264419	107
1	4900	1824.833303720552	107
1	4901	1824.852036910552	106
1	4902	1826.791072788449	105
1	4910	1830.989254064286	105
1	4911	1832.389866267341	105
1	4913	1834.694289592239	105
1	4914	1834.979756326475	105
1	4916	1835.327785328749	105
1	4921	1838.685741397566	106
1	4923	1838.766244222245	107
1	4924	1839.154754722204	107
1	4925	1839.170264606584	106
1	4927	1839.473442932265	106
1	4928	1842.33627532031	106
1	4929	1842.784284883479	105
1	4931	1843.49915808393	105
1	4933	1844.151861753824	106
1	4935	1844.92986018527	107
1	4936	1845.958681999712	107
1	4937	1847.034894742178	106
1	4939	1847.513643562875	106
1	4940	1847.733944495079	106
1	4941	1847.904760544125	105
1	4942	1848.013788183473	104
1	4946	1849.651975889008	103
1	4947	1850.00337464249	102
1	4949	1850.557470126013	102
1	4953	1851.725780961463	103
1	4956	1853.038796329855	104
1	4964	1855.306123780892	105
1	4966	1855.521220510796	106
1	4968	1855.808476992059	107
1	4969	1856.237370936413	107
1	4970	1856.286416774682	106
1	4974	1858.659476657187	105
1	4984	1862.514238765961	104
1	4985	1863.705768910696	103
1	4986	1864.893079089338	102
1	4988	1865.001448998201	102
1	4989	1865.283384021806	102
1	4990	1866.362924735973	101
1	4991	1868.275394769318	100
1	4998	1872.819960482826	99
1	5002	1876.510729848928	98
1	5003	1876.605126462866	97
1	5005	1876.655835738018	97
1	5006	1876.842972902622	97
1	5007	1877.667340791127	96
1	5009	1878.310316079915	96
1	5020	1881.896277693093	97
1	5027	1883.334735178429	97
1	5028	1883.875854343994	96
1	5030	1884.320655044783	96
1	5031	1887.585511074849	96
1	5033	1888.47783719119	96
1	5037	1889.259999848654	97
1	5042	1890.317789763189	97
1	5043	1891.151483826118	96
1	5045	1893.205420318524	96
1	5046	1894.017863274753	96
1	5047	1895.881738293194	95
1	5048	1896.511570594618	94
1	5050	1897.27433703974	94
1	5052	1897.290454128248	95
1	5056	1898.034819969209	96
1	5064	1900.331191253837	96
1	5065	1900.33779962792	95
1	5067	1901.966361760568	95
1	5069	1902.826276050133	96
1	5071	1903.627329698359	97
1	5075	1907.174908564205	97
1	5077	1908.112408770771	97
1	5079	1908.365220251254	98
1	5080	1908.702500537763	98
1	5087	1909.775341157108	97
1	5089	1910.26647190316	97
1	5090	1911.670686046873	97
1	5095	1913.626809655496	97
1	5097	1914.052861171745	98
1	5102	1915.042609889881	99
1	5103	1915.138509396113	99
1	5104	1915.64884089041	98
1	5114	1916.815492139082	98
1	5119	1919.451405121605	98
1	5120	1920.11394254748	97
1	5122	1920.260131221893	97
1	5124	1921.104289949638	98
1	5126	1921.602607593348	99
1	5128	1922.081243553844	100
1	5129	1922.290953037949	100
1	5131	1922.938095952652	100
1	5136	1924.377832244435	101
1	5137	1924.640130016517	101
1	5141	1925.533113414891	100
1	5142	1925.635497925842	99
1	5149	1928.701586579524	98
1	5150	1929.698114690928	97
1	5152	1930.876828011541	97
1	5154	1930.883601894457	98
1	5159	1933.571834520074	99
1	5161	1936.312019915727	100
1	5168	1940.02226198803	100
1	5170	1940.414463193984	100
1	5171	1941.620702510324	100
1	5172	1941.919461362626	99
1	5174	1941.940150766964	99
1	5175	1943.640091437323	99
1	5180	1945.38543501977	99
1	5199	1950.49955662297	99
1	5200	1951.116257298365	98
1	5202	1951.164185099252	98
1	5203	1951.746519478961	98
1	5204	1952.834294518711	97
1	5206	1953.433006792121	97
1	5207	1953.437700454228	97
1	5209	1954.040953678751	97
1	5210	1955.64907173731	97
1	5211	1957.480528813058	96
1	5213	1957.890498746191	96
1	5214	1959.371794125214	96
1	5225	1962.418760861452	96
1	5227	1964.047147320975	97
1	5229	1965.649507444738	98
1	5230	1966.366460404527	98
[...]
10	2389	878.265840044209	48.555735512968
10	2390	879.355670552303	48.375470316968
10	2398	881.290077517573	47.971367725514
10	2410	885.738515348162	49.54878912097
10	2431	891.675997581906	49.960612817895
10	2432	892.480018147172	48.932885199876
10	2435	895.135847040978	51.034140289928
10	2446	897.222997931735	51.268016274337
10	2449	897.485719322108	51.515255728254
10	2450	899.642231611113	52.373536140769
10	2475	906.550765747959	45.914257164298
10	2476	907.781742384144	47.029053643196
10	2477	908.031802058404	47.053677165231
10	2480	908.619902737371	47.513786624941
10	2484	910.556198651118	46.302189472696
10	2493	912.51490065907	46.674560824718
10	2515	925.261426981673	54.372848774572
10	2518	926.445111709261	53.579667424777
10	2524	928.978681980634	54.687837227293
10	2525	929.908345041514	55.178816491048
10	2531	933.794176014912	56.73250221523
10	2534	935.136891243349	54.68763505992
10	2535	935.781784001762	55.157439850005
10	2541	937.573353723609	55.496261189468
10	2542	937.82338330011	55.68874718667
10	2543	938.161559916997	54.527213283207
10	2544	938.199976562004	54.171957022766
10	2545	939.226429833695	53.544913442694
10	2555	941.422796787582	54.512276220881
10	2561	943.114890102899	54.344388987873
10	2569	946.955537634532	56.442423836038
10	2572	948.924060286024	58.295950834494
10	2573	950.41725272691	59.634241026491
10	2584	953.356004838089	57.58132674816
10	2593	957.056016532601	59.733125443215
10	2599	959.072974542299	58.998296481193
10	2622	965.664300103959	63.036130750542
10	2623	966.266441036432	63.390180722704
10	2630	970.527751524637	66.523235170158
10	2658	979.866064405197	71.456700098402
10	2672	985.998549361914	71.53443558997
10	2678	988.449721796467	71.760972892833
10	2684	989.838470133253	71.349163453777
10	2685	990.816649127748	69.240148965776
10	2692	992.552511233973	68.415264140247
10	2706	997.372891090027	70.743058114431
10	2709	998.133834639355	70.691642655923
10	2715	1002.161832630552	70.687210752572
10	2721	1004.756144811284	68.645934089631
10	2722	1004.795695821322	67.339462196901
10	2723	1005.039443989436	65.24971244888
10	2724	1005.080398837708	65.203253891082
10	2725	1006.055590013983	65.747726207469
10	2749	1014.194492736568	72.700018963627
10	2755	1016.525217793738	73.209475674373
10	2760	1017.121426461883	71.881096406636
10	2764	1021.295070096067	73.587792606729
10	2765	1021.564413562158	71.005342850146
10	2768	1022.020240063482	70.959947033492
10	2773	1024.003778600946	71.345725751209
10	2774	1024.311872983148	71.218988423778
10	2775	1024.511536559398	71.062305503037
10	2779	1027.531847559292	71.350752189182
10	2783	1029.867538164686	70.957184822177
10	2784	1030.329370356629	70.587943298051
10	2797	1038.048073492518	76.75141706952
10	2798	1039.36148391131	76.83902371307
10	2803	1040.284262826602	77.210505641106
10	2819	1046.044084225695	77.13521114094
10	2834	1051.184081767283	77.556160015426
10	2835	1051.234312763108	76.410706761969
10	2836	1051.466071453708	74.064049657623
10	2839	1052.968342495526	75.527499834448
10	2862	1056.763899847211	72.542298866588
10	2863	1057.080730013731	72.283094778874
10	2891	1063.734149913568	74.738051973772
10	2892	1064.338228625108	73.388959649678
10	2893	1065.451360122157	74.240891919133
10	2901	1070.523436188381	74.342246179119
10	2908	1072.809055118851	75.583611181835
10	2909	1072.957468634334	75.707699296746
10	2921	1078.234223883337	75.50517219016
10	2922	1079.147704819878	76.341876045616
10	2923	1079.938540971819	72.962317809983
10	2924	1080.15595318559	72.367682387576
10	2940	1084.648914678287	71.499202011188
10	2947	1087.404701491778	71.452523688812
10	2948	1088.920174073532	71.864350967955
10	2961	1092.458408550971	73.57037283452
10	2962	1092.556522427635	70.949886983133
10	2963	1093.336063422621	71.235903427982
10	2964	1093.904018225155	70.168659871247
10	2981	1099.86688785922	65.845980317665
10	2993	1103.975044346224	66.628832386664
10	2994	1105.120004605542	65.12372711268
10	3035	1116.40321603617	69.487095067818
10	3054	1121.323894749997	70.838589213051
10	3061	1121.822300835006	70.008598653332
10	3062	1122.569934855746	69.223270925886
10	3090	1131.974749365069	74.46360433566
10	3091	1132.195778813501	74.299740690481
10	3092	1133.037123653955	74.874050149266
10	3093	1134.453378097318	75.880975290032
10	3097	1137.151149231265	76.23370954603
10	3103	1138.797083968584	76.361053373075
10	3110	1141.937190168149	74.979477074975
10	3116	1142.982947919629	72.370027558943
10	3126	1147.026101620637	73.184571963442
10	3133	1150.957555715588	74.869635959403
10	3140	1153.442285024072	72.520160783266
10	3141	1153.640737922933	71.562462828966
10	3144	1154.709463881397	71.689646925542
10	3165	1159.810797154547	76.301026959632
10	3177	1163.528481801362	73.522944343465
10	3181	1165.381278680706	73.481549934785
10	3184	1166.752740282437	72.565497312782
10	3185	1166.857145588824	71.935288076555
10	3188	1167.674516357744	72.057954506352
10	3189	1170.113256122494	73.627230297824
10	3207	1177.415343444294	73.840575714025
10	3211	1179.122421172597	72.248602420658
10	3217	1182.369606213975	73.962170932869
10	3224	1185.090226732844	74.007817173445
10	3229	1186.389605335589	74.885757735992
10	3232	1187.784347270702	74.932721574757
10	3253	1195.326188140242	80.275578862392
10	3261	1196.990547070678	79.770120590992
10	3262	1197.337002322453	79.809691974033
10	3263	1197.84646742192	79.908145737108
10	3264	1198.260893270008	79.650502386437
10	3265	1199.360203693423	80.547646191412
10	3266	1199.983259276051	79.415953729179
10	3284	1204.47656482447	82.875134174186
10	3288	1206.763609858318	81.156986601345
10	3294	1209.612553298898	82.523375321496
10	3303	1212.21274160178	84.095168075872
10	3304	1212.552810353257	83.612095310464
10	3317	1214.085472728716	82.762014525299
10	3325	1216.696354587089	79.179177749843
10	3333	1222.007832362704	81.237929484626
10	3339	1224.744589012861	82.691640867142
10	3346	1225.816976088354	82.850054411797
10	3388	1237.231510681405	88.511014169791
10	3397	1240.495411820712	88.236341188997
10	3398	1240.72463560053	86.922675448843
10	3404	1242.035359162326	84.624792362438
10	3410	1245.867197347227	84.026779160669
10	3413	1246.623295255612	84.512489149987
10	3416	1247.398857635522	83.289122492012
10	3419	1249.463346062722	83.156948561516
10	3423	1250.078153428439	79.932868545041
10	3424	1250.637826607636	78.560429102541
10	3427	1251.054977212824	78.403960377931
10	3431	1254.854652897922	80.723545619635
10	3455	1260.922096809491	84.501334355083
10	3458	1263.207871440372	84.916280962494
10	3459	1263.810340226104	83.284644607922
10	3460	1264.250881951379	82.509852212651
10	3463	1264.606810690465	81.23854467971
10	3467	1265.612846739419	79.766113839749
10	3468	1266.29172965609	80.326926762638
10	3469	1266.543271869614	79.245687738277
10	3470	1266.669917662014	78.758710752166
10	3471	1267.652990518352	79.28749087802
10	3482	1270.412711893812	79.316503547727
10	3488	1276.423054703711	83.042988018986
10	3508	1283.854031423299	88.229957335803
10	3514	1284.829389309851	88.105667275935
10	3517	1285.220623230488	85.124003667007
10	3521	1286.529709571429	84.697885408875
10	3532	1291.685696650727	87.981358370708
10	3533	1292.591211842867	86.840214796093
10	3534	1293.325906922577	85.111465485292
10	3542	1294.424068592711	84.749583999256
10	3548	1296.115445073153	84.301823079672
10	3552	1296.763718529477	83.756146652349
10	3555	1298.974786542169	85.861376857503
10	3558	1301.041427640727	87.864579299971
10	3559	1301.777375962532	88.364894340848
10	3562	1302.192000943485	87.863421770168
10	3563	1302.425697895234	87.38035584559
10	3564	1302.983043007588	87.330240413446
10	3578	1306.445406537148	83.108067192212
10	3582	1307.342248290819	82.263720579919
10	3583	1307.474752348694	82.222877868774
10	3584	1307.732309273373	82.004003135593
10	3585	1308.08501323891	81.881038243975
10	3590	1308.865680190752	81.888913956997
10	3591	1310.14425738512	82.026312701676
10	3603	1312.965705162211	80.480276197872
10	3609	1314.203764966605	79.861752647332
10	3615	1316.530982346419	80.513608222566
10	3616	1316.778246103272	79.556864578577
10	3617	1317.725640396899	80.194379623034
10	3624	1320.100631667058	81.98464349053
10	3638	1322.640873043485	81.725596719032
10	3653	1327.070347762653	83.668686299488
10	3660	1329.624435691949	80.668564828471
10	3664	1331.141668970179	80.340513609719
10	3674	1335.457895257089	80.303634362125
10	3675	1336.075030618773	80.011281943831
10	3678	1336.28660175599	74.49369866573
10	3679	1336.359416480072	71.90386960986
10	3702	1344.092039750458	74.497735910302
10	3703	1344.48383766366	71.786360161056
10	3704	1344.96997805596	71.251096338331
10	3707	1346.073186292549	69.341894164399
10	3714	1348.33722940877	68.478589950115
10	3721	1349.515935399027	66.759157526818
10	3732	1355.05676743007	71.010229476908
10	3736	1356.79364030518	71.663195501648
10	3760	1363.957966212854	76.046008194786
10	3764	1364.341192763355	74.548107838738
10	3767	1365.728288761864	72.209041981388
10	3768	1366.873675225683	73.084917779905
10	3769	1367.505620292775	73.606652461157
10	3779	1369.460157125573	73.893380413817
10	3783	1372.306428036922	74.587315868139
10	3784	1373.113124175386	72.540556272843
10	3785	1373.191614270649	71.218365293365
10	3786	1375.482932570179	72.344942635556
10	3787	1375.706896331443	72.064750819515
10	3791	1376.494998593761	71.242403532604
10	3807	1387.804734508328	79.537030767295
10	3812	1390.526827367356	80.331207330034
10	3828	1397.448553850966	84.283521372744
10	3833	1398.397194784648	84.899240639477
10	3837	1399.64228267361	83.963437209342
10	3845	1402.149070904266	83.022221233619
10	3853	1406.087898559319	85.070729794102
10	3856	1408.462513392184	87.44487702323
10	3884	1416.915173791999	93.88364772307
10	3903	1421.669745633798	96.872016144073
10	3916	1425.169870681751	96.910678584846
10	3917	1425.194140657006	96.342734601868
10	3918	1425.497794216786	95.523598957919
10	3924	1427.680129399538	94.445694160317
10	3925	1428.014391812311	94.695746814293
10	3928	1429.092739921903	95.146070354892
10	3929	1429.772945584914	93.666285772058
10	3932	1430.193863321128	93.629370961187
10	3945	1435.088359785127	97.853860814955
10	3948	1435.450591777978	97.555967007939
10	3956	1437.990206911058	99.268967309913
10	3962	1440.967967301423	98.986817148803
10	3970	1442.391848934956	96.471528315969
10	3971	1442.624959522389	96.115464948436
10	3976	1445.314895600489	98.034234488418
10	3981	1448.23166606998	99.705704534378
10	3984	1449.706938298923	101.0008570747
10	3985	1449.86328023504	98.57587153978
10	3997	1455.979748871392	100.35260723214
10	4006	1458.003064963618	100.76975560796
10	4009	1459.379517613034	100.89056672328
10	4010	1459.48634324598	100.78298842263
10	4014	1461.731741440469	101.02647615317
10	4015	1462.223870590708	100.53930317017
10	4021	1462.758156408578	99.371241875128
10	4022	1462.986656670032	99.147406622139
10	4023	1463.582809525067	99.507628924144
10	4032	1467.881650427065	99.362468997674
10	4033	1467.926823785497	99.374073510168
10	4040	1472.896327706947	104.32251910047
10	4048	1476.80488711493	101.08339550077
10	4049	1477.998126871433	99.812049848468
10	4052	1482.113625408823	103.34626542364
10	4066	1487.392465134903	100.78531071168
10	4076	1489.881223829946	99.904344855616
10	4084	1491.402846636387	99.242144061931
10	4088	1495.150838237403	101.42025208579
10	4093	1495.620546919997	101.40436538797
10	4101	1499.816823774449	102.21779941216
10	4106	1502.060005106301	104.054276182
10	4107	1502.773597006492	104.01773851012
10	4116	1506.213321179776	104.19596013532
10	4117	1507.149571394018	103.04233971892
10	4120	1508.182455531829	103.93919092295
10	4123	1510.546012984164	105.75684003053
10	4124	1511.637755272156	103.90226134169
10	4136	1513.839116075466	98.994001153098
10	4137	1514.788753576813	99.571781790953
10	4141	1517.756254042204	100.8731376107
10	4144	1523.124605525329	105.80542556942
10	4145	1523.297254728252	102.13115520851
10	4160	1529.45629028088	107.17237990385
10	4161	1529.638429248718	107.20118936363
10	4170	1532.495591165915	105.14229256859
10	4173	1534.503111522072	106.11456556623
10	4182	1540.125806852178	109.25238139592
10	4188	1543.301163620375	110.79706717734
10	4189	1544.370905020282	111.63227515299
10	4192	1545.438808437133	110.50403794492
10	4195	1546.299206113556	111.10337546065
10	4215	1554.520946274843	115.7065477036
10	4229	1557.07624041925	115.88483854662
10	4230	1559.706990011244	118.38437214965
10	4231	1559.859233576968	117.67956489587
10	4232	1562.194051936853	118.63573697275
10	4235	1563.515736567987	119.14547700983
10	4244	1566.160203237558	117.21349719198
10	4249	1571.090166372083	120.45392380071
10	4250	1571.868142328782	120.81256608045
10	4258	1573.876473702097	121.82576069305
10	4259	1574.497772013966	116.84046563867
10	4260	1574.728903477876	117.03003088469
10	4272	1579.293480537469	120.52679465122
10	4277	1581.40930001946	120.61718225802
10	4280	1581.899887982559	119.58671335962
10	4314	1592.204782693305	127.23353818148
10	4318	1594.537591457703	126.14944403202
10	4334	1598.435208807995	124.58083347832
10	4339	1599.153700596664	125.23817651975
10	4340	1599.414262887172	121.09708732881
10	4343	1601.226351927154	117.92558880612
10	4349	1603.368145289937	117.77966503784
10	4350	1605.927780706961	119.83860676315
10	4354	1607.699406710626	119.37365291419
10	4355	1607.987194159583	119.28608422101
10	4359	1610.88921921354	121.28095298206
10	4360	1611.656374722601	121.47683529527
10	4389	1619.92508888138	128.82604217361
10	4406	1625.333882519579	128.81928806645
10	4410	1626.357027686475	128.47475813402
10	4413	1626.586110885845	126.01819007072
10	4414	1627.721812712907	125.86999875315
10	4422	1630.228814993073	126.19242144081
10	4423	1630.662064423926	126.10443372856
10	4424	1632.009048461827	124.25888906809
10	4430	1634.064108095302	122.1409344879
10	4438	1636.676251589707	124.222882582
10	4441	1637.405779203021	123.71838793736
10	4457	1644.522408805583	119.82212308051
10	4458	1646.897023179233	120.21830358855
10	4465	1648.705711355984	121.37521509321
10	4466	1648.972777111369	120.4462757498
10	4472	1651.131523175638	121.39051098532
10	4481	1654.322588469746	123.08310781154
10	4482	1657.654715904787	125.53979780463
10	4491	1659.14620300024	121.38650109185
10	4492	1659.411925433491	119.50750717812
10	4493	1660.239534199474	119.36188091119
10	4500	1663.301405638046	117.12909469837
10	4513	1670.13304976251	121.03296156597
10	4517	1673.239003390012	122.82650434719
10	4545	1683.561658258532	128.72190316662
10	4546	1683.566336170095	127.67707453135
10	4553	1685.205719973322	123.00751721327
10	4554	1685.848974003588	120.5775751168
10	4566	1690.432001011123	124.66044075411
10	4567	1690.991779370651	121.80105178649
10	4568	1691.753400134327	122.30970679412
10	4588	1702.620419404607	127.84874621563
10	4589	1703.153909003417	126.7411140622
10	4592	1703.949573408284	126.65970861904
10	4600	1705.235344598213	124.23264566034
10	4612	1712.860550882991	130.05576970655
10	4615	1715.241586604547	131.3388420327
10	4618	1716.274562062328	129.06848566802
10	4629	1724.527456994667	136.33717639355
10	4643	1730.196296496953	138.37530524856
10	4656	1732.831790740285	137.86913297261
10	4684	1742.974001019849	144.95316054771
10	4685	1743.19109815875	144.40275145063
10	4695	1747.536387003022	144.97511130394
10	4712	1756.633812362477	140.21866761252
10	4713	1757.021039820159	136.72418114973
10	4718	1758.200399506563	137.47320802684
10	4721	1759.457909648	136.71015080534
10	4724	1759.685215543065	135.50325809619
10	4736	1763.428874729391	137.05154244342
10	4740	1764.986487954817	136.83812654483
10	4743	1765.749472109969	137.26745047438
10	4744	1765.824529979658	133.46649635285
10	4745	1766.462161163949	133.70567863204
10	4763	1771.39161437118	134.69088578885
10	4767	1772.800723252348	134.65728497444
10	4770	1774.930416413227	136.27151964342
10	4771	1776.314916866935	134.02125703315
10	4772	1776.316520624994	133.8384721051
10	4773	1776.610906784945	132.8901524305
10	4774	1777.224293309647	129.86833091904
10	4777	1780.302332993712	131.81410370995
10	4782	1782.037553936887	133.34050514189
10	4796	1788.614736216525	139.01549509433
10	4802	1790.661312656004	138.69276216105
10	4814	1793.139812036338	139.05954975732
10	4820	1795.358915462091	136.9772389963
10	4826	1797.748283003608	136.75350724167
10	4827	1798.613837280942	136.67526057391
10	4828	1798.792161408001	133.71124657141
10	4829	1799.450951559315	133.69211546215
10	4857	1807.893165302299	134.22990786615
10	4869	1809.766648640995	135.24126368256
10	4875	1812.224020396016	135.48030267901
10	4882	1815.143505204395	136.20126681077
10	4888	1817.621512986045	134.45557499613
10	4894	1820.148395037417	135.9785914196
10	4900	1824.833303720552	139.73733014941
10	4901	1824.852036910552	138.71169081254
10	4902	1826.791072788449	140.04395272066
10	4911	1832.389866267341	143.5627702713
10	4914	1834.979756326475	143.08675970602
10	4924	1839.154754722204	143.56974752201
10	4925	1839.170264606584	138.73769488017
10	4928	1842.33627532031	141.65290436654
10	4929	1842.784284883479	139.11839483973
10	4936	1845.958681999712	142.00598041727
10	4937	1847.034894742178	142.52298813878
10	4940	1847.733944495079	142.89032273058
10	4941	1847.904760544125	142.62455780396
10	4942	1848.013788183473	140.19434566221
10	4946	1849.651975889008	138.9488451553
10	4947	1850.00337464249	138.95828673645
10	4969	1856.237370936413	139.80584072958
10	4970	1856.286416774682	138.21493357919
10	4974	1858.659476657187	134.34983213787
10	4984	1862.514238765961	137.10382737449
10	4985	1863.705768910696	136.5369429213
10	4986	1864.893079089338	135.6144798033
10	4989	1865.283384021806	135.19274075268
10	4990	1866.362924735973	135.74404674926
10	4991	1868.275394769318	136.25876505347
10	4998	1872.819960482826	140.23712078851
10	5002	1876.510729848928	142.36944015601
10	5003	1876.605126462866	141.82589880106
10	5006	1876.842972902622	141.71374724865
10	5007	1877.667340791127	142.37517682798
10	5027	1883.334735178429	142.42195080528
10	5028	1883.875854343994	142.27364424391
10	5031	1887.585511074849	143.14514246314
10	5042	1890.317789763189	142.1436973374
10	5043	1891.151483826118	142.72807311022
10	5046	1894.017863274753	145.10690844237
10	5047	1895.881738293194	146.48584697798
10	5048	1896.511570594618	145.12013128396
10	5064	1900.331191253837	142.67154294806
10	5065	1900.33779962792	140.90873202193
10	5075	1907.174908564205	147.26478063816
10	5080	1908.702500537763	147.93872684426
10	5087	1909.775341157108	144.19202532538
10	5090	1911.670686046873	145.09797551025
10	5103	1915.138509396113	147.44007805071
10	5104	1915.64884089041	147.43954443712
10	5119	1919.451405121605	141.08027720248
10	5120	1920.11394254748	139.36565208676
10	5129	1922.290953037949	140.91392561299
10	5137	1924.640130016517	141.82238130107
10	5141	1925.533113414891	136.46772799248
10	5142	1925.635497925842	135.41059048262
10	5149	1928.701586579524	135.44146441231
10	5150	1929.698114690928	134.98391105887
10	5168	1940.02226198803	139.41149315353
10	5171	1941.620702510324	140.9721784719
10	5172	1941.919461362626	140.62340040307
10	5175	1943.640091437323	141.69970496117
10	5199	1950.49955662297	143.18148402486
10	5200	1951.116257298365	142.80178825353
10	5203	1951.746519478961	142.81867708296
10	5204	1952.834294518711	141.90920884514
10	5207	1953.437700454228	141.55691601574
10	5210	1955.64907173731	142.52976681119
10	5211	1957.480528813058	143.32112295901
10	5214	1959.371794125214	142.84909146655
10	5230	1966.366460404527	143.98153414011
10	5236	1968.947201895966	140.40800778873
10	5244	1974.64461348212	143.65535941783
10	5245	1974.731549175128	140.03725958289
10	5260	1980.431845568357	141.74610417079
10	5261	1980.832483158503	142.06623893626
10	5264	1981.769494331197	142.29605139893
10	5267	1982.654533790356	139.15537570643
10	5274	1984.561245193866	140.40938344004
10	5290	1991.10088018494	140.54341005893
10	5291	1991.267993447226	140.0864767485
10	5292	1991.597693145707	139.87191218424
10	5293	1992.38053555473	139.34173922487
10	5303	1994.718418435156	140.5739830468
10	5313	1997.236815058114	141.71559454732
11	5324	2000	0.4495
12	5324	2000	0.402

