version 2
run Monotonicity_test_recover_rate-151-20221219-18:27:43-15225
attr configname Monotonicity_test_recover_rate
attr datetime 20221219-18:27:43
attr experiment Monotonicity_test_recover_rate
attr inifile omnetpp.ini
attr iterationvars $0=25
attr iterationvarsf 25-
attr measurement $0=25
attr network Network
attr processid 15225
attr repetition 51
attr replication #51
attr resultdir results
attr runnumber 151
attr seedset 51
param *.minion.arrival_mean 2
param *.minion.service_mean 1.5
param *.boss.arrival_mean 2.5
param *.boss.service_mean 0.5
param *.player.recover_rate_x 25
param **.minion.arrival_distribution 0
param **.minion.service_distribution 0
param **.boss.arrival_distribution 0
param **.boss.service_distribution 0

vector 0 Network.player minion_jobs_number_stat:vector ETV
attr source signal_minion_jobs_number
vector 1 Network.player minion_jobs_queue_number_stat:vector ETV
attr source signal_minion_jobs_queue_number
vector 2 Network.player minion_recovered_stat:vector ETV
attr source signal_minion_recovered
vector 3 Network.player minion_defeated_stat:vector ETV
attr source signal_minion_defeated
vector 4 Network.player boss_jobs_number_stat:vector ETV
attr source signal_boss_jobs_number
vector 5 Network.player boss_jobs_queue_number_stat:vector ETV
attr source signal_boss_jobs_queue_number
vector 6 Network.player boss_defeated_stat:vector ETV
attr source signal_boss_defeated
vector 7 Network.player boss_waiting_time_stat:vector ETV
attr source signal_boss_waiting_time
vector 8 Network.player boss_response_time_stat:vector ETV
attr source signal_boss_response_time
vector 9 Network.player minion_waiting_time_stat:vector ETV
attr source signal_minion_waiting_time
vector 10 Network.player minion_response_time_stat:vector ETV
attr source signal_minion_response_time
vector 11 Network.player minion_throughput:vector ETV
attr source signal_minion_throughput
vector 12 Network.player boss_throughput:vector ETV
attr source signal_boss_throughput
0	0	0	0
0	5	5.334485077988	1
0	7	7.464838062198	2
0	9	8.42479328646	3
0	14	11.727573469474	1
0	17	13.916896235151	1
0	19	15.790756321673	2
0	35	29.942414001905	1
0	40	35.069907560411	1
0	49	39.543940615792	2
0	51	40.323732536493	3
0	57	43.25509099865	3
0	60	45.192459280827	3
0	62	46.167467488373	4
0	64	46.464358253782	5
0	70	48.340745243173	5
0	74	49.392171877686	6
0	78	50.000559565174	6
0	82	50.208470679468	7
0	88	51.558956169693	8
0	91	52.939239773131	8
0	94	53.528329506954	8
0	96	53.547544161329	9
0	100	54.09327898874	10
0	103	56.145097327727	11
0	118	60.749172548357	8
0	129	66.44551870273	6
0	138	68.462823351008	3
0	149	74.355582299156	1
0	151	74.700584635395	2
0	158	79.987909475842	1
0	160	80.372400650029	2
0	166	81.169413479072	2
0	172	83.157521186448	2
0	178	84.116542100258	2
0	182	84.679619573487	3
0	186	87.191404608053	3
0	191	94.926679757132	1
0	193	94.964506952475	2
0	201	96.538426129045	2
0	215	102.176297984486	1
0	227	106.255197094081	1
0	232	109.135990614793	2
0	236	110.765230890698	1
0	238	110.924616217787	2
0	243	111.668378476259	3
0	272	125.524494004216	1
0	274	126.598977191915	2
0	276	127.958828827605	3
0	281	130.064550572431	3
0	283	130.2164384036	4
0	296	135.402526820402	4
0	310	139.753638211403	5
0	312	139.769356735257	6
0	321	142.951232642704	6
0	331	148.001780443673	5
0	333	148.32668128987	6
0	336	148.434331603466	6
0	341	149.749834694741	7
0	349	151.860109651012	8
0	352	153.624287466857	8
0	356	155.286408650825	9
0	365	157.0915890885	10
0	368	158.597721256908	10
0	375	162.171111277892	9
0	381	164.14611721277	9
0	386	166.441959343379	7
0	388	166.698648074733	8
0	397	170.236810051604	8
0	409	174.781348972686	5
0	413	175.165331564259	4
0	419	178.635949851501	4
0	424	180.024268185439	2
0	430	181.991464248435	2
0	432	181.999883232537	3
0	435	183.543346286381	3
0	438	184.744644493464	3
0	440	184.890533752444	4
0	444	185.446684369564	5
0	464	192.931799043292	1
0	466	193.139559000723	2
0	468	194.422026177431	3
0	473	197.205065490202	4
0	475	197.556916815628	5
0	483	203.784423188548	6
0	492	205.530266287918	6
0	495	205.602758032506	6
0	501	208.125720135861	6
0	504	209.81931372262	6
0	506	210.36481412413	7
0	512	210.96602021034	7
0	515	213.039668574736	7
0	519	215.381093757864	6
0	523	215.939323768198	7
0	525	216.084219958815	8
0	533	220.394619750084	7
0	537	222.461947564227	6
0	543	224.106647345362	7
0	545	224.19002254151	8
0	551	226.275311553957	7
0	553	227.202116787509	8
0	566	231.118025183925	9
0	571	232.114759484164	10
0	580	237.980398197848	8
0	582	239.106922200306	9
0	587	242.797565453266	7
0	592	243.770736356468	8
0	594	244.06123729053	9
0	605	248.184805427664	7
0	607	248.406405267427	8
0	609	248.668583871084	9
0	612	251.523923326989	9
0	625	254.545415788964	8
0	630	255.866116251889	9
0	632	257.294209448434	10
0	634	259.075785709506	11
0	649	264.762473381313	10
0	662	268.880197710994	10
0	666	271.89068891164	9
0	669	274.12701875147	9
0	671	274.408007907233	10
0	677	275.614516227988	10
0	684	277.580743565806	11
0	686	277.585297839372	12
0	694	279.756872595032	11
0	699	281.952021482943	12
0	704	285.810546055381	10
0	711	288.311467071045	9
0	722	291.818051994262	7
0	734	295.514972237084	6
0	736	295.791325591741	7
0	740	297.945510482999	7
0	742	298.677355221246	8
0	748	303.095665720744	8
0	750	303.850133933185	9
0	753	305.559083540459	9
0	755	305.563890993135	10
0	758	308.162773000102	10
0	760	309.489520375818	11
0	782	321.061818031741	7
0	795	326.510666447726	5
0	797	326.548360361866	6
0	799	327.109418132149	7
0	802	327.342785380201	8
0	805	328.383064920265	8
0	807	328.577911636705	9
0	809	328.647907826789	10
0	811	328.799829418715	11
0	814	329.402962078702	11
0	824	334.38739176409	10
0	829	336.297434247482	11
0	835	340.257510433503	11
0	839	342.460528591155	10
0	847	344.712292150715	11
0	849	345.059231158531	12
0	852	346.687458306042	12
0	857	350.384270637342	13
0	868	355.594708623574	8
0	873	356.363482571498	9
0	886	359.411362869221	8
0	891	360.401308195264	9
0	897	361.838541903813	9
0	904	362.722441465292	10
0	906	362.931394512723	11
0	918	368.153748361627	12
0	922	369.828946028714	11
0	933	374.609008825821	11
0	935	374.92588298956	12
0	941	375.750403076232	13
0	945	376.008641377826	14
0	947	377.266368985265	15
0	973	399.003552354098	8
0	979	399.48263021436	8
0	982	400.009848312483	8
0	988	402.900264307263	8
0	990	403.188917933895	9
0	1005	413.02136192159	9
0	1007	414.956563062661	10
0	1013	419.796167233551	10
0	1025	422.092524664623	10
0	1027	423.084535927582	11
0	1029	423.841974379477	12
0	1031	423.846813847117	13
0	1038	428.570832006307	9
0	1045	430.324384847273	8
0	1054	435.159670994993	7
0	1056	435.610991925751	8
0	1058	435.691992465757	9
0	1064	439.884811898266	7
0	1073	445.07760739623	6
0	1088	452.445396583489	4
0	1099	456.288154861188	5
0	1101	456.532943757275	6
0	1106	458.029271098045	6
0	1111	459.448550270231	7
0	1115	459.824968046405	8
0	1122	462.576884995556	9
0	1125	464.788140751757	9
0	1131	466.790190481239	9
0	1139	469.133433078117	8
0	1141	470.376317734506	9
0	1145	471.353227117224	10
0	1151	472.799640038122	7
0	1153	473.469887716654	8
0	1157	473.877302892249	9
0	1161	474.831562941195	10
0	1164	475.912973719963	11
0	1171	478.368157331585	11
0	1173	478.500624629813	12
0	1176	479.138488471848	12
0	1178	479.212231265769	13
0	1181	480.197509989684	13
0	1184	480.930085476339	13
0	1186	481.838116883398	14
0	1192	484.77535424227	11
0	1196	485.675192866018	10
0	1201	486.380959300768	10
0	1206	488.192626456711	11
0	1209	488.454226486521	12
0	1218	490.74904149323	11
0	1224	492.309519823039	12
0	1236	493.86543628361	13
0	1244	494.393971695638	14
0	1248	494.677019882264	15
0	1251	495.239561972175	15
0	1264	500.82544350692	13
0	1267	501.724502622222	14
0	1275	508.260970578643	12
0	1279	509.078927434051	13
0	1281	509.347134049727	14
0	1289	510.970742279195	15
0	1301	516.802285289178	13
0	1303	518.065734063677	14
0	1306	519.485444307955	14
0	1308	519.565762143019	15
0	1314	520.718726684554	14
0	1317	521.475594930819	15
0	1319	523.568702463852	16
0	1321	524.147884548643	17
0	1329	526.281997311259	18
0	1339	529.415031292609	17
0	1341	530.44233181579	18
0	1344	531.418317990784	18
0	1348	535.289134528109	17
0	1351	536.079906888821	17
0	1353	538.24267261664	18
0	1359	541.115847051579	15
0	1361	541.792210289175	16
0	1363	543.242114230819	17
0	1368	546.671585352784	15
0	1372	548.375272979212	14
0	1378	549.570910820165	14
0	1382	551.352299999186	13
0	1402	561.391583022954	8
0	1408	562.912639228417	8
0	1410	563.131329928694	9
0	1419	564.900299248442	9
0	1421	564.938525410386	10
0	1423	564.939082335932	11
0	1430	567.451218599163	10
0	1435	568.136270654814	11
0	1443	574.651205763544	8
0	1451	576.130140303289	9
0	1454	576.7278582182	10
0	1459	577.183654747931	11
0	1461	577.304191267394	12
0	1463	577.779326176364	13
0	1468	580.276907864002	13
0	1472	580.615090479239	14
0	1476	582.61128670647	15
0	1479	583.141133996031	15
0	1488	586.680432600531	12
0	1495	589.044342318181	13
0	1498	589.780282947446	14
0	1501	592.629399503252	14
0	1510	595.006034133661	13
0	1517	599.639830119063	13
0	1520	599.974090551287	13
0	1523	600.986984133714	13
0	1535	604.833596452335	11
0	1546	612.721208919723	8
0	1548	612.779667312806	9
0	1556	614.774213635067	9
0	1592	634.512327916701	1
0	1594	636.018328375026	2
0	1600	642.537466645381	1
0	1604	643.604416262204	1
0	1610	648.002705743564	1
0	1612	648.058815874329	2
0	1615	649.205645116371	2
0	1618	651.089916590764	2
0	1621	653.086628754633	2
0	1629	656.039144132334	3
0	1634	658.667979392018	1
0	1639	661.26138098882	1
0	1641	661.720776279114	2
0	1649	664.347375636078	3
0	1655	668.637832274271	4
0	1663	670.708992609555	5
0	1676	677.572280199262	4
0	1680	678.546204179009	3
0	1682	681.606682445406	4
0	1685	682.51877478656	4
0	1690	686.006511861982	2
0	1692	686.505169749351	3
0	1695	687.353600591098	3
0	1697	688.331063866526	4
0	1701	689.237544203384	5
0	1713	693.973649525569	3
0	1717	694.527996727724	4
0	1719	694.944279370033	5
0	1734	701.184728810868	3
0	1736	702.478261814048	4
0	1745	705.262694983944	4
0	1748	705.796157542606	4
0	1754	706.30325707508	5
0	1762	707.823502135372	5
0	1769	710.110045222402	4
0	1771	711.019045888259	5
0	1777	712.858171790639	5
0	1785	714.320765352566	3
0	1796	719.554831809634	3
0	1799	720.975657033957	4
0	1801	721.076066027614	5
0	1806	721.333959115422	6
0	1808	722.434998760988	7
0	1810	722.968288160692	8
0	1813	723.905186514534	8
0	1820	724.743446844966	9
0	1822	725.276485022454	10
0	1828	726.516180517174	11
0	1831	728.346449603735	11
0	1835	729.732915551636	10
0	1842	733.324262316784	6
0	1845	735.215261165184	6
0	1854	737.655425680482	6
0	1857	739.548215285256	6
0	1860	741.408965444016	6
0	1862	741.560995047262	7
0	1865	741.744671416843	7
0	1870	742.334951667622	8
0	1882	744.968809388696	8
0	1884	745.494890693405	9
0	1886	745.682110268893	10
0	1898	752.268342044588	10
0	1916	755.274841169235	11
0	1922	756.54638864061	12
0	1928	757.570972082592	13
0	1934	758.853268781575	13
0	1947	761.811667348808	12
0	1956	764.74772067069	12
0	1959	766.551786423709	12
0	1961	766.895388730378	13
0	1966	770.023958044661	14
0	1968	770.501470817182	15
0	1981	774.035328109578	14
0	1985	778.012027349005	13
0	1990	779.963274424005	11
0	1999	782.944695768934	10
0	2006	783.861297241347	9
0	2013	785.69044539051	9
0	2015	786.235243220898	10
0	2026	791.013082776252	8
0	2028	791.306448397661	9
0	2030	791.334663115074	10
0	2032	791.980976896529	11
0	2043	795.326478083836	9
0	2045	795.710958240487	10
0	2050	797.166585053037	11
0	2058	800.804287855709	6
0	2063	802.518090827629	4
0	2065	802.980200913079	5
0	2070	804.178231055183	5
0	2073	805.144175583358	6
0	2084	810.846985229169	4
0	2086	811.457032268883	5
0	2096	814.400507171321	4
0	2108	818.008935625228	4
0	2115	819.827191451731	5
0	2122	824.99449418003	5
0	2127	826.770781010064	3
0	2129	828.009564160148	4
0	2133	829.747567025845	5
0	2139	832.594374867078	5
0	2145	833.298933776895	5
0	2149	833.896063193396	6
0	2153	835.907638519072	7
0	2160	836.508309974066	7
0	2168	841.237778347099	6
0	2170	842.525218309331	7
0	2172	842.680955071393	8
0	2174	842.862243588481	9
0	2198	850.050599824891	3
0	2201	851.339275062166	4
0	2210	854.605374502898	1
0	2221	859.00281046637	1
0	2223	859.075233371366	2
0	2230	862.263409021261	2
0	2235	864.099020824066	3
0	2243	869.492691014078	1
0	2247	869.615089157125	2
0	2254	872.110392748179	2
0	2258	872.374593933379	3
0	2260	872.47309519593	4
0	2263	872.842301169403	5
0	2268	874.434893641353	3
0	2283	880.796819652844	3
0	2288	882.202810034514	4
0	2293	883.0648248256	4
0	2302	885.639836106307	4
0	2304	885.718836734128	5
0	2308	885.949033325118	6
0	2312	887.628393924475	7
0	2314	888.093365459663	8
0	2317	890.824697907429	8
0	2319	891.668018774921	9
0	2329	895.145322574514	9
0	2333	896.318200226898	10
0	2335	896.655063388635	11
0	2339	898.497036577631	12
0	2348	902.189440986363	13
0	2350	902.764796533936	14
0	2353	903.974789918876	14
0	2368	907.788628538448	14
0	2370	908.406745135663	15
0	2372	908.598178519124	16
0	2374	909.245794226645	17
0	2376	909.755855731474	18
0	2378	910.924832070087	19
0	2380	911.163836531276	20
0	2384	914.061127083279	19
0	2387	916.39301999871	19
0	2391	917.427922306849	20
0	2393	917.609191670758	21
0	2396	918.981325980357	22
0	2412	928.461484228232	15
0	2415	931.037076710125	15
0	2417	931.105390241834	16
0	2419	931.47093460429	17
0	2424	931.536405510209	18
0	2426	931.972539261876	19
0	2431	934.661443040086	19
0	2434	936.132817422233	20
0	2436	936.188295299614	21
0	2445	938.397444466615	20
0	2449	940.078765321158	20
0	2456	944.342286564158	16
0	2458	944.512892938694	17
0	2461	944.898912031637	17
0	2467	947.062895210651	14
0	2469	947.423886480112	15
0	2476	949.503353140138	16
0	2480	951.873732034596	16
0	2483	952.61634273407	16
0	2485	952.647094479984	17
0	2487	953.262573302103	18
0	2493	955.385105103072	18
0	2495	955.695128131982	19
0	2497	956.125073881739	20
0	2499	956.144239426509	21
0	2503	958.513147172806	20
0	2505	959.775988876821	21
0	2513	966.506369368301	19
0	2518	967.281528895063	20
0	2520	967.861912508154	21
0	2529	969.677763630718	20
0	2531	970.398595178776	21
0	2537	972.127667586675	22
0	2544	974.593975105254	21
0	2549	975.892712468459	22
0	2556	983.121920279597	21
0	2558	983.234501024045	22
0	2563	986.948983352901	23
0	2566	987.23485786585	23
0	2569	988.751506129094	23
0	2573	989.068170327702	24
0	2576	990.912390633781	25
0	2578	991.592907813961	26
0	2587	994.854489359878	23
0	2592	996.897661549774	24
0	2594	998.299147544628	25
0	2598	999.420786413894	26
0	2600	999.568795290564	27
0	2619	1008.61475642091	26
0	2629	1012.24084561952	26
0	2631	1012.412057795895	27
0	2639	1020.609916287364	25
0	2645	1024.849549864253	26
0	2651	1026.381382465572	25
0	2662	1038.910872218915	22
0	2677	1044.210977562267	20
0	2679	1044.86580724682	21
0	2681	1045.059123713784	22
0	2683	1046.705970680812	23
0	2685	1046.90218362315	24
0	2689	1048.843813224907	25
0	2692	1050.50503400168	26
0	2694	1050.686175757697	27
0	2697	1051.251110013571	27
0	2703	1053.317039035511	27
0	2709	1055.211549274954	27
0	2711	1057.001048980974	28
0	2724	1061.908511656633	27
0	2735	1064.702477075521	28
0	2740	1066.822778622995	28
0	2746	1068.27403390729	29
0	2752	1071.381839037662	29
0	2758	1071.798526943674	29
0	2762	1072.019223062979	30
0	2772	1074.021481102578	31
0	2803	1086.200722386696	29
0	2808	1087.950142127939	30
0	2819	1090.382808306871	30
0	2823	1092.131085236769	30
0	2833	1097.099457118951	31
0	2836	1098.342514257272	32
0	2842	1100.747772995742	33
0	2851	1103.574989713884	34
0	2854	1104.077081544632	35
0	2857	1104.237858648169	35
0	2866	1106.668239964258	34
0	2869	1110.374892275309	35
0	2876	1112.742343034618	36
0	2879	1113.8263645584	37
0	2903	1128.414242445627	33
0	2905	1128.801944262013	34
0	2908	1129.914268652669	35
0	2910	1131.177591153485	36
0	2912	1132.116500183564	37
0	2917	1133.506211909105	38
0	2922	1134.901906356961	39
0	2924	1136.32351709139	40
0	2932	1137.731359455069	41
0	2940	1138.596861590822	42
0	2943	1139.613946093169	42
0	2952	1141.269839568679	42
0	2954	1141.876061287815	43
0	2956	1142.217665337432	44
0	2968	1144.993818309532	45
0	2972	1146.978906313884	46
0	2974	1147.130041411827	47
0	2976	1148.287425689383	48
0	2984	1157.905532071805	45
0	2996	1165.387309205857	43
0	3003	1169.188269846718	42
0	3009	1169.868697820575	43
0	3011	1170.155823174657	44
0	3015	1170.649212592621	45
0	3024	1173.518422615109	45
0	3029	1174.977795070188	45
0	3032	1175.03099757025	46
0	3040	1176.625058766787	45
0	3046	1178.100736118717	46
0	3059	1181.85095450999	43
0	3066	1186.109070686651	42
0	3070	1190.035150208053	41
0	3072	1190.839557005748	42
0	3079	1192.421892919435	41
0	3092	1199.604171161139	40
0	3095	1200.92717535622	41
0	3098	1201.984934385801	42
0	3106	1205.99547936168	41
0	3111	1206.86214444619	42
0	3115	1208.179227250919	41
0	3119	1209.373497981625	40
0	3124	1211.043309398219	40
0	3128	1212.692471088842	40
0	3130	1212.788568537663	41
0	3137	1214.026316870305	40
0	3140	1214.855211011241	40
0	3143	1217.382397219544	40
0	3145	1218.831305461511	41
0	3148	1219.814134678993	41
0	3155	1224.938052678513	42
0	3157	1225.241797162255	43
0	3159	1225.357504810157	44
0	3162	1227.155669123526	45
0	3164	1227.220462256402	46
0	3171	1233.998554914309	45
0	3180	1238.237015136776	45
0	3182	1238.295360823302	46
0	3184	1238.479413607058	47
0	3186	1238.712164040267	48
0	3188	1239.230888064329	49
0	3202	1244.283067302932	47
0	3205	1246.66724107859	47
0	3209	1247.5004192687	46
0	3211	1247.646075442714	47
0	3218	1250.105989749868	48
0	3224	1252.570525787315	49
0	3233	1254.080524263588	49
0	3236	1255.556213239889	49
0	3264	1263.214481577683	50
0	3268	1263.556331981221	51
0	3275	1267.54619416905	51
0	3277	1267.811121619345	52
0	3286	1269.6551203862	53
0	3288	1270.065846460259	54
0	3292	1270.495778252292	55
0	3299	1273.100982012128	55
0	3301	1274.477571179992	56
0	3303	1275.11735621193	57
0	3307	1275.402457756214	58
0	3315	1277.43617498674	57
0	3317	1278.44238554505	58
0	3319	1278.704062982663	59
0	3322	1280.106821483094	59
0	3324	1280.515820978606	60
0	3330	1281.525440486559	60
0	3335	1283.809105853909	61
0	3349	1287.644983315643	58
0	3351	1287.767606466851	59
0	3354	1288.593407285779	60
0	3358	1290.826126467383	59
0	3365	1295.116195972941	55
0	3376	1298.222956972362	53
0	3387	1301.783181725848	50
0	3393	1302.809519383667	51
0	3402	1304.009988047561	51
0	3404	1306.283942484304	52
0	3406	1307.734603460864	53
0	3413	1310.184830106243	53
0	3416	1311.520803168799	54
0	3420	1311.634758647697	55
0	3429	1313.859295970989	56
0	3436	1316.151119176588	57
0	3440	1316.887802672424	58
0	3444	1318.478609790388	59
0	3447	1318.75247934539	60
0	3453	1320.15460638727	60
0	3457	1322.01413057634	59
0	3466	1325.583628558222	56
0	3468	1325.625532362563	57
0	3475	1328.888329863396	56
0	3478	1330.562570958672	56
0	3480	1331.076122079563	57
0	3482	1332.053980758782	58
0	3485	1333.581031507795	58
0	3492	1336.27781717825	57
0	3499	1340.475879928741	56
0	3504	1341.431771881704	57
0	3506	1342.161416881	58
0	3509	1344.540211060899	58
0	3519	1349.27386810152	57
0	3525	1355.35304587768	57
0	3532	1357.590130287916	58
0	3535	1359.366912334227	59
0	3541	1362.967492684676	56
0	3543	1363.521061102665	57
0	3545	1363.650279055781	58
0	3552	1365.514132370791	59
0	3554	1365.617940896243	60
0	3558	1366.566299985652	60
0	3561	1367.169448243106	60
0	3563	1367.248192457477	61
0	3568	1368.858311064626	59
0	3572	1369.442182227494	58
0	3587	1378.593943523331	52
0	3590	1379.655010018227	52
0	3601	1383.475588914847	50
0	3613	1386.013192999218	50
0	3622	1387.077532670214	50
0	3624	1387.85065469949	51
0	3627	1390.543289393969	51
0	3635	1390.986075055816	51
0	3641	1394.055821927607	52
0	3645	1398.748455131774	51
0	3653	1401.668974815578	49
0	3655	1402.51376883657	50
0	3657	1402.784332110984	51
0	3664	1404.961738230411	50
0	3669	1405.581454195911	50
0	3677	1408.179585856297	49
0	3679	1408.572222967176	50
0	3686	1409.804965038415	49
0	3692	1413.21006411782	49
0	3699	1414.401827636482	48
0	3707	1416.30821579411	48
0	3710	1417.482864617755	49
0	3712	1417.675704512601	50
0	3714	1418.023618450405	51
0	3716	1418.057338072468	52
0	3721	1421.263307544062	52
0	3724	1423.653618476661	53
0	3730	1427.5110378782	52
0	3733	1429.503690392065	53
0	3736	1429.930199585281	53
0	3738	1431.920059421911	54
0	3741	1433.39262283183	54
0	3743	1434.38380133109	55
0	3745	1435.258607425978	56
0	3754	1438.980518173472	56
0	3756	1439.404141178248	57
0	3763	1441.776371337475	56
0	3765	1442.708501440383	57
0	3768	1445.018966323306	57
0	3774	1447.070244663807	57
0	3777	1447.723807389543	57
0	3790	1455.400332614412	56
0	3797	1456.94837622287	55
0	3803	1458.994384473758	55
0	3811	1462.646931924092	56
0	3818	1464.050770528221	55
0	3820	1464.145828727411	56
0	3843	1470.05536974135	54
0	3851	1477.064077896814	49
0	3879	1487.91919438141	42
0	3885	1489.922962134403	39
0	3892	1494.09057275055	38
0	3897	1495.605788218379	39
0	3905	1499.518980172321	37
0	3907	1499.807364598452	38
0	3909	1500.8018404837	39
0	3916	1502.9470683755	38
0	3935	1511.47267313784	33
0	3941	1514.607086801375	31
0	3948	1517.75150622568	27
0	3958	1520.473716807947	23
0	3962	1522.822390752677	22
0	3964	1522.968822470952	23
0	3970	1523.709527086161	23
0	3973	1524.943061731002	23
0	3979	1527.482568767401	23
0	3985	1529.502394958665	23
0	3991	1531.793657735238	23
0	3996	1533.183754900141	24
0	3998	1533.406744838053	25
0	4000	1533.769288762944	26
0	4004	1534.095091147543	25
0	4010	1535.012996360776	25
0	4012	1535.375452437483	26
0	4018	1536.889948824538	26
0	4024	1540.253093581292	26
0	4039	1543.033513110925	26
0	4049	1544.396500915078	27
0	4051	1545.240781677725	28
0	4064	1549.789934191743	28
0	4068	1550.799951490502	29
0	4071	1551.705428311366	30
0	4076	1553.786865763003	31
0	4078	1554.20649409374	32
0	4095	1559.801747366108	27
0	4098	1560.251976143933	27
0	4100	1560.414863554975	28
0	4103	1561.052944381274	28
0	4105	1561.310671203913	29
0	4111	1563.995781284709	29
0	4125	1574.431798975619	24
0	4136	1577.61408888301	22
0	4144	1579.336304675785	20
0	4150	1580.377670773715	21
0	4153	1581.324327937466	22
0	4158	1583.676612165603	23
0	4160	1583.702085948129	24
0	4169	1586.11025352624	25
0	4186	1591.077496403759	20
0	4190	1592.177455306214	19
0	4192	1592.40945354913	20
0	4194	1592.842661511776	21
0	4196	1592.872640940261	22
0	4201	1593.197666324284	23
0	4205	1595.201681719771	22
0	4207	1595.746728460571	23
0	4209	1597.713967367841	24
0	4211	1598.771869530213	25
0	4221	1604.799824610526	24
0	4226	1605.292780637784	25
0	4232	1606.287446239345	24
0	4236	1608.321923361636	24
0	4251	1612.377255721071	20
0	4258	1613.324663085674	20
0	4262	1616.042086337842	19
0	4265	1617.661557317727	19
0	4267	1618.022091900939	20
0	4277	1620.717106394159	18
0	4282	1621.749247557451	17
0	4284	1622.267646741373	18
0	4286	1623.06236702144	19
0	4289	1623.660817000186	19
0	4292	1623.752999732292	19
0	4298	1627.120789546306	19
0	4300	1629.61637718854	20
0	4302	1630.954124217085	21
0	4304	1632.941830828002	22
0	4306	1635.941568717252	23
0	4318	1641.940154683387	22
0	4327	1643.508546591588	22
0	4332	1644.055940226369	23
0	4334	1644.226552958768	24
0	4342	1647.048670951867	22
0	4345	1647.772547589866	23
0	4347	1648.479216821992	24
0	4349	1648.751889070481	25
0	4352	1649.806768125187	25
0	4360	1655.436477553515	23
0	4369	1658.511315315398	23
0	4376	1659.497929300964	23
0	4380	1660.533950617185	24
0	4385	1661.875074065448	25
0	4391	1665.620613489475	25
0	4393	1666.256370946345	26
0	4398	1669.39352716617	24
0	4400	1670.407144571465	25
0	4402	1671.059382180222	26
0	4407	1674.34436835514	24
0	4409	1674.858244710325	25
0	4413	1675.319841385973	26
0	4417	1680.214511553634	26
0	4419	1680.517418408665	27
0	4421	1681.160181281315	28
0	4425	1682.035779064095	27
0	4432	1684.223825625146	26
0	4436	1685.54885478277	25
0	4440	1686.862490946063	24
0	4443	1687.329594194307	24
0	4445	1688.027332597751	25
0	4450	1692.15902124161	23
0	4452	1692.284131976844	24
0	4454	1692.544070282032	25
0	4458	1693.053192287701	26
0	4468	1698.994874786735	26
0	4472	1701.115814686563	25
0	4475	1701.709199765203	25
0	4479	1702.346383521445	26
0	4481	1702.570571472671	27
0	4492	1705.712811742937	26
0	4496	1707.214266372298	25
0	4500	1710.420092764933	24
0	4502	1710.783048567006	25
0	4504	1711.584286364288	26
0	4506	1711.916833382042	27
0	4510	1714.117134208633	26
0	4512	1714.136532610531	27
0	4514	1714.170019549869	28
0	4517	1714.466038381308	28
0	4527	1718.275257039668	27
0	4529	1718.387910939822	28
0	4531	1718.412418790794	29
0	4536	1722.331842570091	27
0	4538	1723.410587790302	28
0	4540	1723.960999888356	29
0	4545	1725.279668105739	27
0	4547	1726.435331798286	28
0	4551	1729.42753660768	27
0	4554	1731.335305623975	27
0	4557	1732.737758320876	27
0	4570	1736.354059928225	28
0	4593	1747.811935661964	24
0	4595	1748.294900280358	25
0	4597	1749.178950181785	26
0	4600	1750.889018223023	26
0	4604	1751.517909960523	27
0	4607	1752.98388817596	28
0	4617	1754.687495329273	28
0	4624	1756.777209341373	29
0	4628	1758.65909787521	28
0	4630	1761.411760916039	29
0	4635	1761.753795316499	30
0	4643	1763.711320990542	31
0	4648	1768.589419121664	29
0	4650	1769.376809860606	30
0	4652	1769.956305741781	31
0	4654	1770.047811577959	32
0	4656	1770.850190479093	33
0	4658	1770.978684524904	34
0	4664	1773.454036405752	34
0	4666	1773.917700840837	35
0	4668	1774.634000237944	36
0	4670	1774.880040875591	37
0	4688	1778.617089670952	37
0	4698	1780.354205947194	38
0	4702	1780.844612746532	39
0	4706	1781.954560497006	40
0	4708	1782.048419539679	41
0	4723	1790.741850552283	38
0	4729	1791.962456516926	38
0	4731	1793.645726264027	39
0	4734	1794.330020139706	39
0	4736	1794.845419936443	40
0	4749	1798.978907071087	39
0	4752	1799.739621675109	39
0	4760	1801.69595699823	40
0	4762	1803.275934924407	41
0	4768	1806.454046950891	38
0	4773	1807.327843815098	36
0	4775	1808.612812390358	37
0	4777	1808.792656778186	38
0	4779	1808.954917381615	39
0	4781	1810.051258414632	40
0	4783	1810.592810273077	41
0	4786	1811.29478918944	41
0	4792	1813.65952581571	41
0	4801	1815.121510676619	41
0	4805	1815.168724872619	42
0	4812	1816.945583654538	41
0	4818	1818.019773957264	42
0	4826	1822.502771570371	43
0	4830	1822.821608786168	44
0	4833	1823.405399692582	45
0	4836	1824.45572785028	45
0	4840	1825.952877617978	44
0	4850	1827.845222500425	43
0	4860	1833.092194875936	39
0	4865	1834.991816659241	37
0	4869	1835.645547198651	38
0	4871	1835.756570458561	39
0	4875	1836.46707455404	39
0	4878	1838.73591269367	39
0	4883	1841.295323962821	37
0	4886	1841.841664312024	37
0	4888	1842.473190562441	38
0	4890	1842.929820591085	39
0	4895	1845.246631066807	40
0	4898	1845.813896351951	40
0	4900	1846.380017189367	41
0	4907	1846.897554506708	42
0	4914	1848.96999216676	42
0	4917	1850.917875312581	42
0	4921	1854.187372754303	41
0	4927	1855.734792101713	40
0	4932	1858.247760227094	41
0	4935	1858.429224443787	42
0	4942	1861.495471480534	41
0	4945	1863.170127673381	41
0	4947	1863.279383726784	42
0	4949	1863.65701087166	43
0	4967	1870.387145687935	40
0	4973	1870.901871017593	40
0	4975	1871.773500035349	41
0	4977	1873.455986710694	42
0	4981	1874.812974322569	43
0	4984	1875.88831870273	44
0	4996	1886.381384922798	38
0	5000	1887.845827587569	37
0	5005	1891.631821675628	38
0	5008	1892.288687991712	38
0	5021	1895.601821560995	37
0	5023	1896.144247678743	38
0	5027	1896.772906855927	39
0	5032	1899.589301924387	38
0	5039	1902.947258836845	37
0	5043	1903.730446781077	38
0	5046	1904.317743513595	39
0	5048	1904.548943549533	40
0	5053	1905.779740284701	41
0	5059	1906.976355276099	41
0	5064	1907.293941170382	41
0	5067	1907.763555291948	42
0	5074	1911.550348464643	41
0	5076	1912.908297583364	42
0	5078	1913.462239612728	43
0	5080	1913.913997967668	44
0	5082	1914.106918369033	45
0	5084	1914.390712198589	46
0	5088	1918.286890765133	45
0	5090	1918.957620556099	46
0	5093	1920.715845399138	46
0	5098	1922.561898478299	46
0	5102	1923.487605304324	46
0	5104	1924.547414049047	47
0	5108	1928.66582573175	48
0	5120	1932.165668761381	48
0	5123	1933.971158731116	49
0	5132	1936.498374468883	49
0	5134	1938.853413924975	50
0	5142	1940.717002058542	48
0	5144	1941.146456938998	49
0	5147	1942.60080446065	49
0	5156	1945.514852642892	49
0	5174	1950.844611917947	49
0	5181	1954.215007130548	48
0	5184	1955.822309967459	48
0	5186	1956.130486231587	49
0	5190	1957.391512812585	50
0	5197	1961.990437437423	50
0	5199	1962.593516893176	51
0	5203	1964.042440577518	52
0	5219	1970.990199838421	51
0	5221	1970.994419085768	52
0	5227	1974.029481257903	53
0	5232	1976.788253039222	53
0	5235	1977.900038275336	54
0	5238	1978.388593958494	54
0	5251	1982.840360259302	50
0	5265	1987.4148927099	49
0	5271	1988.865802456562	50
0	5289	1994.066836040516	45
0	5298	1999.187329413221	42
1	0	0	0
1	5	5.334485077988	0
1	7	7.464838062198	1
1	9	8.42479328646	2
1	10	10.17260723734	2
1	11	10.430442189471	1
1	12	11.665128196846	0
1	14	11.727573469474	0
1	15	12.290630395003	0
1	17	13.916896235151	0
1	19	15.790756321673	1
1	23	19.876145559686	1
1	27	22.721238347121	0
1	35	29.942414001905	0
1	36	32.518333821231	0
1	40	35.069907560411	0
1	49	39.543940615792	1
1	51	40.323732536493	2
1	52	41.618531582836	2
1	57	43.25509099865	2
1	58	44.236169925673	2
1	60	45.192459280827	2
1	62	46.167467488373	3
1	64	46.464358253782	4
1	68	47.990412856296	4
1	70	48.340745243173	4
1	74	49.392171877686	5
1	76	49.927315902002	5
1	78	50.000559565174	5
1	82	50.208470679468	6
1	88	51.558956169693	7
1	89	52.335683955067	7
1	91	52.939239773131	7
1	92	53.43661574326	7
1	94	53.528329506954	7
1	96	53.547544161329	8
1	100	54.09327898874	9
1	103	56.145097327727	10
1	107	57.460321639091	10
1	108	57.992640083316	9
1	112	58.710888225934	8
1	113	59.451785485988	7
1	118	60.749172548357	7
1	119	61.224266900693	7
1	120	62.624339710108	6
1	127	65.919832813099	5
1	129	66.44551870273	5
1	133	67.544505304867	5
1	134	67.617413178032	4
1	135	67.760268609231	3
1	136	68.28005794139	2
1	138	68.462823351008	2
1	139	69.862392003968	2
1	140	70.207594819393	1
1	141	72.007354109352	0
1	149	74.355582299156	0
1	151	74.700584635395	1
1	155	76.567857909507	1
1	156	79.850946187765	0
1	158	79.987909475842	0
1	160	80.372400650029	1
1	164	81.115594491443	1
1	166	81.169413479072	1
1	167	81.384730638221	1
1	172	83.157521186448	1
1	176	84.112644492851	1
1	178	84.116542100258	1
1	182	84.679619573487	2
1	184	86.855518822318	2
1	186	87.191404608053	2
1	187	87.852544234545	2
1	188	89.523118626037	1
1	189	91.271874960361	0
1	191	94.926679757132	0
1	193	94.964506952475	1
1	194	95.383868279214	1
1	201	96.538426129045	1
1	209	97.517171161616	1
1	210	99.178088492334	0
1	215	102.176297984486	0
1	216	102.877166483872	0
1	227	106.255197094081	0
1	232	109.135990614793	1
1	233	109.344791296963	1
1	234	109.86599252113	0
1	236	110.765230890698	0
1	238	110.924616217787	1
1	243	111.668378476259	2
1	250	115.987753773667	2
1	251	116.491878867935	1
1	252	116.726822390695	0
1	272	125.524494004216	0
1	274	126.598977191915	1
1	276	127.958828827605	2
1	277	129.194902845945	2
1	281	130.064550572431	2
1	283	130.2164384036	3
1	294	135.199250459108	3
1	296	135.402526820402	3
1	310	139.753638211403	4
1	312	139.769356735257	5
1	313	140.276537080567	5
1	321	142.951232642704	5
1	322	144.307977965175	5
1	329	147.73591379326	4
1	331	148.001780443673	4
1	333	148.32668128987	5
1	334	148.392308447903	5
1	336	148.434331603466	5
1	341	149.749834694741	6
1	349	151.860109651012	7
1	350	153.541887254204	7
1	352	153.624287466857	7
1	356	155.286408650825	8
1	365	157.0915890885	9
1	366	158.446517422015	9
1	368	158.597721256908	9
1	369	159.408660158607	9
1	373	161.3370454152	8
1	375	162.171111277892	8
1	376	162.395410476256	8
1	381	164.14611721277	8
1	382	164.247754837105	8
1	383	165.080412811169	7
1	384	165.507922228571	6
1	386	166.441959343379	6
1	388	166.698648074733	7
1	395	169.762405873182	7
1	397	170.236810051604	7
1	398	170.433056013602	7
1	399	170.967197062029	6
1	406	174.45378269989	5
1	407	174.516076709597	4
1	409	174.781348972686	4
1	410	174.97627633321	4
1	411	175.152335866449	3
1	413	175.165331564259	3
1	414	175.8456600368	3
1	419	178.635949851501	3
1	420	178.666400438599	3
1	421	179.121117809759	2
1	422	179.530252335587	1
1	424	180.024268185439	1
1	425	180.253524705044	1
1	430	181.991464248435	1
1	432	181.999883232537	2
1	433	183.138632269337	2
1	435	183.543346286381	2
1	436	184.700217252729	2
1	438	184.744644493464	2
1	440	184.890533752444	3
1	444	185.446684369564	4
1	446	186.26849159051	4
1	447	186.780737840859	3
1	451	187.890888240109	2
1	452	189.127231255306	1
1	453	189.568782856511	0
1	464	192.931799043292	0
1	466	193.139559000723	1
1	468	194.422026177431	2
1	473	197.205065490202	3
1	475	197.556916815628	4
1	483	203.784423188548	5
1	484	203.856431396549	5
1	492	205.530266287918	5
1	493	205.556020303275	5
1	495	205.602758032506	5
1	499	207.638148341702	5
1	501	208.125720135861	5
1	502	209.184683541393	5
1	504	209.81931372262	5
1	506	210.36481412413	6
1	510	210.732638064296	6
1	512	210.96602021034	6
1	513	212.30258294505	6
1	515	213.039668574736	6
1	516	213.425109954747	6
1	517	215.021055281077	5
1	519	215.381093757864	5
1	523	215.939323768198	6
1	525	216.084219958815	7
1	530	218.542616299991	7
1	531	219.189202182831	6
1	533	220.394619750084	6
1	534	220.624430744836	6
1	535	221.563251982039	5
1	537	222.461947564227	5
1	543	224.106647345362	6
1	545	224.19002254151	7
1	548	224.777774318321	7
1	549	226.122267455714	6
1	551	226.275311553957	6
1	553	227.202116787509	7
1	566	231.118025183925	8
1	571	232.114759484164	9
1	573	232.62950715876	9
1	577	235.792537738692	8
1	578	236.721925804886	7
1	580	237.980398197848	7
1	582	239.106922200306	8
1	583	240.988624088565	8
1	584	242.041274861576	7
1	585	242.393876225805	6
1	587	242.797565453266	6
1	592	243.770736356468	7
1	594	244.06123729053	8
1	595	245.466914978204	8
1	596	246.07049543361	7
1	603	248.082705023512	6
1	605	248.184805427664	6
1	607	248.406405267427	7
1	609	248.668583871084	8
1	610	248.879564365452	8
1	612	251.523923326989	8
1	613	251.792180797134	8
1	614	252.071187899084	7
1	625	254.545415788964	7
1	630	255.866116251889	8
1	632	257.294209448434	9
1	634	259.075785709506	10
1	635	259.116173358425	10
1	636	259.318641349078	9
1	649	264.762473381313	9
1	660	268.29723002991	9
1	662	268.880197710994	9
1	663	269.08547282822	9
1	664	269.800125033337	8
1	666	271.89068891164	8
1	667	273.033998269631	8
1	669	274.12701875147	8
1	671	274.408007907233	9
1	672	274.716498870863	9
1	677	275.614516227988	9
1	684	277.580743565806	10
1	686	277.585297839372	11
1	688	278.076651393932	11
1	689	278.106356467328	10
1	694	279.756872595032	10
1	699	281.952021482943	11
1	700	283.559416337009	11
1	701	283.780188489771	10
1	702	284.21706122035	9
1	704	285.810546055381	9
1	705	286.413255595445	9
1	706	286.434736437559	8
1	711	288.311467071045	8
1	715	290.663346004282	8
1	719	291.284420132458	7
1	720	291.667301729137	6
1	722	291.818051994262	6
1	723	292.574357488996	6
1	727	294.463430334836	5
1	734	295.514972237084	5
1	736	295.791325591741	6
1	738	297.746535891312	6
1	740	297.945510482999	6
1	742	298.677355221246	7
1	746	300.128554468005	7
1	748	303.095665720744	7
1	750	303.850133933185	8
1	751	304.349395758306	8
1	753	305.559083540459	8
1	755	305.563890993135	9
1	756	307.717162941014	9
1	758	308.162773000102	9
1	760	309.489520375818	10
1	776	317.752406770013	10
1	777	318.580455553609	9
1	778	318.682424287925	8
1	779	319.622192037098	7
1	780	319.781019718873	6
1	782	321.061818031741	6
1	783	321.619689578906	6
1	784	321.697259746333	5
1	791	325.018072599466	4
1	795	326.510666447726	4
1	797	326.548360361866	5
1	799	327.109418132149	6
1	802	327.342785380201	7
1	803	328.169850846563	7
1	805	328.383064920265	7
1	807	328.577911636705	8
1	809	328.647907826789	9
1	811	328.799829418715	10
1	812	329.384648297713	10
1	814	329.402962078702	10
1	821	333.436287757599	10
1	822	333.920121213381	9
1	824	334.38739176409	9
1	829	336.297434247482	10
1	833	337.19860683578	10
1	835	340.257510433503	10
1	836	340.801319247596	10
1	837	341.719470948853	9
1	839	342.460528591155	9
1	847	344.712292150715	10
1	849	345.059231158531	11
1	850	345.712762796796	11
1	852	346.687458306042	11
1	857	350.384270637342	12
1	858	351.677345169855	12
1	859	352.187448530847	11
1	860	352.577681069196	10
1	861	353.001426798821	9
1	862	353.224549033626	8
1	866	354.939318391885	7
1	868	355.594708623574	7
1	873	356.363482571498	8
1	880	357.366943650034	8
1	884	358.621338569337	7
1	886	359.411362869221	7
1	891	360.401308195264	8
1	895	361.429552255263	8
1	897	361.838541903813	8
1	904	362.722441465292	9
1	906	362.931394512723	10
1	918	368.153748361627	11
1	919	368.567824295022	11
1	920	369.448558592939	10
1	922	369.828946028714	10
1	926	371.701313322814	10
1	933	374.609008825821	10
1	935	374.92588298956	11
1	941	375.750403076232	12
1	945	376.008641377826	13
1	947	377.266368985265	14
1	949	378.574875031209	14
1	950	379.6842516286	13
1	951	383.800189598836	12
1	952	384.143711711299	11
1	956	388.397524800743	10
1	963	390.858357901187	9
1	964	391.899107772188	8
1	971	395.589770534483	7
1	973	399.003552354098	7
1	977	399.401968318404	7
1	979	399.48263021436	7
1	980	399.664442919337	7
1	982	400.009848312483	7
1	986	402.357384290668	7
1	988	402.900264307263	7
1	990	403.188917933895	8
1	991	404.302717449258	8
1	1005	413.02136192159	8
1	1007	414.956563062661	9
1	1011	419.172374520141	9
1	1013	419.796167233551	9
1	1014	420.337440720445	9
1	1025	422.092524664623	9
1	1027	423.084535927582	10
1	1029	423.841974379477	11
1	1031	423.846813847117	12
1	1032	423.921532032404	12
1	1033	424.886806493128	11
1	1034	426.068975577455	10
1	1035	426.809125146075	9
1	1036	428.150050671331	8
1	1038	428.570832006307	8
1	1039	428.663814478129	8
1	1040	428.982575040643	7
1	1045	430.324384847273	7
1	1046	431.290583821103	7
1	1047	431.39455459698	6
1	1054	435.159670994993	6
1	1056	435.610991925751	7
1	1058	435.691992465757	8
1	1060	436.170268202582	8
1	1061	437.875305374902	7
1	1062	439.549980435225	6
1	1064	439.884811898266	6
1	1065	442.879801028495	6
1	1069	445.01233536521	5
1	1073	445.07760739623	5
1	1084	448.243510877362	5
1	1085	448.453999898212	4
1	1086	449.24656809241	3
1	1088	452.445396583489	3
1	1099	456.288154861188	4
1	1101	456.532943757275	5
1	1102	457.561678908187	5
1	1106	458.029271098045	5
1	1111	459.448550270231	6
1	1115	459.824968046405	7
1	1122	462.576884995556	8
1	1123	462.989545329134	8
1	1125	464.788140751757	8
1	1129	466.479222270035	8
1	1131	466.790190481239	8
1	1132	467.019375667895	8
1	1133	467.704702867455	7
1	1139	469.133433078117	7
1	1141	470.376317734506	8
1	1145	471.353227117224	9
1	1146	471.461350197184	9
1	1147	471.539205104125	8
1	1148	471.600777277971	7
1	1149	472.308167608566	6
1	1151	472.799640038122	6
1	1153	473.469887716654	7
1	1157	473.877302892249	8
1	1161	474.831562941195	9
1	1164	475.912973719963	10
1	1169	478.291996025335	10
1	1171	478.368157331585	10
1	1173	478.500624629813	11
1	1174	478.569741656294	11
1	1176	479.138488471848	11
1	1178	479.212231265769	12
1	1179	479.877644197727	12
1	1181	480.197509989684	12
1	1182	480.659107096677	12
1	1184	480.930085476339	12
1	1186	481.838116883398	13
1	1187	483.516614847854	13
1	1188	483.743098882249	12
1	1189	484.161815026098	11
1	1190	484.761429007484	10
1	1192	484.77535424227	10
1	1193	484.895008579496	10
1	1194	485.313211942882	9
1	1196	485.675192866018	9
1	1197	485.8980687452	9
1	1201	486.380959300768	9
1	1206	488.192626456711	10
1	1209	488.454226486521	11
1	1210	488.614172148302	11
1	1211	488.881063484003	10
1	1218	490.74904149323	10
1	1224	492.309519823039	11
1	1236	493.86543628361	12
1	1244	494.393971695638	13
1	1248	494.677019882264	14
1	1249	495.148119341071	14
1	1251	495.239561972175	14
1	1252	495.692259182608	14
1	1259	498.465182159515	13
1	1260	499.607072761494	12
1	1264	500.82544350692	12
1	1267	501.724502622222	13
1	1268	501.874936003484	13
1	1269	502.803243052036	12
1	1270	504.22706440617	11
1	1275	508.260970578643	11
1	1279	509.078927434051	12
1	1281	509.347134049727	13
1	1289	510.970742279195	14
1	1291	511.566426235202	14
1	1295	512.406243180639	13
1	1299	515.440699275612	12
1	1301	516.802285289178	12
1	1303	518.065734063677	13
1	1304	519.041056373726	13
1	1306	519.485444307955	13
1	1308	519.565762143019	14
1	1309	519.592421833311	14
1	1310	520.433569486762	13
1	1314	520.718726684554	13
1	1317	521.475594930819	14
1	1319	523.568702463852	15
1	1321	524.147884548643	16
1	1329	526.281997311259	17
1	1333	528.766249334833	17
1	1337	529.141015625319	16
1	1339	529.415031292609	16
1	1341	530.44233181579	17
1	1342	530.666991603007	17
1	1344	531.418317990784	17
1	1345	531.566761999847	17
1	1346	531.749254259068	16
1	1348	535.289134528109	16
1	1349	535.383501511693	16
1	1351	536.079906888821	16
1	1353	538.24267261664	17
1	1354	538.709919832644	17
1	1355	538.811804991062	16
1	1356	538.966591442233	15
1	1357	539.225836152614	14
1	1359	541.115847051579	14
1	1361	541.792210289175	15
1	1363	543.242114230819	16
1	1364	544.004739765474	16
1	1365	544.912105385508	15
1	1366	546.02398325784	14
1	1368	546.671585352784	14
1	1369	547.461571809999	14
1	1370	548.046668205398	13
1	1372	548.375272979212	13
1	1373	548.759301078493	13
1	1378	549.570910820165	13
1	1379	550.156755199699	13
1	1380	550.793941923924	12
1	1382	551.352299999186	12
1	1383	552.205089851822	12
1	1384	553.154636873251	11
1	1391	555.598656693202	10
1	1395	556.414671340267	9
1	1396	556.424226540899	8
1	1400	560.938950369155	7
1	1402	561.391583022954	7
1	1406	562.834097024046	7
1	1408	562.912639228417	7
1	1410	563.131329928694	8
1	1417	564.232052333995	8
1	1419	564.900299248442	8
1	1421	564.938525410386	9
1	1423	564.939082335932	10
1	1427	566.681168068426	10
1	1428	567.125745383681	9
1	1430	567.451218599163	9
1	1435	568.136270654814	10
1	1436	570.759729810292	10
1	1437	572.867021056124	9
1	1438	573.30990756384	8
1	1439	574.024160846316	7
1	1443	574.651205763544	7
1	1451	576.130140303289	8
1	1454	576.7278582182	9
1	1459	577.183654747931	10
1	1461	577.304191267394	11
1	1463	577.779326176364	12
1	1464	578.293456360144	12
1	1468	580.276907864002	12
1	1472	580.615090479239	13
1	1476	582.61128670647	14
1	1477	582.816903190596	14
1	1479	583.141133996031	14
1	1480	583.226090630647	14
1	1484	585.340543391953	13
1	1485	585.542985396525	12
1	1486	586.018441705107	11
1	1488	586.680432600531	11
1	1495	589.044342318181	12
1	1498	589.780282947446	13
1	1499	591.758966950398	13
1	1501	592.629399503252	13
1	1502	593.319083487241	13
1	1503	593.38983526389	12
1	1510	595.006034133661	12
1	1515	597.481031739423	12
1	1517	599.639830119063	12
1	1518	599.867305950556	12
1	1520	599.974090551287	12
1	1521	600.55970963236	12
1	1523	600.986984133714	12
1	1527	601.591031984324	12
1	1528	601.842488961361	11
1	1529	602.723241056946	10
1	1535	604.833596452335	10
1	1541	608.797002933953	10
1	1542	609.218496539736	9
1	1543	610.732025725625	8
1	1544	612.043606755191	7
1	1546	612.721208919723	7
1	1548	612.779667312806	8
1	1552	614.542057330022	8
1	1556	614.774213635067	8
1	1558	615.498461448403	8
1	1559	616.358662148468	7
1	1560	617.153338356364	6
1	1561	617.903138245394	5
1	1562	617.932435569695	4
1	1563	618.293251626537	3
1	1564	620.783240313578	2
1	1568	621.174354379048	1
1	1575	623.364106727743	0
1	1592	634.512327916701	0
1	1594	636.018328375026	1
1	1595	637.922721527764	1
1	1596	641.727068852233	0
1	1600	642.537466645381	0
1	1602	642.937514013013	0
1	1604	643.604416262204	0
1	1605	643.671175378943	0
1	1610	648.002705743564	0
1	1612	648.058815874329	1
1	1613	648.736270769388	1
1	1615	649.205645116371	1
1	1616	650.275777599879	1
1	1618	651.089916590764	1
1	1619	651.828927148911	1
1	1621	653.086628754633	1
1	1629	656.039144132334	2
1	1630	656.591714517635	2
1	1631	656.738050154901	1
1	1632	657.755274824571	0
1	1634	658.667979392018	0
1	1635	660.547630808205	0
1	1639	661.26138098882	0
1	1641	661.720776279114	1
1	1649	664.347375636078	2
1	1655	668.637832274271	3
1	1663	670.708992609555	4
1	1667	672.28642712755	4
1	1668	673.557725403351	3
1	1676	677.572280199262	3
1	1677	678.177283464766	3
1	1678	678.510464232835	2
1	1680	678.546204179009	2
1	1682	681.606682445406	3
1	1683	682.112314392097	3
1	1685	682.51877478656	3
1	1686	684.953484373078	3
1	1687	684.979707619186	2
1	1688	685.099525800462	1
1	1690	686.006511861982	1
1	1692	686.505169749351	2
1	1693	686.612597811546	2
1	1695	687.353600591098	2
1	1697	688.331063866526	3
1	1701	689.237544203384	4
1	1703	689.547617365921	4
1	1704	690.727273311676	3
1	1711	693.135957673981	2
1	1713	693.973649525569	2
1	1717	694.527996727724	3
1	1719	694.944279370033	4
1	1721	698.048865448529	4
1	1722	698.131061431551	3
1	1729	700.520112938159	2
1	1734	701.184728810868	2
1	1736	702.478261814048	3
1	1740	704.228798637514	3
1	1745	705.262694983944	3
1	1746	705.372358863592	3
1	1748	705.796157542606	3
1	1754	706.30325707508	4
1	1760	707.522651730716	4
1	1762	707.823502135372	4
1	1763	708.091284391729	4
1	1764	708.863824682779	3
1	1769	710.110045222402	3
1	1771	711.019045888259	4
1	1772	712.022330538574	4
1	1777	712.858171790639	4
1	1778	712.869711172019	4
1	1779	713.122290138492	3
1	1783	714.064498791533	2
1	1785	714.320765352566	2
1	1786	715.4676009344	2
1	1796	719.554831809634	2
1	1799	720.975657033957	3
1	1801	721.076066027614	4
1	1806	721.333959115422	5
1	1808	722.434998760988	6
1	1810	722.968288160692	7
1	1811	723.049214982104	7
1	1813	723.905186514534	7
1	1820	724.743446844966	8
1	1822	725.276485022454	9
1	1828	726.516180517174	10
1	1829	727.972734968788	10
1	1831	728.346449603735	10
1	1832	728.481216336019	10
1	1833	729.668821556816	9
1	1835	729.732915551636	9
1	1836	731.215321759793	9
1	1837	731.327586111705	8
1	1838	731.408280308888	7
1	1839	731.823231705705	6
1	1840	732.462482990676	5
1	1842	733.324262316784	5
1	1843	733.475098234912	5
1	1845	735.215261165184	5
1	1852	737.058976142926	5
1	1854	737.655425680482	5
1	1855	738.241275581622	5
1	1857	739.548215285256	5
1	1858	740.665967510361	5
1	1860	741.408965444016	5
1	1862	741.560995047262	6
1	1863	741.629487243331	6
1	1865	741.744671416843	6
1	1870	742.334951667622	7
1	1874	742.723347249117	7
1	1882	744.968809388696	7
1	1884	745.494890693405	8
1	1886	745.682110268893	9
1	1896	752.063971217169	9
1	1898	752.268342044588	9
1	1916	755.274841169235	10
1	1922	756.54638864061	11
1	1928	757.570972082592	12
1	1929	758.143310575477	12
1	1934	758.853268781575	12
1	1938	759.888661215884	12
1	1939	760.15729370574	11
1	1947	761.811667348808	11
1	1954	764.535325241735	11
1	1956	764.74772067069	11
1	1957	765.282477741928	11
1	1959	766.551786423709	11
1	1961	766.895388730378	12
1	1966	770.023958044661	13
1	1968	770.501470817182	14
1	1972	771.536480451787	14
1	1979	773.634963372167	13
1	1981	774.035328109578	13
1	1982	777.090485090328	13
1	1983	777.435472921093	12
1	1985	778.012027349005	12
1	1986	778.832153149987	12
1	1987	779.101683331487	11
1	1988	779.870604070986	10
1	1990	779.963274424005	10
1	1991	780.390671884103	10
1	1992	780.910345152632	9
1	1999	782.944695768934	9
1	2001	783.580033974689	9
1	2002	783.77549306358	8
1	2006	783.861297241347	8
1	2011	785.685877201826	8
1	2013	785.69044539051	8
1	2015	786.235243220898	9
1	2016	786.990426598941	9
1	2020	789.964155452723	8
1	2024	790.706544543861	7
1	2026	791.013082776252	7
1	2028	791.306448397661	8
1	2030	791.334663115074	9
1	2032	791.980976896529	10
1	2033	792.397415345809	10
1	2037	794.566750156627	9
1	2038	794.606697696013	8
1	2043	795.326478083836	8
1	2045	795.710958240487	9
1	2050	797.166585053037	10
1	2051	798.287337279271	10
1	2052	798.294994104397	9
1	2053	798.398069521686	8
1	2054	798.776317777469	7
1	2055	800.134137030106	6
1	2056	800.647952747545	5
1	2058	800.804287855709	5
1	2059	801.074583256101	5
1	2060	801.301630254611	4
1	2061	801.773576889098	3
1	2063	802.518090827629	3
1	2065	802.980200913079	4
1	2066	804.119049333942	4
1	2070	804.178231055183	4
1	2073	805.144175583358	5
1	2074	806.924098818297	5
1	2078	810.094194251648	4
1	2082	810.683277015739	3
1	2084	810.846985229169	3
1	2086	811.457032268883	4
1	2090	812.278010605906	4
1	2091	813.014153240529	3
1	2096	814.400507171321	3
1	2106	816.590606120618	3
1	2108	818.008935625228	3
1	2115	819.827191451731	4
1	2117	822.185504101998	4
1	2122	824.99449418003	4
1	2123	825.80700427443	4
1	2124	826.130661644622	3
1	2125	826.406847625846	2
1	2127	826.770781010064	2
1	2129	828.009564160148	3
1	2133	829.747567025845	4
1	2135	831.644342762147	4
1	2139	832.594374867078	4
1	2141	832.942232401454	4
1	2145	833.298933776895	4
1	2149	833.896063193396	5
1	2153	835.907638519072	6
1	2154	836.278076744733	6
1	2160	836.508309974066	6
1	2163	836.806916198785	6
1	2164	839.685420039897	5
1	2168	841.237778347099	5
1	2170	842.525218309331	6
1	2172	842.680955071393	7
1	2174	842.862243588481	8
1	2176	843.274513117368	8
1	2177	843.423278235772	7
1	2178	845.1875426252	6
1	2188	847.790696942017	5
1	2189	848.430543962892	4
1	2193	849.302754185814	3
1	2194	849.330264141472	2
1	2198	850.050599824891	2
1	2201	851.339275062166	3
1	2202	851.733317525992	3
1	2203	852.140482975192	2
1	2204	852.674289610835	1
1	2208	854.016185815249	0
1	2210	854.605374502898	0
1	2211	854.636339885019	0
1	2221	859.00281046637	0
1	2223	859.075233371366	1
1	2228	860.727108356785	1
1	2230	862.263409021261	1
1	2235	864.099020824066	2
1	2236	864.360956818	2
1	2237	864.519223788606	1
1	2238	864.939481637005	0
1	2243	869.492691014078	0
1	2247	869.615089157125	1
1	2252	871.621912176182	1
1	2254	872.110392748179	1
1	2258	872.374593933379	2
1	2260	872.47309519593	3
1	2263	872.842301169403	4
1	2264	873.239208132105	4
1	2265	874.04627072059	3
1	2266	874.138935462761	2
1	2268	874.434893641353	2
1	2269	874.970028805223	2
1	2283	880.796819652844	2
1	2288	882.202810034514	3
1	2289	882.398531509548	3
1	2293	883.0648248256	3
1	2295	884.247296566944	3
1	2302	885.639836106307	3
1	2304	885.718836734128	4
1	2308	885.949033325118	5
1	2312	887.628393924475	6
1	2314	888.093365459663	7
1	2315	888.994551271663	7
1	2317	890.824697907429	7
1	2319	891.668018774921	8
1	2320	891.716940030136	8
1	2329	895.145322574514	8
1	2333	896.318200226898	9
1	2335	896.655063388635	10
1	2339	898.497036577631	11
1	2348	902.189440986363	12
1	2350	902.764796533936	13
1	2351	903.897825847584	13
1	2353	903.974789918876	13
1	2354	904.120947373779	13
1	2368	907.788628538448	13
1	2370	908.406745135663	14
1	2372	908.598178519124	15
1	2374	909.245794226645	16
1	2376	909.755855731474	17
1	2378	910.924832070087	18
1	2380	911.163836531276	19
1	2381	911.49066102928	19
1	2382	911.589767447866	18
1	2384	914.061127083279	18
1	2385	914.425493923451	18
1	2387	916.39301999871	18
1	2391	917.427922306849	19
1	2393	917.609191670758	20
1	2396	918.981325980357	21
1	2400	920.873651504548	21
1	2401	922.564371580812	20
1	2402	922.733632818604	19
1	2403	923.037065928397	18
1	2404	923.420214970062	17
1	2405	923.903962085507	16
1	2406	924.190165280107	15
1	2407	925.790223290205	14
1	2412	928.461484228232	14
1	2413	929.17895222429	14
1	2415	931.037076710125	14
1	2417	931.105390241834	15
1	2419	931.47093460429	16
1	2424	931.536405510209	17
1	2426	931.972539261876	18
1	2427	932.143243683837	18
1	2431	934.661443040086	18
1	2434	936.132817422233	19
1	2436	936.188295299614	20
1	2440	937.669419522951	20
1	2441	938.315943000672	19
1	2445	938.397444466615	19
1	2447	939.378325246433	19
1	2449	940.078765321158	19
1	2450	941.975399093564	19
1	2451	942.099218893592	18
1	2452	942.46256711849	17
1	2453	943.797517902494	16
1	2454	944.258531940887	15
1	2456	944.342286564158	15
1	2458	944.512892938694	16
1	2459	944.513250553649	16
1	2461	944.898912031637	16
1	2462	945.102481497419	16
1	2463	945.247666883118	15
1	2464	946.1354804276	14
1	2465	946.221122196154	13
1	2467	947.062895210651	13
1	2469	947.423886480112	14
1	2476	949.503353140138	15
1	2478	951.331085742432	15
1	2480	951.873732034596	15
1	2481	952.075994109257	15
1	2483	952.61634273407	15
1	2485	952.647094479984	16
1	2487	953.262573302103	17
1	2491	955.030568700129	17
1	2493	955.385105103072	17
1	2495	955.695128131982	18
1	2497	956.125073881739	19
1	2499	956.144239426509	20
1	2500	956.280250084236	20
1	2501	957.792980119343	19
1	2503	958.513147172806	19
1	2505	959.775988876821	20
1	2509	962.781262788926	20
1	2510	964.352563424229	19
1	2511	964.792179068921	18
1	2513	966.506369368301	18
1	2518	967.281528895063	19
1	2520	967.861912508154	20
1	2521	968.385400038586	20
1	2525	969.209937850244	19
1	2529	969.677763630718	19
1	2531	970.398595178776	20
1	2537	972.127667586675	21
1	2538	972.142175469434	21
1	2539	972.264903695743	20
1	2544	974.593975105254	20
1	2549	975.892712468459	21
1	2550	977.159138910058	21
1	2551	978.79133635103	20
1	2556	983.121920279597	20
1	2558	983.234501024045	21
1	2563	986.948983352901	22
1	2564	987.135134845786	22
1	2566	987.23485786585	22
1	2567	987.868555787378	22
1	2569	988.751506129094	22
1	2573	989.068170327702	23
1	2576	990.912390633781	24
1	2578	991.592907813961	25
1	2579	992.077601519242	25
1	2583	993.190399250548	24
1	2584	993.532653559543	23
1	2585	994.444861233382	22
1	2587	994.854489359878	22
1	2592	996.897661549774	23
1	2594	998.299147544628	24
1	2598	999.420786413894	25
1	2600	999.568795290564	26
1	2605	1001.261317589253	26
1	2606	1002.064230574896	25
1	2619	1008.61475642091	25
1	2627	1011.401883539285	25
1	2629	1012.24084561952	25
1	2631	1012.412057795895	26
1	2635	1018.17557585973	26
1	2636	1019.968108533923	25
1	2637	1020.009998114026	24
1	2639	1020.609916287364	24
1	2645	1024.849549864253	25
1	2648	1026.086885964872	25
1	2649	1026.174485424693	24
1	2651	1026.381382465572	24
1	2652	1028.648782474013	24
1	2653	1032.869214613727	23
1	2654	1032.895975463913	22
1	2658	1037.563555063981	21
1	2662	1038.910872218915	21
1	2667	1041.200760060888	21
1	2668	1041.461715149591	20
1	2672	1042.102126465368	19
1	2677	1044.210977562267	19
1	2679	1044.86580724682	20
1	2681	1045.059123713784	21
1	2683	1046.705970680812	22
1	2685	1046.90218362315	23
1	2689	1048.843813224907	24
1	2692	1050.50503400168	25
1	2694	1050.686175757697	26
1	2695	1051.174984140266	26
1	2697	1051.251110013571	26
1	2698	1052.06362395582	26
1	2703	1053.317039035511	26
1	2704	1054.371111974575	26
1	2709	1055.211549274954	26
1	2711	1057.001048980974	27
1	2712	1057.838094538967	27
1	2719	1061.767950980825	26
1	2724	1061.908511656633	26
1	2735	1064.702477075521	27
1	2736	1066.553480190804	27
1	2740	1066.822778622995	27
1	2746	1068.27403390729	28
1	2750	1069.777720994952	28
1	2752	1071.381839037662	28
1	2756	1071.78156621226	28
1	2758	1071.798526943674	28
1	2762	1072.019223062979	29
1	2772	1074.021481102578	30
1	2775	1075.186744936624	30
1	2782	1078.414421387374	29
1	2798	1083.937261348633	28
1	2803	1086.200722386696	28
1	2808	1087.950142127939	29
1	2809	1088.553961777165	29
1	2819	1090.382808306871	29
1	2821	1090.801391332708	29
1	2823	1092.131085236769	29
1	2833	1097.099457118951	30
1	2836	1098.342514257272	31
1	2842	1100.747772995742	32
1	2851	1103.574989713884	33
1	2854	1104.077081544632	34
1	2855	1104.098212352948	34
1	2857	1104.237858648169	34
1	2861	1105.115178896957	34
1	2862	1105.797532913015	33
1	2866	1106.668239964258	33
1	2869	1110.374892275309	34
1	2876	1112.742343034618	35
1	2879	1113.8263645584	36
1	2886	1117.969768287089	36
1	2890	1123.249922497867	35
1	2891	1125.213091873085	34
1	2892	1125.227165446562	33
1	2893	1126.690625020467	32
1	2903	1128.414242445627	32
1	2905	1128.801944262013	33
1	2908	1129.914268652669	34
1	2910	1131.177591153485	35
1	2912	1132.116500183564	36
1	2917	1133.506211909105	37
1	2922	1134.901906356961	38
1	2924	1136.32351709139	39
1	2932	1137.731359455069	40
1	2940	1138.596861590822	41
1	2941	1139.608270200241	41
1	2943	1139.613946093169	41
1	2944	1139.675761440758	41
1	2952	1141.269839568679	41
1	2954	1141.876061287815	42
1	2956	1142.217665337432	43
1	2968	1144.993818309532	44
1	2972	1146.978906313884	45
1	2974	1147.130041411827	46
1	2976	1148.287425689383	47
1	2977	1151.172324761887	47
1	2978	1152.913768918569	46
1	2979	1153.589769646231	45
1	2980	1154.67818812934	44
1	2984	1157.905532071805	44
1	2992	1160.330198396305	44
1	2993	1161.426873018294	43
1	2994	1164.419868600785	42
1	2996	1165.387309205857	42
1	3000	1167.786582219765	42
1	3001	1168.989259953906	41
1	3003	1169.188269846718	41
1	3009	1169.868697820575	42
1	3011	1170.155823174657	43
1	3015	1170.649212592621	44
1	3022	1173.41710138813	44
1	3024	1173.518422615109	44
1	3025	1174.442224156049	44
1	3029	1174.977795070188	44
1	3032	1175.03099757025	45
1	3033	1175.558884333306	45
1	3034	1176.024497694362	44
1	3040	1176.625058766787	44
1	3046	1178.100736118717	45
1	3051	1178.57218040171	45
1	3052	1178.849163145076	44
1	3053	1179.421068294902	43
1	3057	1179.954999386873	42
1	3059	1181.85095450999	42
1	3060	1182.817703009393	42
1	3064	1185.297804305423	41
1	3066	1186.109070686651	41
1	3067	1187.690268649565	41
1	3068	1188.436419301947	40
1	3070	1190.035150208053	40
1	3072	1190.839557005748	41
1	3073	1191.408604066793	41
1	3074	1191.631040884055	40
1	3079	1192.421892919435	40
1	3080	1193.523380291959	40
1	3081	1195.312144860652	39
1	3092	1199.604171161139	39
1	3095	1200.92717535622	40
1	3098	1201.984934385801	41
1	3100	1203.632610306109	41
1	3101	1204.000208693848	40
1	3106	1205.99547936168	40
1	3111	1206.86214444619	41
1	3112	1207.251812867845	41
1	3113	1208.164745192192	40
1	3115	1208.179227250919	40
1	3116	1208.567701455857	40
1	3117	1208.881682364566	39
1	3119	1209.373497981625	39
1	3120	1209.980815418028	39
1	3124	1211.043309398219	39
1	3126	1211.491233303694	39
1	3128	1212.692471088842	39
1	3130	1212.788568537663	40
1	3131	1212.87525438839	40
1	3132	1213.086719322894	39
1	3137	1214.026316870305	39
1	3138	1214.704353577441	39
1	3140	1214.855211011241	39
1	3141	1216.731159129597	39
1	3143	1217.382397219544	39
1	3145	1218.831305461511	40
1	3146	1219.481617487827	40
1	3148	1219.814134678993	40
1	3155	1224.938052678513	41
1	3157	1225.241797162255	42
1	3159	1225.357504810157	43
1	3162	1227.155669123526	44
1	3164	1227.220462256402	45
1	3165	1227.590180927696	45
1	3166	1231.986145291959	44
1	3171	1233.998554914309	44
1	3175	1236.255058452899	44
1	3180	1238.237015136776	44
1	3182	1238.295360823302	45
1	3184	1238.479413607058	46
1	3186	1238.712164040267	47
1	3188	1239.230888064329	48
1	3189	1239.958647382265	48
1	3193	1240.809321965961	47
1	3200	1243.99408075467	46
1	3202	1244.283067302932	46
1	3203	1246.567179421764	46
1	3205	1246.66724107859	46
1	3206	1246.743215729755	46
1	3207	1247.482395383002	45
1	3209	1247.5004192687	45
1	3211	1247.646075442714	46
1	3218	1250.105989749868	47
1	3224	1252.570525787315	48
1	3231	1253.939018323819	48
1	3233	1254.080524263588	48
1	3234	1254.481950736868	48
1	3236	1255.556213239889	48
1	3264	1263.214481577683	49
1	3268	1263.556331981221	50
1	3271	1266.7546726732	50
1	3275	1267.54619416905	50
1	3277	1267.811121619345	51
1	3286	1269.6551203862	52
1	3288	1270.065846460259	53
1	3292	1270.495778252292	54
1	3297	1272.750406334169	54
1	3299	1273.100982012128	54
1	3301	1274.477571179992	55
1	3303	1275.11735621193	56
1	3307	1275.402457756214	57
1	3309	1275.991275908416	57
1	3313	1276.506703733093	56
1	3315	1277.43617498674	56
1	3317	1278.44238554505	57
1	3319	1278.704062982663	58
1	3320	1279.222104224699	58
1	3322	1280.106821483094	58
1	3324	1280.515820978606	59
1	3328	1281.477797161841	59
1	3330	1281.525440486559	59
1	3335	1283.809105853909	60
1	3336	1284.294894023226	60
1	3337	1284.778479086457	59
1	3344	1286.351949324136	58
1	3345	1286.504834792795	57
1	3349	1287.644983315643	57
1	3351	1287.767606466851	58
1	3354	1288.593407285779	59
1	3355	1290.236683512049	59
1	3356	1290.447875918113	58
1	3358	1290.826126467383	58
1	3359	1292.128543931397	58
1	3360	1293.017005657682	57
1	3361	1293.485194042374	56
1	3362	1294.241451206895	55
1	3363	1294.451737471999	54
1	3365	1295.116195972941	54
1	3369	1296.789398513889	54
1	3370	1297.077231873878	53
1	3371	1297.384183800204	52
1	3376	1298.222956972362	52
1	3377	1298.967117652524	52
1	3378	1299.007053663162	51
1	3382	1300.243484770377	50
1	3383	1300.787132511464	49
1	3387	1301.783181725848	49
1	3393	1302.809519383667	50
1	3400	1303.638760691422	50
1	3402	1304.009988047561	50
1	3404	1306.283942484304	51
1	3406	1307.734603460864	52
1	3407	1308.279299908644	52
1	3413	1310.184830106243	52
1	3416	1311.520803168799	53
1	3420	1311.634758647697	54
1	3429	1313.859295970989	55
1	3436	1316.151119176588	56
1	3440	1316.887802672424	57
1	3444	1318.478609790388	58
1	3447	1318.75247934539	59
1	3448	1319.170791348253	59
1	3453	1320.15460638727	59
1	3454	1320.48008504988	59
1	3455	1321.777907447869	58
1	3457	1322.01413057634	58
1	3458	1322.285635868657	58
1	3462	1323.787889194464	57
1	3463	1324.011414992928	56
1	3464	1324.415683077881	55
1	3466	1325.583628558222	55
1	3468	1325.625532362563	56
1	3469	1326.022444616986	56
1	3473	1327.446891284682	55
1	3475	1328.888329863396	55
1	3476	1329.84818114358	55
1	3478	1330.562570958672	55
1	3480	1331.076122079563	56
1	3482	1332.053980758782	57
1	3483	1333.301206608682	57
1	3485	1333.581031507795	57
1	3486	1334.892546859733	57
1	3490	1335.760426206898	56
1	3492	1336.27781717825	56
1	3496	1339.098372590112	56
1	3497	1339.372562444936	55
1	3499	1340.475879928741	55
1	3504	1341.431771881704	56
1	3506	1342.161416881	57
1	3507	1342.942754578272	57
1	3509	1344.540211060899	57
1	3513	1346.849962659748	57
1	3517	1349.054727552753	56
1	3519	1349.27386810152	56
1	3523	1350.879478534767	56
1	3525	1355.35304587768	56
1	3532	1357.590130287916	57
1	3535	1359.366912334227	58
1	3536	1359.790803067778	58
1	3537	1359.870503676774	57
1	3538	1360.581538393392	56
1	3539	1362.763355740782	55
1	3541	1362.967492684676	55
1	3543	1363.521061102665	56
1	3545	1363.650279055781	57
1	3552	1365.514132370791	58
1	3554	1365.617940896243	59
1	3556	1365.995505882179	59
1	3558	1366.566299985652	59
1	3559	1367.119460986976	59
1	3561	1367.169448243106	59
1	3563	1367.248192457477	60
1	3564	1367.342743690476	60
1	3565	1367.472298924657	59
1	3566	1367.740045492268	58
1	3568	1368.858311064626	58
1	3569	1369.202063452229	58
1	3570	1369.325990871012	57
1	3572	1369.442182227494	57
1	3573	1369.883771030355	57
1	3574	1371.429763760578	56
1	3575	1372.327507725545	55
1	3576	1373.05273642084	54
1	3580	1373.818457847186	53
1	3584	1376.813072969717	52
1	3585	1378.424104426267	51
1	3587	1378.593943523331	51
1	3588	1378.811893122437	51
1	3590	1379.655010018227	51
1	3591	1380.19320266158	51
1	3592	1380.369871202787	50
1	3596	1382.900521403257	49
1	3601	1383.475588914847	49
1	3611	1385.273468093757	49
1	3613	1386.013192999218	49
1	3614	1386.303172365427	49
1	3622	1387.077532670214	49
1	3624	1387.85065469949	50
1	3625	1388.036389720802	50
1	3627	1390.543289393969	50
1	3628	1390.870936538681	50
1	3635	1390.986075055816	50
1	3641	1394.055821927607	51
1	3642	1396.377254642615	51
1	3643	1397.813970665459	50
1	3645	1398.748455131774	50
1	3646	1398.95451432921	50
1	3647	1399.308251820313	49
1	3648	1400.900158790115	48
1	3653	1401.668974815578	48
1	3655	1402.51376883657	49
1	3657	1402.784332110984	50
1	3658	1403.562574865472	50
1	3662	1404.831230778723	49
1	3664	1404.961738230411	49
1	3665	1405.151339882371	49
1	3669	1405.581454195911	49
1	3674	1408.105601501041	49
1	3675	1408.177832538521	48
1	3677	1408.179585856297	48
1	3679	1408.572222967176	49
1	3680	1408.84729013398	49
1	3684	1409.247635986957	48
1	3686	1409.804965038415	48
1	3687	1411.093966139261	48
1	3692	1413.21006411782	48
1	3693	1413.585905618776	48
1	3694	1413.878456314101	47
1	3699	1414.401827636482	47
1	3700	1414.452904402793	47
1	3707	1416.30821579411	47
1	3710	1417.482864617755	48
1	3712	1417.675704512601	49
1	3714	1418.023618450405	50
1	3716	1418.057338072468	51
1	3717	1419.43504965275	51
1	3721	1421.263307544062	51
1	3724	1423.653618476661	52
1	3725	1425.361727056083	52
1	3726	1425.632703603378	51
1	3730	1427.5110378782	51
1	3733	1429.503690392065	52
1	3734	1429.671077785425	52
1	3736	1429.930199585281	52
1	3738	1431.920059421911	53
1	3739	1432.652681839936	53
1	3741	1433.39262283183	53
1	3743	1434.38380133109	54
1	3745	1435.258607425978	55
1	3746	1435.717484160147	55
1	3754	1438.980518173472	55
1	3756	1439.404141178248	56
1	3760	1440.594730142147	56
1	3761	1441.353223934498	55
1	3763	1441.776371337475	55
1	3765	1442.708501440383	56
1	3766	1442.734035143324	56
1	3768	1445.018966323306	56
1	3769	1446.677945348551	56
1	3774	1447.070244663807	56
1	3775	1447.640132056773	56
1	3777	1447.723807389543	56
1	3787	1452.365301608543	56
1	3788	1453.135598299186	55
1	3790	1455.400332614412	55
1	3791	1455.442728538885	55
1	3795	1456.104194561674	54
1	3797	1456.94837622287	54
1	3801	1457.21558106233	54
1	3803	1458.994384473758	54
1	3811	1462.646931924092	55
1	3812	1462.687966212796	55
1	3816	1463.960458345447	54
1	3818	1464.050770528221	54
1	3820	1464.145828727411	55
1	3821	1465.142356990654	55
1	3828	1466.72849816535	54
1	3829	1467.869225705561	53
1	3843	1470.05536974135	53
1	3844	1473.002086865035	53
1	3845	1473.236843752584	52
1	3846	1474.902402940273	51
1	3847	1475.587528951742	50
1	3848	1476.317685429798	49
1	3849	1476.887021573375	48
1	3851	1477.064077896814	48
1	3852	1479.1760814259	48
1	3853	1480.297174927767	47
1	3854	1480.436652713105	46
1	3858	1481.267365052499	45
1	3871	1486.228491582323	44
1	3872	1486.265028107587	43
1	3873	1486.996768362659	42
1	3877	1487.625196596478	41
1	3879	1487.91919438141	41
1	3880	1488.413948661958	41
1	3881	1489.65274376849	40
1	3882	1489.738076933547	39
1	3883	1489.86444302281	38
1	3885	1489.922962134403	38
1	3886	1489.955020593513	38
1	3890	1492.727413445958	37
1	3892	1494.09057275055	37
1	3897	1495.605788218379	38
1	3898	1496.946378842891	38
1	3899	1498.660715153505	37
1	3900	1498.747888348325	36
1	3905	1499.518980172321	36
1	3907	1499.807364598452	37
1	3909	1500.8018404837	38
1	3910	1500.875605408072	38
1	3911	1501.602345309884	37
1	3916	1502.9470683755	37
1	3917	1503.355916286294	37
1	3918	1503.501185432908	36
1	3928	1507.545741919246	35
1	3929	1509.173746707425	34
1	3930	1510.076538359486	33
1	3931	1511.045940127965	32
1	3935	1511.47267313784	32
1	3937	1512.961685479031	32
1	3938	1514.027497963353	31
1	3939	1514.22941830912	30
1	3941	1514.607086801375	30
1	3942	1515.880394221865	30
1	3943	1516.338839008133	29
1	3944	1516.502015611416	28
1	3945	1516.652383599697	27
1	3946	1517.224891385002	26
1	3948	1517.75150622568	26
1	3949	1518.213200081417	26
1	3950	1518.785157462193	25
1	3951	1518.804908986236	24
1	3952	1519.005668798454	23
1	3956	1520.318314621068	22
1	3958	1520.473716807947	22
1	3959	1522.11167740104	22
1	3960	1522.699312970569	21
1	3962	1522.822390752677	21
1	3964	1522.968822470952	22
1	3965	1523.24097345896	22
1	3970	1523.709527086161	22
1	3971	1524.219591236983	22
1	3973	1524.943061731002	22
1	3977	1526.91454611257	22
1	3979	1527.482568767401	22
1	3983	1528.646851735129	22
1	3985	1529.502394958665	22
1	3986	1529.78474336916	22
1	3991	1531.793657735238	22
1	3996	1533.183754900141	23
1	3998	1533.406744838053	24
1	4000	1533.769288762944	25
1	4001	1533.774053042315	25
1	4002	1534.055969443974	24
1	4004	1534.095091147543	24
1	4005	1534.099745870923	24
1	4010	1535.012996360776	24
1	4012	1535.375452437483	25
1	4013	1535.826093670162	25
1	4018	1536.889948824538	25
1	4019	1537.950039344692	25
1	4024	1540.253093581292	25
1	4028	1542.243997633819	25
1	4039	1543.033513110925	25
1	4049	1544.396500915078	26
1	4051	1545.240781677725	27
1	4056	1547.536315520681	27
1	4064	1549.789934191743	27
1	4068	1550.799951490502	28
1	4071	1551.705428311366	29
1	4076	1553.786865763003	30
1	4078	1554.20649409374	31
1	4082	1555.477558948516	31
1	4083	1555.590632756558	30
1	4090	1558.284203898633	29
1	4091	1558.58181200731	28
1	4092	1558.768799467057	27
1	4093	1559.150560852325	26
1	4095	1559.801747366108	26
1	4096	1559.90010812872	26
1	4098	1560.251976143933	26
1	4100	1560.414863554975	27
1	4101	1560.660040325173	27
1	4103	1561.052944381274	27
1	4105	1561.310671203913	28
1	4109	1563.807923322008	28
1	4111	1563.995781284709	28
1	4112	1564.958253572645	28
1	4113	1566.540931093219	27
1	4117	1568.211653148208	26
1	4121	1569.724970857629	25
1	4122	1572.71257285073	24
1	4123	1572.861849192679	23
1	4125	1574.431798975619	23
1	4126	1574.44448938812	23
1	4127	1575.741278995416	22
1	4134	1577.478832079366	21
1	4136	1577.61408888301	21
1	4137	1577.682298143264	21
1	4138	1577.812738766469	20
1	4142	1578.245265714961	19
1	4144	1579.336304675785	19
1	4150	1580.377670773715	20
1	4153	1581.324327937466	21
1	4158	1583.676612165603	22
1	4160	1583.702085948129	23
1	4169	1586.11025352624	24
1	4170	1586.498795844681	24
1	4174	1587.620591488187	23
1	4175	1588.261105976934	22
1	4179	1588.806794411685	21
1	4180	1589.708005733072	20
1	4181	1589.826856274718	19
1	4186	1591.077496403759	19
1	4187	1591.624628942811	19
1	4188	1591.939792140014	18
1	4190	1592.177455306214	18
1	4192	1592.40945354913	19
1	4194	1592.842661511776	20
1	4196	1592.872640940261	21
1	4201	1593.197666324284	22
1	4202	1594.324362388725	22
1	4203	1594.598492534506	21
1	4205	1595.201681719771	21
1	4207	1595.746728460571	22
1	4209	1597.713967367841	23
1	4211	1598.771869530213	24
1	4215	1603.262507701088	24
1	4216	1603.378665231039	23
1	4221	1604.799824610526	23
1	4226	1605.292780637784	24
1	4227	1606.101405330475	24
1	4228	1606.131528268134	23
1	4232	1606.287446239345	23
1	4234	1608.20147330276	23
1	4236	1608.321923361636	23
1	4240	1609.797562860484	23
1	4241	1610.229535135929	22
1	4242	1610.595432133895	21
1	4243	1610.871069057251	20
1	4244	1610.940159553466	19
1	4251	1612.377255721071	19
1	4253	1612.700078390527	19
1	4258	1613.324663085674	19
1	4259	1615.024736346096	19
1	4260	1615.168101411315	18
1	4262	1616.042086337842	18
1	4263	1616.220173291039	18
1	4265	1617.661557317727	18
1	4267	1618.022091900939	19
1	4268	1619.382216384214	19
1	4272	1620.277707966661	18
1	4273	1620.33309510055	17
1	4277	1620.717106394159	17
1	4279	1620.866892942408	17
1	4280	1621.316799184017	16
1	4282	1621.749247557451	16
1	4284	1622.267646741373	17
1	4286	1623.06236702144	18
1	4287	1623.493741529828	18
1	4289	1623.660817000186	18
1	4290	1623.725122971202	18
1	4292	1623.752999732292	18
1	4296	1626.450350507141	18
1	4298	1627.120789546306	18
1	4300	1629.61637718854	19
1	4302	1630.954124217085	20
1	4304	1632.941830828002	21
1	4306	1635.941568717252	22
1	4310	1639.030220162126	22
1	4314	1639.796129485576	21
1	4318	1641.940154683387	21
1	4320	1642.486301227928	21
1	4327	1643.508546591588	21
1	4332	1644.055940226369	22
1	4334	1644.226552958768	23
1	4336	1645.855140036121	23
1	4337	1646.033417587729	22
1	4338	1646.551820617394	21
1	4342	1647.048670951867	21
1	4345	1647.772547589866	22
1	4347	1648.479216821992	23
1	4349	1648.751889070481	24
1	4350	1648.835668282576	24
1	4352	1649.806768125187	24
1	4353	1651.335097467998	24
1	4357	1654.353264512213	23
1	4358	1654.57555546216	22
1	4360	1655.436477553515	22
1	4364	1657.826190885285	22
1	4369	1658.511315315398	22
1	4370	1658.569461271318	22
1	4376	1659.497929300964	22
1	4380	1660.533950617185	23
1	4385	1661.875074065448	24
1	4389	1663.754357791186	24
1	4391	1665.620613489475	24
1	4393	1666.256370946345	25
1	4394	1666.348654755396	25
1	4395	1667.885039710956	24
1	4396	1667.927458265413	23
1	4398	1669.39352716617	23
1	4400	1670.407144571465	24
1	4402	1671.059382180222	25
1	4403	1671.89297141621	25
1	4404	1672.854771567557	24
1	4405	1673.896049669455	23
1	4407	1674.34436835514	23
1	4409	1674.858244710325	24
1	4413	1675.319841385973	25
1	4415	1680.107691962703	25
1	4417	1680.214511553634	25
1	4419	1680.517418408665	26
1	4421	1681.160181281315	27
1	4422	1681.568793344341	27
1	4423	1681.582235636604	26
1	4425	1682.035779064095	26
1	4429	1682.633597308206	26
1	4430	1682.86980616432	25
1	4432	1684.223825625146	25
1	4433	1684.676684012712	25
1	4434	1685.505019089322	24
1	4436	1685.54885478277	24
1	4437	1685.581592681206	24
1	4438	1685.716613742217	23
1	4440	1686.862490946063	23
1	4441	1686.912860549373	23
1	4443	1687.329594194307	23
1	4445	1688.027332597751	24
1	4446	1689.522701833883	24
1	4447	1689.997004319926	23
1	4448	1691.387677418161	22
1	4450	1692.15902124161	22
1	4452	1692.284131976844	23
1	4454	1692.544070282032	24
1	4458	1693.053192287701	25
1	4460	1693.604340069079	25
1	4468	1698.994874786735	25
1	4469	1700.476188136329	25
1	4470	1700.559448064378	24
1	4472	1701.115814686563	24
1	4473	1701.385839161427	24
1	4475	1701.709199765203	24
1	4479	1702.346383521445	25
1	4481	1702.570571472671	26
1	4489	1705.105308612294	26
1	4490	1705.707752013355	25
1	4492	1705.712811742937	25
1	4493	1705.757790139849	25
1	4494	1706.382106542002	24
1	4496	1707.214266372298	24
1	4497	1709.012103632506	24
1	4498	1710.16139287723	23
1	4500	1710.420092764933	23
1	4502	1710.783048567006	24
1	4504	1711.584286364288	25
1	4506	1711.916833382042	26
1	4507	1712.281193815765	26
1	4508	1712.387767453577	25
1	4510	1714.117134208633	25
1	4512	1714.136532610531	26
1	4514	1714.170019549869	27
1	4515	1714.181920822687	27
1	4517	1714.466038381308	27
1	4518	1714.896563986676	27
1	4519	1716.144209765522	26
1	4527	1718.275257039668	26
1	4529	1718.387910939822	27
1	4531	1718.412418790794	28
1	4532	1720.399929728606	28
1	4533	1720.576546475794	27
1	4534	1722.066656330042	26
1	4536	1722.331842570091	26
1	4538	1723.410587790302	27
1	4540	1723.960999888356	28
1	4541	1723.984511547613	28
1	4542	1724.740031393948	27
1	4543	1724.752752649314	26
1	4545	1725.279668105739	26
1	4547	1726.435331798286	27
1	4548	1727.236228819451	27
1	4549	1728.375601862657	26
1	4551	1729.42753660768	26
1	4552	1729.432394630307	26
1	4554	1731.335305623975	26
1	4555	1732.40974959523	26
1	4557	1732.737758320876	26
1	4570	1736.354059928225	27
1	4572	1737.683061458256	27
1	4582	1741.822188391239	26
1	4586	1743.049802897605	25
1	4587	1743.707131428494	24
1	4588	1744.23233245444	23
1	4593	1747.811935661964	23
1	4595	1748.294900280358	24
1	4597	1749.178950181785	25
1	4598	1750.320041648743	25
1	4600	1750.889018223023	25
1	4604	1751.517909960523	26
1	4607	1752.98388817596	27
1	4611	1753.598478991279	27
1	4617	1754.687495329273	27
1	4624	1756.777209341373	28
1	4625	1757.29489863428	28
1	4626	1757.713483443541	27
1	4628	1758.65909787521	27
1	4630	1761.411760916039	28
1	4635	1761.753795316499	29
1	4643	1763.711320990542	30
1	4644	1763.759741788327	30
1	4645	1764.800571661595	29
1	4646	1768.30163314634	28
1	4648	1768.589419121664	28
1	4650	1769.376809860606	29
1	4652	1769.956305741781	30
1	4654	1770.047811577959	31
1	4656	1770.850190479093	32
1	4658	1770.978684524904	33
1	4662	1773.116016375144	33
1	4664	1773.454036405752	33
1	4666	1773.917700840837	34
1	4668	1774.634000237944	35
1	4670	1774.880040875591	36
1	4680	1776.927842872598	36
1	4688	1778.617089670952	36
1	4698	1780.354205947194	37
1	4702	1780.844612746532	38
1	4706	1781.954560497006	39
1	4708	1782.048419539679	40
1	4709	1785.258264846504	40
1	4710	1785.515044291024	39
1	4711	1785.803006268653	38
1	4712	1786.642182561092	37
1	4723	1790.741850552283	37
1	4724	1790.79442342697	37
1	4729	1791.962456516926	37
1	4731	1793.645726264027	38
1	4732	1794.247941418894	38
1	4734	1794.330020139706	38
1	4736	1794.845419936443	39
1	4737	1794.860404688305	39
1	4747	1798.671772002021	38
1	4749	1798.978907071087	38
1	4750	1799.620340075227	38
1	4752	1799.739621675109	38
1	4760	1801.69595699823	39
1	4762	1803.275934924407	40
1	4763	1803.857798502656	40
1	4764	1804.280001972099	39
1	4765	1804.903138038998	38
1	4766	1805.609554045562	37
1	4768	1806.454046950891	37
1	4769	1806.752066558897	37
1	4770	1806.876284101753	36
1	4771	1807.108645894599	35
1	4773	1807.327843815098	35
1	4775	1808.612812390358	36
1	4777	1808.792656778186	37
1	4779	1808.954917381615	38
1	4781	1810.051258414632	39
1	4783	1810.592810273077	40
1	4784	1811.275753174869	40
1	4786	1811.29478918944	40
1	4790	1813.364403238182	40
1	4792	1813.65952581571	40
1	4796	1814.842109978504	40
1	4801	1815.121510676619	40
1	4805	1815.168724872619	41
1	4807	1815.257363846163	41
1	4808	1815.362694861911	40
1	4812	1816.945583654538	40
1	4818	1818.019773957264	41
1	4826	1822.502771570371	42
1	4830	1822.821608786168	43
1	4833	1823.405399692582	44
1	4834	1823.552377935266	44
1	4836	1824.45572785028	44
1	4837	1825.673236650763	44
1	4838	1825.859869177084	43
1	4840	1825.952877617978	43
1	4841	1826.212261285925	43
1	4848	1827.818645971414	42
1	4850	1827.845222500425	42
1	4851	1827.964417145513	42
1	4852	1828.383316863922	41
1	4853	1830.046495352663	40
1	4854	1831.355830800987	39
1	4858	1832.540502214845	38
1	4860	1833.092194875936	38
1	4861	1833.112935938015	38
1	4862	1833.516374863652	37
1	4863	1834.34194854428	36
1	4865	1834.991816659241	36
1	4869	1835.645547198651	37
1	4871	1835.756570458561	38
1	4873	1835.867373887585	38
1	4875	1836.46707455404	38
1	4876	1838.227645080733	38
1	4878	1838.73591269367	38
1	4879	1839.02851385137	38
1	4880	1839.551003458597	37
1	4881	1840.406375547837	36
1	4883	1841.295323962821	36
1	4884	1841.575448053911	36
1	4886	1841.841664312024	36
1	4888	1842.473190562441	37
1	4890	1842.929820591085	38
1	4895	1845.246631066807	39
1	4896	1845.500466667507	39
1	4898	1845.813896351951	39
1	4900	1846.380017189367	40
1	4907	1846.897554506708	41
1	4909	1847.791614445761	41
1	4914	1848.96999216676	41
1	4915	1849.521041174106	41
1	4917	1850.917875312581	41
1	4918	1853.009837803754	41
1	4919	1853.880714994158	40
1	4921	1854.187372754303	40
1	4922	1854.609522489768	40
1	4923	1854.763960795153	39
1	4927	1855.734792101713	39
1	4932	1858.247760227094	40
1	4935	1858.429224443787	41
1	4939	1860.622748441175	41
1	4940	1861.067407194876	40
1	4942	1861.495471480534	40
1	4943	1862.412548412005	40
1	4945	1863.170127673381	40
1	4947	1863.279383726784	41
1	4949	1863.65701087166	42
1	4950	1863.888088893874	42
1	4960	1867.305327872304	41
1	4961	1868.250592078337	40
1	4965	1870.236077636505	39
1	4967	1870.387145687935	39
1	4971	1870.646252224464	39
1	4973	1870.901871017593	39
1	4975	1871.773500035349	40
1	4977	1873.455986710694	41
1	4981	1874.812974322569	42
1	4984	1875.88831870273	43
1	4988	1877.143058682133	43
1	4989	1878.706556513282	42
1	4990	1879.352580852088	41
1	4991	1882.900674199676	40
1	4992	1883.696061643064	39
1	4993	1884.226298371356	38
1	4994	1886.182259466041	37
1	4996	1886.381384922798	37
1	4997	1887.154344295496	37
1	4998	1887.766976987051	36
1	5000	1887.845827587569	36
1	5005	1891.631821675628	37
1	5006	1892.161632199727	37
1	5008	1892.288687991712	37
1	5009	1892.333540651048	37
1	5016	1893.924692364777	36
1	5021	1895.601821560995	36
1	5023	1896.144247678743	37
1	5027	1896.772906855927	38
1	5029	1898.14105169608	38
1	5030	1898.521307181542	37
1	5032	1899.589301924387	37
1	5036	1902.009724220684	37
1	5037	1902.684983518649	36
1	5039	1902.947258836845	36
1	5043	1903.730446781077	37
1	5046	1904.317743513595	38
1	5048	1904.548943549533	39
1	5053	1905.779740284701	40
1	5057	1906.506346930834	40
1	5059	1906.976355276099	40
1	5060	1907.262970970127	40
1	5064	1907.293941170382	40
1	5067	1907.763555291948	41
1	5068	1909.456235235852	41
1	5069	1910.851670421065	40
1	5074	1911.550348464643	40
1	5076	1912.908297583364	41
1	5078	1913.462239612728	42
1	5080	1913.913997967668	43
1	5082	1914.106918369033	44
1	5084	1914.390712198589	45
1	5085	1915.156901715129	45
1	5086	1915.286561050015	44
1	5088	1918.286890765133	44
1	5090	1918.957620556099	45
1	5091	1920.25614126103	45
1	5093	1920.715845399138	45
1	5094	1921.725414603631	45
1	5098	1922.561898478299	45
1	5100	1922.809683394902	45
1	5102	1923.487605304324	45
1	5104	1924.547414049047	46
1	5108	1928.66582573175	47
1	5113	1930.758415540894	47
1	5120	1932.165668761381	47
1	5123	1933.971158731116	48
1	5130	1936.357205712986	48
1	5132	1936.498374468883	48
1	5134	1938.853413924975	49
1	5135	1939.290343430957	49
1	5139	1940.194814210978	48
1	5140	1940.281447397817	47
1	5142	1940.717002058542	47
1	5144	1941.146456938998	48
1	5145	1941.150139962335	48
1	5147	1942.60080446065	48
1	5148	1942.710254585095	48
1	5156	1945.514852642892	48
1	5172	1949.848121562461	48
1	5174	1950.844611917947	48
1	5175	1951.26461296052	48
1	5179	1953.892503495063	47
1	5181	1954.215007130548	47
1	5182	1954.899307719074	47
1	5184	1955.822309967459	47
1	5186	1956.130486231587	48
1	5190	1957.391512812585	49
1	5195	1959.227821102164	49
1	5197	1961.990437437423	49
1	5199	1962.593516893176	50
1	5203	1964.042440577518	51
1	5208	1966.095869432343	51
1	5212	1969.427601560585	50
1	5219	1970.990199838421	50
1	5221	1970.994419085768	51
1	5227	1974.029481257903	52
1	5228	1974.528001992479	52
1	5232	1976.788253039222	52
1	5235	1977.900038275336	53
1	5236	1978.112505603283	53
1	5238	1978.388593958494	53
1	5239	1978.604189883762	53
1	5240	1979.301245044498	52
1	5241	1980.344021706687	51
1	5242	1980.691631043735	50
1	5249	1982.772405116219	49
1	5251	1982.840360259302	49
1	5258	1984.877342811413	49
1	5259	1984.990376397469	48
[...]
10	2672	1042.102126465368	42.681340051474
10	2695	1051.174984140266	45.013762325875
10	2698	1052.06362395582	43.793287104979
10	2704	1054.371111974575	45.390141341249
10	2712	1057.838094538967	45.597248919447
10	2719	1061.767950980825	41.158034693461
10	2736	1066.553480190804	40.172097725232
10	2750	1069.777720994952	29.019257261088
10	2756	1071.78156621226	28.624105088085
10	2775	1075.186744936624	28.480774255812
10	2782	1078.414421387374	29.570608162467
10	2798	1083.937261348633	31.116848366225
10	2809	1088.553961777165	33.342412502211
10	2821	1090.801391332708	28.988404663177
10	2855	1104.098212352948	37.275433729953
10	2861	1105.115178896957	36.841144989667
10	2862	1105.797532913015	37.294897374893
10	2886	1117.969768287089	46.096832068767
10	2890	1123.249922497867	50.830469814838
10	2891	1125.213091873085	51.861518419401
10	2892	1125.227165446562	51.205684343984
10	2893	1126.690625020467	51.477016412542
10	2941	1139.608270200241	51.658128072302
10	2944	1139.675761440758	50.854773139037
10	2977	1151.172324761887	56.436468630238
10	2978	1152.913768918569	55.814311799618
10	2979	1153.589769646231	55.247255388959
10	2980	1154.67818812934	55.728333400781
10	2992	1160.330198396305	56.755208682421
10	2993	1161.426873018294	57.349791473662
10	2994	1164.419868600785	60.182009952616
10	3000	1167.786582219765	61.571353679159
10	3001	1168.989259953906	62.321019989648
10	3022	1173.41710138813	59.59073682973
10	3025	1174.442224156049	58.315147805498
10	3033	1175.558884333306	48.832580072389
10	3034	1176.024497694362	47.610255248735
10	3051	1178.57218040171	48.657911749041
10	3052	1178.849163145076	47.671571991591
10	3053	1179.421068294902	47.304568111338
10	3057	1179.954999386873	46.448787477768
10	3060	1182.817703009393	49.004435437171
10	3064	1185.297804305423	48.974287214033
10	3067	1187.690268649565	50.990596740219
10	3068	1188.436419301947	51.617989459789
10	3073	1191.408604066793	53.677244611724
10	3074	1191.631040884055	53.706737259607
10	3080	1193.523380291959	54.926518701137
10	3081	1195.312144860652	55.698198767483
10	3100	1203.632610306109	63.080313720284
10	3101	1204.000208693848	62.730369125169
10	3112	1207.251812867845	64.989333931862
10	3113	1208.164745192192	65.293188680501
10	3116	1208.567701455857	63.930428587114
10	3117	1208.881682364566	63.887864055034
10	3120	1209.980815418028	63.001909104144
10	3126	1211.491233303694	63.203807614311
10	3131	1212.87525438839	55.794476605755
10	3132	1213.086719322894	55.181187251089
10	3138	1214.704353577441	49.317044371584
10	3141	1216.731159129597	50.793930547939
10	3146	1219.481617487827	50.293347641109
10	3165	1227.590180927696	57.434357753039
10	3166	1231.986145291959	61.336932699338
10	3175	1236.255058452899	62.73663583779
10	3189	1239.958647382265	64.980852312077
10	3193	1240.809321965961	64.509646253753
10	3200	1243.99408075467	64.472128045848
10	3203	1246.567179421764	64.716224911774
10	3206	1246.743215729755	63.48468075732
10	3207	1247.482395383002	61.373324696351
10	3231	1253.939018323819	57.650915476048
10	3234	1254.481950736868	54.877779575729
10	3271	1266.7546726732	64.769738287399
10	3297	1272.750406334169	65.888261887979
10	3309	1275.991275908416	66.617777926791
10	3313	1276.506703733093	65.463394334874
10	3320	1279.222104224699	66.529633135857
10	3328	1281.477797161841	67.956533238376
10	3336	1284.294894023226	69.439683011985
10	3337	1284.778479086457	67.396081866913
10	3344	1286.351949324136	66.537814645143
10	3345	1286.504834792795	66.210357024179
10	3355	1290.236683512049	65.298630833536
10	3356	1290.447875918113	65.206078755858
10	3359	1292.128543931397	66.77103912124
10	3360	1293.017005657682	65.861336534156
10	3361	1293.485194042374	66.264731785972
10	3362	1294.241451206895	61.595455780217
10	3363	1294.451737471999	60.45318255769
10	3369	1296.789398513889	59.671656549702
10	3370	1297.077231873878	58.840216737102
10	3371	1297.384183800204	59.088822976902
10	3377	1298.967117652524	60.254953612257
10	3378	1299.007053663162	59.776165598833
10	3382	1300.243484770377	59.102369924357
10	3383	1300.787132511464	57.958992422596
10	3400	1303.638760691422	55.444210698961
10	3407	1308.279299908644	58.173310158776
10	3448	1319.170791348253	66.026735317825
10	3454	1320.48008504988	64.923871809991
10	3455	1321.777907447869	66.015205563198
10	3458	1322.285635868657	59.071154290974
10	3462	1323.787889194464	56.578459535567
10	3463	1324.011414992928	56.465220823878
10	3464	1324.415683077881	56.604561458536
10	3469	1326.022444616986	57.298292164069
10	3473	1327.446891284682	57.381044824423
10	3476	1329.84818114358	59.569905721502
10	3483	1333.301206608682	62.80542835639
10	3486	1334.892546859733	61.791564847605
10	3490	1335.760426206898	60.643069994968
10	3496	1339.098372590112	63.695914833898
10	3497	1339.372562444936	63.285987569543
10	3507	1342.942754578272	64.500369033222
10	3513	1346.849962659748	66.743141176654
10	3517	1349.054727552753	68.459674504274
10	3523	1350.879478534767	67.737858133952
10	3536	1359.790803067778	72.309365869749
10	3537	1359.870503676774	72.225520361131
10	3538	1360.581538393392	72.813931926541
10	3539	1362.763355740782	74.169948455003
10	3556	1365.995505882179	70.879309909238
10	3559	1367.119460986976	71.645693593829
10	3564	1367.342743690476	69.784376982701
10	3565	1367.472298924657	69.249341952295
10	3566	1367.740045492268	68.169759638892
10	3569	1369.202063452229	68.197182322424
10	3570	1369.325990871012	67.542809145164
10	3573	1369.883771030355	67.930591086932
10	3574	1371.429763760578	68.620244376911
10	3575	1372.327507725545	69.482272787923
10	3576	1373.05273642084	69.777910581138
10	3580	1373.818457847186	67.534515362882
10	3584	1376.813072969717	68.487432302784
10	3585	1378.424104426267	68.239274320024
10	3588	1378.811893122437	67.291089953638
10	3591	1380.19320266158	68.558444013883
10	3592	1380.369871202787	66.692578078888
10	3596	1382.900521403257	68.548790364763
10	3611	1385.273468093757	66.794858303369
10	3614	1386.303172365427	67.550693020037
10	3625	1388.036389720802	66.022259144462
10	3628	1390.870936538681	67.698810057285
10	3642	1396.377254642615	69.731444946127
10	3643	1397.813970665459	68.925640802063
10	3646	1398.95451432921	68.391943370538
10	3647	1399.308251820313	68.23212974075
10	3648	1400.900158790115	68.846178031333
10	3658	1403.562574865472	68.531517367576
10	3662	1404.831230778723	68.36421704832
10	3665	1405.151339882371	64.67545995363
10	3674	1408.105601501041	65.944184620041
10	3675	1408.177832538521	63.637621477622
10	3680	1408.84729013398	63.084758415335
10	3684	1409.247635986957	59.973767885437
10	3687	1411.093966139261	61.730262616227
10	3693	1413.585905618776	57.977677008288
10	3694	1413.878456314101	56.900657478028
10	3700	1414.452904402793	55.085992068566
10	3717	1419.43504965275	55.784770596969
10	3725	1425.361727056083	59.847594685292
10	3726	1425.632703603378	60.014762707135
10	3734	1429.671077785425	62.501629542319
10	3739	1432.652681839936	65.404489382459
10	3746	1435.717484160147	66.859173095521
10	3760	1440.594730142147	67.509333297174
10	3761	1441.353223934498	67.525080877823
10	3766	1442.734035143324	64.140091619993
10	3769	1446.677945348551	67.022935330324
10	3775	1447.640132056773	64.33502503179
10	3787	1452.365301608543	65.959789751567
10	3788	1453.135598299186	66.47171886543
10	3791	1455.442728538885	68.365195868671
10	3795	1456.104194561674	65.560905167705
10	3801	1457.21558106233	66.229506006514
10	3812	1462.687966212796	68.632144285189
10	3816	1463.960458345447	62.466958879039
10	3821	1465.142356990654	63.473382175076
10	3828	1466.72849816535	62.525228738682
10	3829	1467.869225705561	62.90748747515
10	3844	1473.002086865035	67.420632669124
10	3845	1473.236843752584	66.727591799235
10	3846	1474.902402940273	66.722817083976
10	3847	1475.587528951742	67.015305984566
10	3848	1476.317685429798	67.40583387933
10	3849	1476.887021573375	67.08205653496
10	3852	1479.1760814259	67.951462250736
10	3853	1480.297174927767	67.087110809947
10	3854	1480.436652713105	66.440449626362
10	3858	1481.267365052499	66.078548243902
10	3871	1486.228491582323	69.920275788213
10	3872	1486.265028107587	68.782163489832
10	3873	1486.996768362659	69.321063850058
10	3877	1487.625196596478	69.56785852401
10	3880	1488.413948661958	68.037712869089
10	3881	1489.65274376849	68.389436224428
10	3882	1489.738076933547	66.084458456886
10	3883	1489.86444302281	63.159386629053
10	3886	1489.955020593513	62.443982715313
10	3890	1492.727413445958	62.797213860677
10	3898	1496.946378842891	63.553756011061
10	3899	1498.660715153505	64.276913822415
10	3900	1498.747888348325	63.489280922347
10	3910	1500.875605408072	61.8950872346
10	3911	1501.602345309884	62.198204131636
10	3917	1503.355916286294	60.647414845911
10	3918	1503.501185432908	58.482219109602
10	3928	1507.545741919246	58.972566512326
10	3929	1509.173746707425	60.446714750943
10	3930	1510.076538359486	58.676580075794
10	3931	1511.045940127965	55.645607513553
10	3937	1512.961685479031	56.013309256161
10	3938	1514.027497963353	57.032096822743
10	3939	1514.22941830912	55.235033835362
10	3942	1515.880394221865	56.784013310101
10	3943	1516.338839008133	53.691907084041
10	3944	1516.502015611416	53.036576255913
10	3945	1516.652383599697	52.601613071476
10	3946	1517.224891385002	53.079062657591
10	3949	1518.213200081417	52.826777977253
10	3950	1518.785157462193	52.71942174996
10	3951	1518.804908986236	50.277562585175
10	3952	1519.005668798454	48.950299057104
10	3956	1520.318314621068	39.652034925518
10	3959	1522.11167740104	40.593725546541
10	3960	1522.699312970569	35.261246355162
10	3965	1523.24097345896	35.32177907755
10	3971	1524.219591236983	33.651816528793
10	3977	1526.91454611257	32.342843719019
10	3983	1528.646851735129	29.561663026817
10	3986	1529.78474336916	30.265763196839
10	4001	1533.774053042315	31.47817382272
10	4002	1534.055969443974	31.108901068474
10	4005	1534.099745870923	30.476215345236
10	4013	1535.826093670162	29.080489949218
10	4019	1537.950039344692	26.477366206852
10	4028	1542.243997633819	23.133424842621
10	4056	1547.536315520681	24.567493049729
10	4082	1555.477558948516	27.700156068605
10	4083	1555.590632756558	26.088237797893
10	4090	1558.284203898633	26.490546163395
10	4091	1558.58181200731	26.544752091403
10	4092	1558.768799467057	25.585044566916
10	4093	1559.150560852325	25.743816014272
10	4096	1559.90010812872	26.130819365776
10	4101	1560.660040325173	26.56494917763
10	4109	1563.807923322008	28.794926961232
10	4112	1564.958253572645	29.582801135162
10	4113	1566.540931093219	30.377900019108
10	4117	1568.211653148208	29.83021779241
10	4121	1569.724970857629	28.16058417692
10	4122	1572.71257285073	30.293107930982
10	4123	1572.861849192679	29.828336081754
10	4126	1574.44448938812	30.047988473042
10	4127	1575.741278995416	30.500497317691
10	4134	1577.478832079366	29.208865172008
10	4137	1577.682298143264	28.837094715767
10	4138	1577.812738766469	28.022804574726
10	4142	1578.245265714961	27.445314224459
10	4170	1586.498795844681	34.429860579691
10	4174	1587.620591488187	33.414097394447
10	4175	1588.261105976934	33.620404297638
10	4179	1588.806794411685	29.005047045577
10	4180	1589.708005733072	29.456029589139
10	4181	1589.826856274718	29.411992719743
10	4187	1591.624628942811	30.313957738898
10	4188	1591.939792140014	29.494996542677
10	4202	1594.324362388725	27.660960263223
10	4203	1594.598492534506	26.24484094416
10	4215	1603.262507701088	26.887242746877
10	4216	1603.378665231039	25.764576348029
10	4227	1606.101405330475	26.484126270529
10	4228	1606.131528268134	25.753857494419
10	4234	1608.20147330276	24.524861137157
10	4240	1609.797562860484	23.687309334244
10	4241	1610.229535135929	23.702174974544
10	4242	1610.595432133895	22.287818506833
10	4243	1610.871069057251	20.826841433242
10	4244	1610.940159553466	19.862663149707
10	4253	1612.700078390527	20.290624841397
10	4259	1615.024736346096	22.152095405835
10	4260	1615.168101411315	22.241943656571
10	4263	1616.220173291039	23.022506966755
10	4268	1619.382216384214	24.180534664443
10	4272	1620.277707966661	22.56374059882
10	4273	1620.33309510055	21.561225570337
10	4279	1620.866892942408	16.864235929743
10	4280	1621.316799184017	16.516974573491
10	4287	1623.493741529828	18.568549743872
10	4290	1623.725122971202	18.432342333418
10	4296	1626.450350507141	20.162904267796
10	4310	1639.030220162126	30.665703194875
10	4314	1639.796129485576	27.418873764505
10	4320	1642.486301227928	29.161638142254
10	4336	1645.855140036121	27.833048135182
10	4337	1646.033417587729	26.242076695602
10	4338	1646.551820617394	26.075966009258
10	4350	1648.835668282576	27.086420725125
10	4353	1651.335097467998	29.067450726625
10	4357	1654.353264512213	30.692447512027
10	4358	1654.57555546216	30.822555729868
10	4364	1657.826190885285	30.705401338979
10	4370	1658.569461271318	27.615337054233
10	4389	1663.754357791186	27.812789073934
10	4394	1666.348654755396	30.156556613327
10	4395	1667.885039710956	28.734137179374
10	4396	1667.927458265413	26.285345819603
10	4403	1671.89297141621	29.952816732823
10	4404	1672.854771567557	29.90075775579
10	4405	1673.896049669455	30.387503077867
10	4415	1680.107691962703	36.051751736334
10	4422	1681.568793344341	37.342240385573
10	4423	1681.582235636604	34.545443996735
10	4429	1682.633597308206	34.86104971834
10	4430	1682.86980616432	34.390589342328
10	4433	1684.676684012712	35.924794942231
10	4434	1685.505019089322	35.698250964135
10	4437	1685.581592681206	32.071056141816
10	4438	1685.716613742217	30.280136188702
10	4441	1686.912860549373	30.449611888257
10	4446	1689.522701833883	31.470135791223
10	4447	1689.997004319926	31.485689004528
10	4448	1691.387677418161	32.405432839671
10	4460	1693.604340069079	33.070389451894
10	4469	1700.476188136329	34.219817189984
10	4470	1700.559448064378	31.165920898208
10	4473	1701.385839161427	30.978694589962
10	4489	1705.105308612294	30.247063901969
10	4490	1705.707752013355	30.391465152473
10	4493	1705.757790139849	30.437948753876
10	4494	1706.382106542002	26.167594988368
10	4497	1709.012103632506	28.494685223841
10	4498	1710.16139287723	29.001211595915
10	4507	1712.281193815765	30.24541475167
10	4508	1712.387767453577	30.047126344361
10	4515	1714.181920822687	29.958095197541
10	4518	1714.896563986676	29.347709203906
10	4519	1716.144209765522	29.281718819459
10	4532	1720.399929728606	32.372597130855
10	4533	1720.576546475794	28.417525234184
10	4534	1722.066656330042	29.782524353198
10	4541	1723.984511547613	31.440441265581
10	4542	1724.740031393948	31.884896325817
10	4543	1724.752752649314	31.699560361613
10	4548	1727.236228819451	32.056200826863
10	4549	1728.375601862657	31.28648969056
10	4552	1729.432394630307	30.437519843572
10	4555	1732.40974959523	31.293934908667
10	4572	1737.683061458256	35.336677936811
10	4582	1741.822188391239	34.607922018941
10	4586	1743.049802897605	32.266754330599
10	4587	1743.707131428494	32.122845064206
10	4588	1744.23233245444	32.315499072398
10	4598	1750.320041648743	36.183509038212
10	4611	1753.598478991279	35.99047118819
10	4625	1757.29489863428	38.906987694458
10	4626	1757.713483443541	39.301064652747
10	4644	1763.759741788327	38.480073682588
10	4645	1764.800571661595	38.365239863309
10	4646	1768.30163314634	38.87409653866
10	4662	1773.116016375144	40.378258054268
10	4680	1776.927842872598	40.927178653938
10	4709	1785.258264846504	46.443782658635
10	4710	1785.515044291024	46.501020573654
10	4711	1785.803006268653	45.050301985217
10	4712	1786.642182561092	44.73908882314
10	4724	1790.79442342697	41.615473245185
10	4732	1794.247941418894	42.779798282289
10	4737	1794.860404688305	43.342494727782
10	4747	1798.671772002021	43.984276672748
10	4750	1799.620340075227	42.843130733854
10	4763	1803.857798502656	42.446037586617
10	4764	1804.280001972099	42.72782555132
10	4765	1804.903138038998	43.149342722499
10	4766	1805.609554045562	42.815503071889
10	4769	1806.752066558897	43.621866667358
10	4770	1806.876284101753	43.164963111211
10	4771	1807.108645894599	38.519226772935
10	4784	1811.275753174869	41.898943314263
10	4790	1813.364403238182	43.316591660223
10	4796	1814.842109978504	43.8634254536
10	4807	1815.257363846163	41.339663005326
10	4808	1815.362694861911	40.728694623967
10	4834	1823.552377935266	44.935288264314
10	4837	1825.673236650763	45.319030703569
10	4838	1825.859869177084	45.015256430552
10	4841	1826.212261285925	44.257700788919
10	4848	1827.818645971414	38.874202742152
10	4851	1827.964417145513	37.887907173807
10	4852	1828.383316863922	37.641466311639
10	4853	1830.046495352663	38.989087124682
10	4854	1831.355830800987	39.393374284061
10	4858	1832.540502214845	38.210482075139
10	4861	1833.112935938015	38.267516001572
10	4862	1833.516374863652	38.472104651511
10	4863	1834.34194854428	37.999454581561
10	4873	1835.867373887585	36.888466816498
10	4876	1838.227645080733	38.488023405624
10	4879	1839.02851385137	38.655530223428
10	4880	1839.551003458597	37.855046460367
10	4881	1840.406375547837	37.13044062343
10	4884	1841.575448053911	35.12140110302
10	4896	1845.500466667507	36.887654277149
10	4909	1847.791614445761	37.740356031129
10	4915	1849.521041174106	38.226251984666
10	4918	1853.009837803754	40.449939398364
10	4919	1853.880714994158	40.221189178448
10	4922	1854.609522489768	40.694735712564
10	4923	1854.763960795153	39.778287644876
10	4939	1860.622748441175	44.186023452368
10	4940	1861.067407194876	44.121823540338
10	4943	1862.412548412005	44.392774454741
10	4950	1863.888088893874	43.749640841638
10	4960	1867.305327872304	43.899928179722
10	4961	1868.250592078337	43.794864228057
10	4965	1870.236077636505	43.910138102727
10	4971	1870.646252224464	42.801029724039
10	4988	1877.143058682133	42.151242022892
10	4989	1878.706556513282	43.111957721687
10	4990	1879.352580852088	43.707033653437
10	4991	1882.900674199676	47.144103741115
10	4992	1883.696061643064	47.228987089024
10	4993	1884.226298371356	45.490385677686
10	4994	1886.182259466041	44.88693550322
10	4997	1887.154344295496	45.312679983472
10	4998	1887.766976987051	45.29378642461
10	5006	1892.161632199727	48.895391777056
10	5009	1892.333540651048	47.086909584241
10	5016	1893.924692364777	47.166757068646
10	5029	1898.14105169608	50.209471451239
10	5030	1898.521307181542	49.551315014782
10	5036	1902.009724220684	47.822351466381
10	5037	1902.684983518649	46.983731666923
10	5057	1906.506346930834	48.077122487047
10	5060	1907.262970970127	47.811538421866
10	5068	1909.456235235852	46.286107562471
10	5069	1910.851670421065	47.572286694281
10	5085	1915.156901715129	50.607720136655
10	5086	1915.286561050015	50.306239230785
10	5091	1920.25614126103	54.507344165328
10	5094	1921.725414603631	51.573133074201
10	5100	1922.809683394902	52.348776622703
10	5113	1930.758415540894	58.984915505545
10	5130	1936.357205712986	60.468887010256
10	5135	1939.290343430957	63.277497939382
10	5139	1940.194814210978	52.348986623409
10	5140	1940.281447397817	50.609178995321
10	5145	1941.150139962335	49.518318286707
10	5148	1942.710254585095	50.421566593383
10	5172	1949.848121562461	53.308133463728
10	5175	1951.26461296052	54.491706104593
10	5179	1953.892503495063	53.352999905625
10	5182	1954.899307719074	51.952048882229
10	5195	1959.227821102164	55.497374321087
10	5208	1966.095869432343	61.487681779518
10	5212	1969.427601560585	63.591528569779
10	5228	1974.528001992479	66.764446700531
10	5236	1978.112505603283	66.56215713864
10	5239	1978.604189883762	65.695892300398
10	5240	1979.301245044498	65.83900543177
10	5241	1980.344021706687	66.430023739019
10	5242	1980.691631043735	66.584712674702
10	5249	1982.772405116219	64.485514351086
10	5258	1984.877342811413	62.784974601734
10	5259	1984.990376397469	62.42847791917
10	5276	1991.573947122022	62.994843790571
10	5280	1992.455731301493	60.492986350933
10	5281	1992.589805017359	60.424136255978
10	5282	1992.612322666204	58.641163935088
10	5283	1992.716745386562	57.81196975777
10	5284	1993.412074286617	57.725330598469
10	5290	1994.521569951795	55.66815602682
10	5291	1996.030579839063	56.047946138432
10	5295	1996.666146231769	55.519689292771
10	5296	1997.425200827814	54.824396367164
10	5299	1999.549223480656	56.659928748391
11	5300	2000	0.473
12	5300	2000	0.3965

