file 357757 1671470928                                          
version 2
run Monotonicity_test_recover_rate-469-20221219-18:28:48-16835
attr configname Monotonicity_test_recover_rate
attr datetime 20221219-18:28:48
attr experiment Monotonicity_test_recover_rate
attr inifile omnetpp.ini
attr iterationvars $0=100
attr iterationvarsf 100-
attr measurement $0=100
attr network Network
attr processid 16835
attr repetition 69
attr replication #69
attr resultdir results
attr runnumber 469
attr seedset 69
param *.minion.arrival_mean 2
param *.minion.service_mean 1.5
param *.boss.arrival_mean 2.5
param *.boss.service_mean 0.5
param *.player.recover_rate_x 100
param **.minion.arrival_distribution 0
param **.minion.service_distribution 0
param **.boss.arrival_distribution 0
param **.boss.service_distribution 0

vector 0 Network.player minion_jobs_number_stat:vector ETV
attr source signal_minion_jobs_number
vector 1 Network.player minion_jobs_queue_number_stat:vector ETV
attr source signal_minion_jobs_queue_number
vector 2 Network.player minion_recovered_stat:vector ETV
attr source signal_minion_recovered
vector 3 Network.player minion_defeated_stat:vector ETV
attr source signal_minion_defeated
vector 4 Network.player boss_jobs_number_stat:vector ETV
attr source signal_boss_jobs_number
vector 5 Network.player boss_jobs_queue_number_stat:vector ETV
attr source signal_boss_jobs_queue_number
vector 6 Network.player boss_defeated_stat:vector ETV
attr source signal_boss_defeated
vector 7 Network.player boss_waiting_time_stat:vector ETV
attr source signal_boss_waiting_time
vector 8 Network.player boss_response_time_stat:vector ETV
attr source signal_boss_response_time
vector 9 Network.player minion_waiting_time_stat:vector ETV
attr source signal_minion_waiting_time
vector 10 Network.player minion_response_time_stat:vector ETV
attr source signal_minion_response_time
vector 11 Network.player minion_throughput:vector ETV
attr source signal_minion_throughput
vector 12 Network.player boss_throughput:vector ETV
attr source signal_boss_throughput
0	1994 26818 0 5243 0 1995.436871376473 985 0 120 60049 4679651
1	28812 51191 0 5248 0 1998.677209857422 1880 0 119 114214 8890030
2	80003 17110 0 5250 0 1999.379628690327 611 0 610 186355 75846485
3	97113 25092 0 5248 0 1998.677209857422 896 0 895 400960 239373120
4	122205 20835 0 5250 0 1999.379628690327 797 0 5 1013 1561
5	143040 41621 0 5250 0 1999.379628690327 1592 0 4 434 662
6	184661 22276 0 5246 0 1996.725928167799 796 0 795 316410 167802770
7	206937 23050 2 5250 0.544838944119 1999.379628690327 796 0 3.498961790522 94.501621486036 115.68379185551
8	229987 31040 3 5246 0.985527075703 1996.725928167799 795 0.00019982573 3.914379441186 488.31374975844 586.06547234438
9	261027 60016 8 5248 6.636219842261 1998.677209857422 1505 0 139.75571549915 113285.18037078 10793366.227959
10	321043 36673 11 5248 7.630162799872 1998.677209857422 895 0.052305809128 140.55247570498 68905.429137935 6707635.9518924
11	357716 20 5251 5251 2000 2000 1 0.4475 0.4475 0.4475 0.20025625
12	357736 20 5251 5251 2000 2000 1 0.3975 0.3975 0.3975 0.15800625

