file 353687 1671470902                                          
version 2
run Monotonicity_test_recover_rate-340-20221219-18:28:22-16183
attr configname Monotonicity_test_recover_rate
attr datetime 20221219-18:28:22
attr experiment Monotonicity_test_recover_rate
attr inifile omnetpp.ini
attr iterationvars $0=75
attr iterationvarsf 75-
attr measurement $0=75
attr network Network
attr processid 16183
attr repetition 40
attr replication #40
attr resultdir results
attr runnumber 340
attr seedset 40
param *.minion.arrival_mean 2
param *.minion.service_mean 1.5
param *.boss.arrival_mean 2.5
param *.boss.service_mean 0.5
param *.player.recover_rate_x 75
param **.minion.arrival_distribution 0
param **.minion.service_distribution 0
param **.boss.arrival_distribution 0
param **.boss.service_distribution 0

vector 0 Network.player minion_jobs_number_stat:vector ETV
attr source signal_minion_jobs_number
vector 1 Network.player minion_jobs_queue_number_stat:vector ETV
attr source signal_minion_jobs_queue_number
vector 2 Network.player minion_recovered_stat:vector ETV
attr source signal_minion_recovered
vector 3 Network.player minion_defeated_stat:vector ETV
attr source signal_minion_defeated
vector 4 Network.player boss_jobs_number_stat:vector ETV
attr source signal_boss_jobs_number
vector 5 Network.player boss_jobs_queue_number_stat:vector ETV
attr source signal_boss_jobs_queue_number
vector 6 Network.player boss_defeated_stat:vector ETV
attr source signal_boss_defeated
vector 7 Network.player boss_waiting_time_stat:vector ETV
attr source signal_boss_waiting_time
vector 8 Network.player boss_response_time_stat:vector ETV
attr source signal_boss_response_time
vector 9 Network.player minion_waiting_time_stat:vector ETV
attr source signal_minion_waiting_time
vector 10 Network.player minion_response_time_stat:vector ETV
attr source signal_minion_response_time
vector 11 Network.player minion_throughput:vector ETV
attr source signal_minion_throughput
vector 12 Network.player boss_throughput:vector ETV
attr source signal_boss_throughput
0	1990 27494 0 5189 0 1997.46098189853 1017 0 102 48997 2880611
1	29484 52752 0 5191 0 1999.971684904112 1950 0 101 92559 5380101
2	82236 16946 0 5179 0 1993.23004567945 606 0 605 183315 73998155
3	99182 26174 0 5191 0 1999.971684904112 934 0 933 435711 271157479
4	125356 19392 0 5179 0 1993.23004567945 743 0 4 883 1215
5	144748 38762 0 5180 0 1993.446306207792 1485 0 3 282 382
6	183510 20754 0 5180 0 1993.446306207792 743 0 742 275653 136448235
7	204264 20920 2 5179 0.967835684585 1993.23004567945 742 0 2.489010230951 63.828958352363 63.796825757823
8	225184 28940 3 5180 1.551758757305 1993.446306207792 742 0.000128449373 3.716097948083 416.40859225729 479.15280940527
9	254124 61288 5 5191 3.584232943272 1999.971684904112 1539 0 122.68500928738 88834.001060961 6237382.2673091
10	315412 38235 16 5191 8.63806844801 1999.971684904112 933 0.159145065423 122.71272259003 54696.319361948 3884834.1829643
11	353647 20 5192 5192 2000 2000 1 0.4665 0.4665 0.4665 0.21762225
12	353667 19 5192 5192 2000 2000 1 0.371 0.371 0.371 0.137641

