version 2
run Monotonicity_test_recover_rate-236-20221219-18:28:00-15659
attr configname Monotonicity_test_recover_rate
attr datetime 20221219-18:28:00
attr experiment Monotonicity_test_recover_rate
attr inifile omnetpp.ini
attr iterationvars $0=50
attr iterationvarsf 50-
attr measurement $0=50
attr network Network
attr processid 15659
attr repetition 36
attr replication #36
attr resultdir results
attr runnumber 236
attr seedset 36
param *.minion.arrival_mean 2
param *.minion.service_mean 1.5
param *.boss.arrival_mean 2.5
param *.boss.service_mean 0.5
param *.player.recover_rate_x 50
param **.minion.arrival_distribution 0
param **.minion.service_distribution 0
param **.boss.arrival_distribution 0
param **.boss.service_distribution 0

scalar Network.player boss_throughput:mean 0.397
attr source signal_boss_throughput
scalar Network.player boss_throughput:last 0.397
attr source signal_boss_throughput
scalar Network.player boss_defeated_stat:count 795
attr source signal_boss_defeated
scalar Network.player boss_defeated_stat:mean 397
attr source signal_boss_defeated
scalar Network.player boss_waiting_time_stat:mean 0.14681479227918
attr source signal_boss_waiting_time
scalar Network.player boss_response_time_stat:mean 0.6490456534607
attr source signal_boss_response_time
scalar Network.player minion_throughput:mean 0.509
attr source signal_minion_throughput
scalar Network.player minion_throughput:last 0.509
attr source signal_minion_throughput
scalar Network.player minion_recovered_stat:count 595
attr source signal_minion_recovered
scalar Network.player minion_recovered_stat:mean 297
attr source signal_minion_recovered
scalar Network.player minion_defeated_stat:count 1019
attr source signal_minion_defeated
scalar Network.player minion_defeated_stat:mean 509
attr source signal_minion_defeated
scalar Network.player minion_waiting_time_stat:mean 9.9966663604309
attr source signal_minion_waiting_time
scalar Network.player minion_response_time_stat:mean 11.05579389617
attr source signal_minion_response_time

