file 364064 1671470833                                          
version 2
run Monotonicity_test_recover_rate-3-20221219-18:27:13-14473
attr configname Monotonicity_test_recover_rate
attr datetime 20221219-18:27:13
attr experiment Monotonicity_test_recover_rate
attr inifile omnetpp.ini
attr iterationvars $0=0
attr iterationvarsf 0-
attr measurement $0=0
attr network Network
attr processid 14473
attr repetition 3
attr replication #3
attr resultdir results
attr runnumber 3
attr seedset 3
param *.minion.arrival_mean 2
param *.minion.service_mean 1.5
param *.boss.arrival_mean 2.5
param *.boss.service_mean 0.5
param *.player.recover_rate_x 0
param **.minion.arrival_distribution 0
param **.minion.service_distribution 0
param **.boss.arrival_distribution 0
param **.boss.service_distribution 0

vector 0 Network.player minion_jobs_number_stat:vector ETV
attr source signal_minion_jobs_number
vector 1 Network.player minion_jobs_queue_number_stat:vector ETV
attr source signal_minion_jobs_queue_number
vector 2 Network.player minion_recovered_stat:vector ETV
attr source signal_minion_recovered
vector 3 Network.player minion_defeated_stat:vector ETV
attr source signal_minion_defeated
vector 4 Network.player boss_jobs_number_stat:vector ETV
attr source signal_boss_jobs_number
vector 5 Network.player boss_jobs_queue_number_stat:vector ETV
attr source signal_boss_jobs_queue_number
vector 6 Network.player boss_defeated_stat:vector ETV
attr source signal_boss_defeated
vector 7 Network.player minion_waiting_time_stat:vector ETV
attr source signal_minion_waiting_time
vector 8 Network.player boss_waiting_time_stat:vector ETV
attr source signal_boss_waiting_time
vector 9 Network.player boss_response_time_stat:vector ETV
attr source signal_boss_response_time
vector 10 Network.player minion_response_time_stat:vector ETV
attr source signal_minion_response_time
vector 11 Network.player minion_throughput:vector ETV
attr source signal_minion_throughput
vector 12 Network.player boss_throughput:vector ETV
attr source signal_boss_throughput
0	1979 27568 0 5355 0 1999.745576360708 1030 0 36 13454 231708
1	29547 54451 0 5355 0 1999.745576360708 2035 0 35 24574 407334
2	83998 15871 0 5350 0 1997.044647338641 570 0 569 162165 61568645
3	99869 28219 0 5353 0 1998.680372241132 1006 0 1005 505515 338863555
4	128088 19928 0 5350 0 1997.044647338641 765 0 5 976 1500
5	148016 39866 0 5351 0 1997.285854451738 1529 0 4 424 624
6	187882 21366 0 5351 0 1997.285854451738 765 0 764 292230 148939890
7	209248 61954 2 5353 0.334856844167 1998.680372241132 1575 0 37.317980664461 22511.198169506 446096.45798114
8	271202 22110 6 5350 1.803575191037 1997.044647338641 764 0 3.544768421277 113.04508899995 137.67676820741
9	293312 29778 7 5351 2.748209610907 1997.285854451738 764 0.000294134954 3.836415287397 502.76528021833 642.26005943457
10	323090 40934 8 5353 4.150431465818 1998.680372241132 1005 0.033253317182 37.762162564183 15494.442591161 321833.52506749
11	364024 20 5356 5356 2000 2000 1 0.5025 0.5025 0.5025 0.25250625
12	364044 19 5356 5356 2000 2000 1 0.382 0.382 0.382 0.145924

