version 2
run Monotonicity_test_recover_rate-173-20221219-18:27:48-15336
attr configname Monotonicity_test_recover_rate
attr datetime 20221219-18:27:48
attr experiment Monotonicity_test_recover_rate
attr inifile omnetpp.ini
attr iterationvars $0=25
attr iterationvarsf 25-
attr measurement $0=25
attr network Network
attr processid 15336
attr repetition 73
attr replication #73
attr resultdir results
attr runnumber 173
attr seedset 73
param *.minion.arrival_mean 2
param *.minion.service_mean 1.5
param *.boss.arrival_mean 2.5
param *.boss.service_mean 0.5
param *.player.recover_rate_x 25
param **.minion.arrival_distribution 0
param **.minion.service_distribution 0
param **.boss.arrival_distribution 0
param **.boss.service_distribution 0

scalar Network.player boss_throughput:mean 0.382
attr source signal_boss_throughput
scalar Network.player boss_throughput:last 0.382
attr source signal_boss_throughput
scalar Network.player boss_defeated_stat:count 765
attr source signal_boss_defeated
scalar Network.player boss_defeated_stat:mean 382
attr source signal_boss_defeated
scalar Network.player boss_waiting_time_stat:mean 0.10901530992641
attr source signal_boss_waiting_time
scalar Network.player boss_response_time_stat:mean 0.6021568807247
attr source signal_boss_response_time
scalar Network.player minion_throughput:mean 0.5045
attr source signal_minion_throughput
scalar Network.player minion_throughput:last 0.5045
attr source signal_minion_throughput
scalar Network.player minion_recovered_stat:count 616
attr source signal_minion_recovered
scalar Network.player minion_recovered_stat:mean 307.5
attr source signal_minion_recovered
scalar Network.player minion_defeated_stat:count 1010
attr source signal_minion_defeated
scalar Network.player minion_defeated_stat:mean 504.5
attr source signal_minion_defeated
scalar Network.player minion_waiting_time_stat:mean 50.287369838976
attr source signal_minion_waiting_time
scalar Network.player minion_response_time_stat:mean 51.294861248116
attr source signal_minion_response_time

