version 2
run Monotonicity_test_recover_rate-471-20221219-18:28:49-16845
attr configname Monotonicity_test_recover_rate
attr datetime 20221219-18:28:49
attr experiment Monotonicity_test_recover_rate
attr inifile omnetpp.ini
attr iterationvars $0=100
attr iterationvarsf 100-
attr measurement $0=100
attr network Network
attr processid 16845
attr repetition 71
attr replication #71
attr resultdir results
attr runnumber 471
attr seedset 71
param *.minion.arrival_mean 2
param *.minion.service_mean 1.5
param *.boss.arrival_mean 2.5
param *.boss.service_mean 0.5
param *.player.recover_rate_x 100
param **.minion.arrival_distribution 0
param **.minion.service_distribution 0
param **.boss.arrival_distribution 0
param **.boss.service_distribution 0

scalar Network.player boss_throughput:mean 0.4095
attr source signal_boss_throughput
scalar Network.player boss_throughput:last 0.4095
attr source signal_boss_throughput
scalar Network.player boss_defeated_stat:count 820
attr source signal_boss_defeated
scalar Network.player boss_defeated_stat:mean 409.5
attr source signal_boss_defeated
scalar Network.player boss_waiting_time_stat:mean 0.10789622047891
attr source signal_boss_waiting_time
scalar Network.player boss_response_time_stat:mean 0.60776033071185
attr source signal_boss_response_time
scalar Network.player minion_throughput:mean 0.452
attr source signal_minion_throughput
scalar Network.player minion_throughput:last 0.452
attr source signal_minion_throughput
scalar Network.player minion_recovered_stat:count 669
attr source signal_minion_recovered
scalar Network.player minion_recovered_stat:mean 334
attr source signal_minion_recovered
scalar Network.player minion_defeated_stat:count 905
attr source signal_minion_defeated
scalar Network.player minion_defeated_stat:mean 452
attr source signal_minion_defeated
scalar Network.player minion_waiting_time_stat:mean 54.106192975465
attr source signal_minion_waiting_time
scalar Network.player minion_response_time_stat:mean 54.207164108136
attr source signal_minion_response_time

