version 2
run Monotonicity_test_recover_rate-72-20221219-18:27:27-14827
attr configname Monotonicity_test_recover_rate
attr datetime 20221219-18:27:27
attr experiment Monotonicity_test_recover_rate
attr inifile omnetpp.ini
attr iterationvars $0=0
attr iterationvarsf 0-
attr measurement $0=0
attr network Network
attr processid 14827
attr repetition 72
attr replication #72
attr resultdir results
attr runnumber 72
attr seedset 72
param *.minion.arrival_mean 2
param *.minion.service_mean 1.5
param *.boss.arrival_mean 2.5
param *.boss.service_mean 0.5
param *.player.recover_rate_x 0
param **.minion.arrival_distribution 0
param **.minion.service_distribution 0
param **.boss.arrival_distribution 0
param **.boss.service_distribution 0

vector 0 Network.player minion_jobs_number_stat:vector ETV
attr source signal_minion_jobs_number
vector 1 Network.player minion_jobs_queue_number_stat:vector ETV
attr source signal_minion_jobs_queue_number
vector 2 Network.player minion_recovered_stat:vector ETV
attr source signal_minion_recovered
vector 3 Network.player minion_defeated_stat:vector ETV
attr source signal_minion_defeated
vector 4 Network.player boss_jobs_number_stat:vector ETV
attr source signal_boss_jobs_number
vector 5 Network.player boss_jobs_queue_number_stat:vector ETV
attr source signal_boss_jobs_queue_number
vector 6 Network.player boss_defeated_stat:vector ETV
attr source signal_boss_defeated
vector 7 Network.player boss_waiting_time_stat:vector ETV
attr source signal_boss_waiting_time
vector 8 Network.player boss_response_time_stat:vector ETV
attr source signal_boss_response_time
vector 9 Network.player minion_waiting_time_stat:vector ETV
attr source signal_minion_waiting_time
vector 10 Network.player minion_response_time_stat:vector ETV
attr source signal_minion_response_time
vector 11 Network.player minion_throughput:vector ETV
attr source signal_minion_throughput
vector 12 Network.player boss_throughput:vector ETV
attr source signal_boss_throughput
0	0	0	0
0	5	1.611600276125	1
0	7	2.512758347282	2
0	14	5.023518400625	1
0	18	5.359592371221	2
0	25	8.707879588763	2
0	29	9.287688919804	1
0	31	9.332136721439	2
0	33	9.370673397418	3
0	47	13.04638746885	1
0	49	13.050209958704	2
0	56	15.285784926009	3
0	65	16.762644952978	4
0	67	17.222652473778	5
0	69	17.528219184692	6
0	75	19.32791385197	6
0	77	20.821573651134	7
0	81	23.741250431892	6
0	87	26.590973880965	3
0	93	27.740093470164	3
0	102	30.996426731472	2
0	104	31.715123585089	3
0	110	33.121210412011	4
0	116	33.765853747753	5
0	128	40.765099071438	1
0	137	43.140673249638	1
0	139	43.287200008344	2
0	142	45.257950273449	2
0	146	47.086656236092	3
0	152	48.045123999453	3
0	156	51.000816194993	3
0	158	53.209497989955	4
0	163	53.636295504597	5
0	168	55.41488092815	6
0	177	59.311102926472	6
0	182	61.257700267	7
0	188	62.328223507482	8
0	190	62.397624050049	9
0	197	66.389130306538	7
0	199	67.61915762176	8
0	201	68.6219286083	9
0	218	74.520070137919	8
0	224	77.725894920592	7
0	233	82.542040900027	6
0	239	83.561733679822	4
0	242	85.857659271306	4
0	244	86.428574642286	5
0	246	86.708874611092	6
0	250	87.092555697211	7
0	259	92.949280488488	8
0	264	94.508013451328	8
0	268	94.732206426613	8
0	272	95.205845816036	7
0	275	95.756282115984	7
0	279	97.350678260283	6
0	289	100.903538630984	2
0	291	102.150014213542	3
0	293	102.773766744637	4
0	297	103.773620714368	5
0	300	104.171540885796	6
0	305	105.109114400417	7
0	308	106.044459128139	7
0	320	113.617627922438	4
0	331	118.069645739752	4
0	344	121.607229673037	4
0	354	124.716174198311	3
0	358	125.626152514486	4
0	371	129.947902801033	1
0	381	131.9839225024	1
0	387	133.443744723661	2
0	389	133.602534563023	3
0	397	138.750286703179	2
0	399	140.638557600931	3
0	406	141.70757238879	4
0	410	141.93202227933	5
0	414	143.475018992869	6
0	418	144.070341269073	7
0	420	144.247929284606	8
0	424	146.527489218046	9
0	430	150.563840146263	8
0	433	152.152208678034	8
0	437	152.812249970875	9
0	450	156.296776236302	9
0	458	158.384175418766	9
0	469	160.101387012821	10
0	473	162.070143634201	10
0	475	162.386596023595	11
0	477	162.532327205309	12
0	482	164.412914473801	10
0	486	165.089696752369	11
0	489	165.265078561053	12
0	491	165.649464183404	13
0	493	166.419444827583	14
0	496	166.884954667653	14
0	498	167.1881366138	15
0	504	168.932650955093	14
0	506	168.946851686748	15
0	516	171.489391421069	15
0	518	172.751224700901	16
0	521	173.297790499033	16
0	523	173.338809114457	17
0	534	176.663515547977	17
0	544	178.871936016986	17
0	549	180.396301790422	18
0	564	187.353128807131	17
0	567	188.545711244801	18
0	569	188.638681514752	19
0	588	195.691337074453	14
0	596	198.47201404953	13
0	606	201.163093167108	13
0	610	201.907522526141	14
0	623	205.251809436095	13
0	639	208.47571492493	11
0	641	209.229246307847	12
0	644	211.176508870158	13
0	652	214.528975416502	11
0	657	216.50276889298	12
0	672	225.765904906916	6
0	677	226.57609444232	7
0	679	226.748631884781	8
0	681	226.801652231121	9
0	684	227.511163540082	9
0	688	229.492436188407	8
0	698	233.945136802938	1
0	701	234.31669139753	1
0	712	239.067729194791	1
0	718	241.825299478477	1
0	725	242.420713291421	1
0	735	244.713718358535	1
0	740	245.81920560411	1
0	746	249.461294644965	1
0	758	253.144732402934	1
0	762	255.348458541358	2
0	765	257.776826719776	3
0	769	260.535040117949	2
0	771	261.240024353318	3
0	777	263.810010717872	3
0	782	264.61409567739	3
0	785	265.506744539323	4
0	797	270.148071467344	1
0	802	272.777785378145	2
0	804	273.027819586549	3
0	807	273.829111208011	3
0	823	282.160988369656	2
0	828	283.395174523737	2
0	834	284.670154460246	3
0	840	285.055669888567	4
0	847	287.475666284281	5
0	851	288.814909694248	6
0	854	289.254468567843	7
0	857	293.237829614921	7
0	863	295.610336070003	7
0	866	295.872653993157	7
0	870	297.796128404333	6
0	885	303.49762655681	3
0	888	304.701344693788	3
0	905	309.938689700746	1
0	907	310.083086890498	2
0	909	311.222816916593	3
0	922	318.152918493468	2
0	926	320.238168304601	1
0	928	320.310575680313	2
0	932	322.667931836395	1
0	952	326.47604252563	1
0	958	327.862159855752	1
0	962	328.916306639288	2
0	966	330.006473151339	3
0	972	331.461883548392	3
0	976	333.400028520266	2
0	978	334.628616220523	3
0	980	335.834733500673	4
0	983	336.795318034617	4
0	989	338.96847353818	1
0	1007	345.48057508211	1
0	1010	346.263970295315	1
0	1013	347.784106982873	1
0	1015	348.450255101601	2
0	1019	349.783444083112	3
0	1030	351.559268105451	4
0	1032	351.69851369791	5
0	1036	355.054976814768	5
0	1048	360.700694853374	2
0	1052	361.53215158686	3
0	1056	363.535857578906	3
0	1058	363.895712719098	4
0	1063	365.033467258673	4
0	1065	365.131010145378	5
0	1069	365.453930850565	5
0	1071	365.784795744161	6
0	1085	368.518028400824	4
0	1089	370.581057231721	3
0	1096	374.504336987901	2
0	1100	375.810016235943	3
0	1102	375.929042711835	4
0	1108	377.282381574738	5
0	1115	380.213756423355	6
0	1119	382.032244767252	6
0	1127	383.251734753314	7
0	1137	385.132687035413	8
0	1141	385.417753565063	8
0	1143	385.978291590922	9
0	1146	387.551023816741	9
0	1149	389.06152008968	9
0	1154	391.309211944487	10
0	1156	391.382038141774	11
0	1161	392.07346887727	12
0	1168	395.833610795891	8
0	1170	396.253376492353	9
0	1179	398.641195020377	7
0	1199	404.485633506959	6
0	1202	406.33527240852	7
0	1207	407.911063360746	8
0	1215	410.280773609355	9
0	1228	415.968582905208	8
0	1232	416.288583552816	9
0	1241	420.637075743527	6
0	1250	423.987845067052	1
0	1259	427.155546319327	1
0	1262	427.666627073222	1
0	1268	429.467952489841	1
0	1274	431.581121290293	1
0	1277	436.259457993317	1
0	1279	436.324586584245	2
0	1283	437.468877605879	1
0	1285	438.127368102882	2
0	1287	438.657333018896	3
0	1292	445.654494150166	1
0	1297	447.640206370362	1
0	1303	449.13378036333	2
0	1308	450.824977122694	2
0	1310	450.933040781392	3
0	1313	451.169186264204	4
0	1315	451.503634306163	5
0	1336	457.735335409686	1
0	1343	459.18005853603	1
0	1349	459.952726130787	1
0	1351	460.089253946609	2
0	1361	464.590771522298	1
0	1374	469.291674013045	2
0	1384	471.947797664455	2
0	1386	474.068836328435	3
0	1391	479.072729588865	1
0	1393	479.470945593589	2
0	1397	481.929626505769	1
0	1400	483.225987277274	1
0	1408	489.671617696454	1
0	1410	490.191034751226	2
0	1412	490.276689691536	3
0	1414	490.396090848056	4
0	1421	493.856889191355	4
0	1423	494.667669946127	5
0	1425	495.315639196211	6
0	1430	496.819015860737	6
0	1433	496.922477663246	7
0	1435	498.55880411997	8
0	1440	503.05159144102	6
0	1442	503.282870963819	7
0	1444	503.309946209048	8
0	1446	503.423209520566	9
0	1448	505.838135686679	10
0	1451	506.032513048644	10
0	1461	507.154154290516	9
0	1463	507.373060087277	10
0	1471	511.249984609303	8
0	1474	513.901937492724	8
0	1476	514.585717747642	9
0	1493	528.75461130731	4
0	1500	530.373494613139	3
0	1503	530.940509450807	3
0	1511	534.633794232729	1
0	1513	534.947379410606	2
0	1515	535.643730841933	3
0	1529	540.11136070169	1
0	1535	543.757601925723	1
0	1543	549.085121989691	1
0	1548	550.023028793844	2
0	1552	553.552974503478	2
0	1554	553.837959344187	3
0	1558	554.598487877522	4
0	1568	559.924064348243	1
0	1570	560.349452940517	2
0	1572	560.785655990812	3
0	1575	561.786095090868	3
0	1577	561.810887594968	4
0	1584	566.113877506702	3
0	1586	567.899719092116	4
0	1588	568.850268149865	5
0	1595	572.638064552033	1
0	1598	573.62165087529	1
0	1601	574.841287874637	1
0	1603	574.848088791841	2
0	1606	575.567612803738	2
0	1612	577.256870926265	3
0	1616	578.964998045724	4
0	1618	579.314917801716	5
0	1624	580.245554578869	5
0	1627	580.485593711358	5
0	1630	581.299694523376	5
0	1638	588.321030882045	3
0	1640	588.840142505229	4
0	1652	597.851992777721	1
0	1654	599.560644074563	2
0	1656	600.876654882804	3
0	1661	601.618452050992	4
0	1666	605.105167915127	5
0	1668	605.98257971374	6
0	1670	606.214587006594	7
0	1674	607.788632804405	6
0	1676	608.161903517863	7
0	1679	608.63422763153	7
0	1681	608.943398559884	8
0	1685	609.393578895051	9
0	1688	609.847412401553	10
0	1696	611.502304100335	8
0	1701	615.650596182852	6
0	1703	616.575368639195	7
0	1708	619.831345929452	5
0	1715	624.270203241049	4
0	1722	626.060769141536	3
0	1728	626.852629656313	3
0	1730	626.907728253168	4
0	1734	627.59977515774	5
0	1743	630.125840779656	3
0	1745	631.73263107663	4
0	1749	632.772842446331	3
0	1756	636.448947518858	1
0	1760	639.042053169447	1
0	1769	644.696733461025	1
0	1775	648.834274431338	1
0	1778	650.350555052934	1
0	1781	652.583583323969	1
0	1784	661.116201300555	1
0	1786	661.387455513721	2
0	1790	661.651927119788	3
0	1801	664.744008402179	3
0	1804	665.347020502727	4
0	1806	665.40824476971	5
0	1812	666.699391105923	3
0	1825	673.106926965026	1
0	1834	679.476748842436	2
0	1836	680.095175600532	3
0	1841	681.756098187447	4
0	1855	683.759920729339	4
0	1859	684.842325729964	4
0	1864	687.971214524492	2
0	1869	689.692576492081	2
0	1892	695.158960839669	3
0	1896	696.071454274788	3
0	1899	698.294526955953	3
0	1907	703.17282200682	4
0	1917	708.578671456924	3
0	1923	710.587603430874	3
0	1931	714.805513029806	1
0	1942	718.102904994005	1
0	1944	718.425463308764	2
0	1947	720.118610871291	3
0	1954	722.551215877026	1
0	1967	728.332878237159	1
0	1969	729.78163054664	2
0	1992	734.896134236847	3
0	1997	741.20914975654	1
0	1999	741.42415479295	2
0	2001	741.759884442196	3
0	2003	743.078798027627	4
0	2006	743.91805517697	4
0	2008	745.524923470084	5
0	2010	746.117006270831	6
0	2018	748.421802007114	7
0	2022	750.521863430483	8
0	2032	753.570181744199	8
0	2038	754.907804858776	5
0	2040	754.945017898195	6
0	2042	755.09213839706	7
0	2050	757.537800740479	8
0	2055	759.885242694393	8
0	2058	761.25793184434	9
0	2060	761.356657701153	10
0	2062	761.358231339736	11
0	2064	761.419077576166	12
0	2075	768.136660193491	9
0	2087	771.149013590369	8
0	2096	774.772037730155	7
0	2110	778.637734910761	5
0	2114	779.130523859542	6
0	2118	779.671838254334	7
0	2126	788.439288265184	7
0	2133	789.664554561591	8
0	2136	790.214385270024	9
0	2150	794.946130643843	4
0	2152	795.656219188823	5
0	2154	796.776475271988	6
0	2163	801.246967536402	6
0	2165	801.318023686939	7
0	2174	804.246274457322	4
0	2177	804.651328070611	4
0	2179	806.232802010307	5
0	2186	810.408158636355	1
0	2189	813.207785158356	1
0	2192	813.327470256732	1
0	2194	813.581817874859	2
0	2198	815.332763706528	1
0	2200	816.593704101737	2
0	2205	817.414281372087	3
0	2207	817.642977191978	4
0	2217	821.765829792715	3
0	2219	822.593939019046	4
0	2223	823.822747143489	3
0	2225	823.916459497359	4
0	2230	826.921999982949	5
0	2249	836.46041394474	1
0	2251	836.465762342487	2
0	2255	837.253413514344	3
0	2257	837.348853327602	4
0	2260	837.953455501456	5
0	2267	841.453618106686	4
0	2270	843.015090364484	4
0	2276	845.698337097629	4
0	2278	846.614809661106	5
0	2280	847.732005897404	6
0	2282	848.184046389101	7
0	2294	852.925980356967	7
0	2300	853.189091923076	7
0	2310	855.851303700065	6
0	2312	856.542519056229	7
0	2317	860.138979337761	5
0	2319	860.976660207171	6
0	2329	864.422551226442	5
0	2338	868.519525963588	2
0	2348	873.631812612453	1
0	2351	874.17689112856	1
0	2353	874.232806295293	2
0	2355	876.440821145062	3
0	2357	876.575602388254	4
0	2377	885.235807223137	2
0	2379	885.441540584081	3
0	2382	886.153814431445	3
0	2384	887.181538074871	4
0	2389	888.963449744365	4
0	2391	889.62649270286	5
0	2413	900.615083400298	5
0	2419	903.132578811609	5
0	2421	903.679547092872	6
0	2425	907.635324995623	5
0	2427	910.148379116709	6
0	2431	911.790351476379	7
0	2437	914.098788238076	8
0	2439	914.241436372724	9
0	2443	914.612538387727	8
0	2447	914.700869635541	9
0	2450	915.338833933661	10
0	2456	916.623347309943	10
0	2469	920.411305315595	9
0	2475	922.247669185073	9
0	2480	924.087124294879	10
0	2487	926.442568711119	8
0	2491	927.454449323344	8
0	2496	929.927174995021	6
0	2500	930.39306517189	7
0	2502	930.504497138643	8
0	2510	932.67541071201	9
0	2519	933.9056661674	10
0	2521	933.950899331561	11
0	2525	935.14797720501	12
0	2530	936.953117127186	13
0	2532	937.381309541801	14
0	2535	938.314175277676	15
0	2537	938.462647725958	16
0	2548	943.181739661542	16
0	2555	945.996921126563	16
0	2562	949.501226851903	15
0	2569	951.913489426621	14
0	2573	953.168187845634	13
0	2581	956.787481257119	8
0	2584	957.693312329618	8
0	2586	959.28446641568	9
0	2593	962.606283785991	8
0	2595	963.466014905854	9
0	2602	964.662732650244	10
0	2606	965.9812530892	10
0	2608	966.042476011801	11
0	2613	968.673922620158	12
0	2620	969.655743124881	13
0	2633	972.760273114117	13
0	2657	982.972458267869	9
0	2662	985.322786667105	8
0	2666	985.693133615426	9
0	2670	985.916711702177	9
0	2685	991.859280059314	6
0	2690	993.505713225263	4
0	2692	993.867580683215	5
0	2700	995.009581924565	6
0	2702	995.224631893041	7
0	2704	995.287592229722	8
0	2706	995.394184337736	9
0	2708	996.046629784902	10
0	2710	996.332080134265	11
0	2712	997.096774701215	12
0	2716	1000.522779236944	13
0	2724	1003.643016638838	12
0	2727	1004.402948460292	12
0	2733	1006.098849955786	12
0	2735	1006.220879328443	13
0	2738	1007.767405380445	13
0	2741	1009.509994292592	13
0	2743	1009.610848771286	14
0	2745	1010.163230399448	15
0	2750	1012.089880834841	16
0	2754	1012.494229728859	17
0	2757	1015.145278247521	18
0	2764	1016.759810980905	17
0	2767	1016.873541765114	17
0	2769	1017.450099060962	18
0	2779	1020.737291557222	17
0	2784	1021.856011988586	15
0	2789	1026.149810322966	13
0	2792	1026.982972737809	13
0	2796	1028.185575694535	12
0	2799	1028.511889638872	12
0	2807	1030.537998027483	13
0	2811	1031.226004869369	12
0	2813	1031.336401714767	13
0	2836	1039.697065127409	7
0	2838	1040.014578680022	8
0	2840	1040.017268033326	9
0	2842	1040.366091946834	10
0	2846	1041.69581566932	11
0	2855	1043.013564313863	12
0	2857	1043.128998182662	13
0	2864	1044.503287022626	14
0	2866	1044.580936457839	15
0	2878	1051.421879837355	14
0	2880	1052.079162950334	15
0	2886	1054.508805668388	12
0	2890	1056.75433710508	11
0	2893	1058.289618396018	11
0	2897	1059.97003352278	12
0	2903	1060.725211853384	12
0	2916	1064.496881586005	12
0	2924	1067.353632890438	13
0	2929	1068.340361711455	14
0	2939	1069.601507312364	14
0	2946	1071.725843859047	15
0	2949	1072.104364900199	15
0	2952	1076.013866522709	15
0	2955	1076.889196549384	15
0	2960	1078.870372653216	15
0	2964	1080.674054630334	15
0	2970	1082.274655191065	15
0	2973	1083.635292766571	15
0	2975	1083.635866787651	16
0	2977	1085.111734585798	17
0	2983	1086.426251437757	17
0	2987	1089.682747902604	16
0	2989	1089.741304909905	17
0	2991	1091.976071432375	18
0	2995	1093.620915097477	17
0	2997	1094.080907877159	18
0	3034	1107.848118144419	5
0	3037	1109.995103337457	5
0	3039	1111.769205604888	6
0	3047	1112.798731314642	7
0	3052	1116.874893703702	5
0	3054	1116.941784824277	6
0	3056	1117.309083318935	7
0	3066	1119.652404017424	8
0	3076	1125.688089914917	4
0	3079	1127.232932369307	5
0	3094	1132.758472459357	2
0	3098	1135.626063245812	1
0	3104	1135.933217626188	2
0	3112	1139.041972344218	2
0	3114	1139.501554201532	3
0	3116	1140.114199731796	4
0	3122	1142.431249270544	3
0	3125	1143.822244462981	4
0	3145	1150.878840139481	2
0	3148	1152.310448546241	2
0	3151	1152.746594815243	2
0	3153	1153.029407738363	3
0	3155	1153.568395255815	4
0	3160	1154.869800594328	4
0	3164	1157.064448609387	4
0	3166	1157.537943924221	5
0	3175	1161.666304275084	2
0	3184	1163.545158212778	2
0	3192	1164.793971334867	3
0	3194	1164.929683242463	4
0	3212	1170.775025831917	4
0	3214	1171.167007460099	5
0	3221	1174.884790394859	5
0	3227	1177.679801611349	4
0	3229	1178.106944359547	5
0	3232	1179.309523801315	5
0	3241	1180.997900553816	5
0	3244	1181.31640845024	5
0	3256	1185.689221730692	5
0	3260	1188.27374702462	4
0	3270	1191.072830313383	5
0	3272	1191.288968097266	6
0	3275	1192.24461604522	7
0	3289	1196.015237769109	8
0	3293	1198.579919542424	7
0	3297	1199.384945412843	8
0	3309	1201.996602813583	9
0	3312	1202.847168538825	9
0	3318	1205.139272841817	9
0	3322	1206.757816320945	10
0	3324	1207.194920225733	11
0	3326	1207.78336241763	12
0	3333	1208.742994354068	13
0	3345	1211.208058968542	12
0	3350	1211.915089052986	13
0	3353	1214.581358593965	13
0	3355	1214.589844336479	14
0	3371	1220.841713061009	13
0	3374	1221.195512533829	13
0	3387	1224.591662032772	12
0	3395	1229.742351255178	7
0	3397	1229.822876291473	8
0	3402	1232.277671181665	9
0	3404	1233.30963215098	10
0	3422	1239.118772753799	7
0	3426	1241.531127066562	6
0	3432	1243.114907169046	7
0	3435	1243.205874586231	8
0	3437	1243.207898157243	9
0	3452	1247.592998465046	7
0	3461	1253.550091209405	7
0	3481	1258.977336900684	7
0	3484	1260.123763736511	8
0	3488	1260.64803599309	9
0	3493	1263.917315296669	10
0	3498	1265.117128950338	9
0	3500	1266.450292060341	10
0	3505	1268.052049039039	10
0	3512	1272.533983872613	10
0	3536	1280.922454247153	7
0	3542	1281.947079475593	8
0	3557	1285.518765208091	7
0	3559	1285.672627342065	8
0	3562	1287.003671914849	8
0	3564	1288.027241239319	9
0	3566	1289.476179511867	10
0	3568	1290.860863683462	11
0	3573	1292.790149774241	9
0	3577	1294.379000404944	8
0	3594	1300.665118002995	5
0	3596	1301.543986263456	6
0	3598	1301.886219274328	7
0	3601	1303.104766661635	8
0	3609	1304.317631303618	5
0	3611	1304.812889686788	6
0	3630	1311.127315052343	6
0	3635	1314.231747026935	4
0	3647	1323.84304053141	1
0	3650	1325.214274403648	1
0	3656	1328.312499245093	1
0	3658	1329.108436191952	2
0	3662	1330.15801938492	1
0	3664	1331.735671292507	2
0	3667	1332.768612644062	2
0	3669	1334.766588829434	3
0	3678	1336.233650587867	2
0	3683	1338.095676693861	1
0	3685	1338.952609737802	2
0	3688	1339.739076464844	2
0	3693	1340.171600818383	3
0	3697	1343.991779183472	2
0	3699	1345.05943170281	3
0	3701	1347.423483241146	4
0	3709	1347.980416169796	5
0	3711	1348.702902995653	6
0	3716	1351.96754461873	7
0	3725	1353.669673911371	8
0	3729	1356.973425265926	9
0	3737	1359.884080020873	7
0	3739	1360.333800595585	8
0	3741	1361.798209945552	9
0	3750	1364.235737637618	6
0	3754	1366.021962596834	5
0	3756	1366.024518531909	6
0	3760	1368.618143303399	7
0	3765	1370.672764626494	6
0	3768	1372.294652815559	6
0	3771	1373.528009873126	6
0	3780	1377.990028017326	6
0	3796	1381.100111532973	5
0	3802	1381.869856017889	6
0	3809	1383.338635543833	4
0	3812	1384.264651601754	4
0	3814	1386.812796774238	5
0	3816	1386.918481447252	6
0	3827	1391.312679744967	4
0	3832	1394.277101458212	2
0	3852	1399.738055539184	2
0	3855	1400.285168536596	3
0	3857	1400.938771388527	4
0	3859	1401.221100008437	5
0	3865	1403.264385530943	5
0	3868	1404.531867389584	5
0	3873	1406.031776785068	3
0	3877	1408.100038518991	2
0	3879	1409.622792841177	3
0	3882	1412.118887941888	3
0	3890	1414.571936741058	3
0	3895	1415.417272825133	4
0	3897	1415.562217101727	5
0	3899	1415.740059241676	6
0	3910	1421.577257560553	5
0	3912	1422.133754952196	6
0	3915	1424.929206481549	6
0	3921	1428.320336227313	6
0	3926	1429.782547468084	7
0	3928	1430.192947225683	8
0	3937	1435.313686875341	8
0	3939	1435.840864307892	9
0	3942	1437.063341356346	9
0	3945	1439.502048449828	9
0	3947	1440.559179076513	10
0	3950	1442.477209793231	10
0	3956	1445.272157974527	10
0	3959	1445.346540726972	10
0	3962	1445.724953681607	10
0	3965	1446.948708772732	10
0	3969	1449.024076313816	9
0	3980	1454.29251291246	4
0	3985	1455.513093806184	4
0	3987	1455.874081107643	5
0	4003	1462.939430771437	1
0	4012	1464.80618566092	2
0	4015	1465.685490228049	2
0	4021	1473.008099280015	1
0	4031	1478.348951993814	1
0	4036	1479.741043760083	2
0	4041	1480.05685708062	3
0	4043	1480.072731987532	4
0	4045	1480.125487823745	5
0	4049	1480.998046759936	6
0	4051	1481.035033865948	7
0	4060	1485.812375391882	5
0	4062	1485.96414170251	6
0	4064	1486.681440463009	7
0	4073	1493.248591177653	4
0	4075	1494.159430320525	5
0	4081	1495.133614625565	5
0	4089	1498.976737218303	3
0	4099	1503.973922713646	2
0	4112	1506.158964101063	1
0	4127	1516.961420164839	1
0	4129	1517.45905140683	2
0	4138	1520.229018001954	2
0	4148	1522.854369422209	1
0	4154	1524.376887443308	1
0	4159	1524.849987909545	2
0	4169	1527.516267922432	1
0	4171	1527.52359338573	2
0	4175	1531.077966230575	1
0	4181	1534.271802158774	1
0	4183	1535.066740928287	2
0	4190	1537.924329398944	1
0	4198	1543.031972040764	1
0	4202	1545.222987471724	1
0	4204	1545.372999889915	2
0	4220	1553.180333602653	1
0	4229	1556.656201736484	1
0	4231	1557.030607452912	2
0	4234	1558.913229917167	2
0	4236	1560.381872023846	3
0	4238	1560.720238185258	4
0	4240	1560.746808578653	5
0	4247	1565.159225292671	4
0	4262	1573.843776241258	1
0	4265	1576.356406591956	1
0	4273	1581.692198391477	2
0	4281	1583.871102319494	3
0	4283	1584.006145078969	4
0	4285	1587.299507614712	5
0	4294	1591.408011419271	5
0	4301	1593.105193877989	6
0	4304	1595.368684634447	7
0	4306	1596.080286149997	8
0	4308	1596.700091669322	9
0	4310	1597.336545527452	10
0	4312	1597.497016125506	11
0	4314	1598.752563404576	12
0	4322	1602.213304320691	10
0	4330	1603.726918293542	11
0	4332	1603.996238394904	12
0	4348	1611.142020783116	8
0	4358	1614.376199131279	7
0	4360	1614.5577270202	8
0	4366	1616.888977517483	8
0	4374	1619.662304083871	7
0	4390	1624.290695269787	7
0	4401	1628.330108152512	6
0	4403	1629.183362268162	7
0	4417	1635.312909412948	5
0	4427	1637.375770565805	3
0	4429	1637.64320495135	4
0	4433	1639.356663782279	4
0	4435	1639.5100580666	5
0	4442	1641.212454706918	4
0	4444	1641.725387858313	5
0	4450	1642.919648235772	5
0	4453	1643.175077439751	5
0	4455	1643.637219492977	6
0	4462	1645.20364211095	7
0	4472	1648.731336257639	4
0	4474	1650.238178129994	5
0	4477	1653.898248753743	5
0	4481	1656.0622580491	4
0	4488	1658.60617108907	3
0	4491	1659.383949489586	3
0	4498	1661.712630164814	3
0	4503	1663.295873793589	3
0	4507	1664.156335951607	2
0	4510	1665.050494504416	2
0	4519	1668.320639989189	2
0	4521	1668.612145447052	3
0	4523	1669.392313729091	4
0	4531	1670.678370674818	4
0	4552	1679.093439431517	2
0	4554	1679.402917781702	3
0	4562	1680.96821255255	1
0	4564	1681.558400563611	2
0	4568	1687.321458039809	1
0	4571	1688.51349567175	1
0	4574	1689.857700932654	1
0	4576	1690.054150785716	2
0	4592	1694.837297083917	1
0	4594	1695.220573712078	2
0	4597	1697.182031045159	2
0	4601	1700.934725734892	1
0	4603	1701.121698403006	2
0	4605	1701.67983632513	3
0	4608	1702.878270138344	3
0	4610	1703.433684833571	4
0	4612	1703.991813322922	5
0	4616	1705.124682025918	4
0	4620	1705.46582472832	5
0	4622	1705.613743369278	6
0	4625	1706.57443352246	7
0	4647	1712.870851030565	4
0	4649	1712.889227059557	5
0	4654	1714.653960759461	6
0	4656	1715.49335880429	7
0	4659	1715.911739982205	8
0	4662	1716.172038966684	9
0	4667	1717.624129444461	10
0	4680	1721.042035899791	6
0	4693	1725.941552405463	1
0	4706	1730.811820024819	1
0	4708	1731.941994976309	2
0	4710	1732.5534849191	3
0	4712	1732.994987851474	4
0	4714	1734.329907171726	5
0	4716	1736.397456716	6
0	4718	1736.805969746285	7
0	4720	1737.349804116971	8
0	4724	1738.633997434601	7
0	4726	1739.096241623625	8
0	4735	1743.187103971598	7
0	4738	1743.77458417108	8
0	4745	1745.438527633218	7
0	4747	1747.233250647369	8
0	4749	1747.707673768586	9
0	4755	1748.251796847029	9
0	4757	1748.755666322652	10
0	4759	1749.28902174873	11
0	4762	1749.839154168113	11
0	4765	1751.718606455102	11
0	4769	1752.766149804295	12
0	4788	1755.893459182467	12
0	4791	1756.370180709312	13
0	4796	1757.93507787215	13
0	4798	1758.232149008821	14
0	4800	1758.237749219489	15
0	4805	1758.649551065831	16
0	4808	1760.29918649116	16
0	4815	1764.410147592638	17
0	4817	1764.819353345976	18
0	4827	1767.646863752315	18
0	4836	1772.133739568679	15
0	4841	1773.173703298288	15
0	4848	1777.302937739023	12
0	4856	1782.34238085862	10
0	4859	1783.56753600888	10
0	4865	1788.980780976287	10
0	4890	1795.60145883254	3
0	4898	1797.493630490946	4
0	4902	1798.881156678199	5
0	4921	1807.425603633142	5
0	4928	1810.00760132994	4
0	4934	1811.654512767366	3
0	4937	1812.194626149775	4
0	4941	1813.819012445113	3
0	4946	1819.706839237965	1
0	4951	1821.311307067723	2
0	4954	1823.052901818083	2
0	4958	1824.807942762781	1
0	4962	1826.218213767656	2
0	4967	1829.095937615663	1
0	4976	1833.469426611056	1
0	4982	1835.823086097968	1
0	4990	1837.961113101595	2
0	4993	1838.5166591722	2
0	4995	1840.056484760901	3
0	4997	1840.596744921732	4
0	4999	1841.612258169871	5
0	5001	1842.675409248585	6
0	5005	1843.207371350274	5
0	5009	1845.534593189677	6
0	5012	1845.583639080911	7
0	5014	1845.989523929595	8
0	5020	1849.078857714278	8
0	5022	1850.767075475707	9
0	5024	1854.44880001221	10
0	5026	1854.922040043735	11
0	5028	1855.830783509668	12
0	5033	1856.597891342252	10
0	5040	1858.89969862955	9
0	5043	1859.949334048875	9
0	5051	1864.284115533373	7
0	5057	1865.38727399268	8
0	5060	1866.11147780219	9
0	5066	1867.913266755859	10
0	5070	1868.333354610752	11
0	5073	1868.786312631268	12
0	5078	1870.920414722216	13
0	5085	1871.654945684751	14
0	5090	1874.182053857824	13
0	5092	1874.341688786137	14
0	5097	1876.583498832142	14
0	5109	1878.380976673747	14
0	5111	1878.430892808925	15
0	5114	1879.695596441113	16
0	5118	1881.963525990902	15
0	5124	1883.033102213663	15
0	5127	1883.838417145518	15
0	5130	1884.010204317994	15
0	5134	1886.789438828424	14
0	5138	1888.482812237806	15
0	5141	1888.771802399481	16
0	5146	1889.265532896181	17
0	5152	1891.939923862118	17
0	5154	1892.063695525958	18
0	5165	1897.149962223792	15
0	5171	1897.983833711987	16
0	5186	1902.911097916586	16
0	5191	1903.755079659085	17
0	5199	1908.924537419805	12
0	5202	1909.069705278384	12
0	5207	1910.260709956718	12
0	5217	1913.668825045359	12
0	5221	1915.558199359153	13
0	5225	1916.593107888485	13
0	5227	1917.427681776997	14
0	5231	1919.74031962529	13
0	5235	1921.213632182338	14
0	5240	1922.147144745101	15
0	5243	1923.146863701978	16
0	5247	1925.989467655436	15
0	5259	1928.011219030376	16
0	5262	1929.184970125138	17
0	5264	1929.22106222365	18
0	5289	1938.200509066618	12
0	5293	1938.929956977034	13
0	5299	1940.457117924047	14
0	5303	1941.014185545483	15
0	5322	1945.280819875686	12
0	5328	1946.788643600907	12
0	5334	1953.96104851603	12
0	5350	1964.972850869541	8
0	5361	1967.976278891095	6
0	5363	1968.1722307259	7
0	5367	1969.720276982993	6
0	5371	1970.38655337826	7
0	5376	1971.740521647448	8
0	5384	1974.203948934991	7
0	5393	1975.43732209432	7
0	5409	1979.762044194699	6
0	5411	1979.880740939367	7
0	5415	1980.140806979521	8
0	5418	1982.221385386693	9
0	5420	1983.503607959618	10
0	5423	1986.411738661299	10
0	5428	1988.735066392862	10
0	5434	1990.810303259688	8
0	5437	1991.557518572537	8
0	5444	1993.05878849401	7
0	5452	1995.509607235146	7
0	5454	1995.537042125767	8
0	5466	1996.75536558934	9
0	5472	1997.33920236492	10
0	5474	1997.455166383569	11
0	5476	1997.457303335245	12
0	5478	1997.575108739133	13
0	5482	1998.235088699689	14
1	0	0	0
1	5	1.611600276125	0
1	7	2.512758347282	1
1	8	3.559748350053	1
1	9	3.613883914474	0
1	14	5.023518400625	0
1	18	5.359592371221	1
1	20	6.696718654789	1
1	25	8.707879588763	1
1	26	8.77842448559	1
1	27	9.07211663122	0
1	29	9.287688919804	0
1	31	9.332136721439	1
1	33	9.370673397418	2
1	34	9.681087541227	2
1	38	11.361559946216	1
1	39	12.252322970157	0
1	47	13.04638746885	0
1	49	13.050209958704	1
1	56	15.285784926009	2
1	65	16.762644952978	3
1	67	17.222652473778	4
1	69	17.528219184692	5
1	73	19.191548963413	5
1	75	19.32791385197	5
1	77	20.821573651134	6
1	78	21.119160787726	6
1	79	22.968811776559	5
1	81	23.741250431892	5
1	82	23.779103210072	5
1	83	24.955574382587	4
1	84	25.21159727384	3
1	85	26.038599178694	2
1	87	26.590973880965	2
1	91	27.377308311207	2
1	93	27.740093470164	2
1	94	28.055332858429	2
1	98	29.481267203546	1
1	102	30.996426731472	1
1	104	31.715123585089	2
1	110	33.121210412011	3
1	116	33.765853747753	4
1	119	36.099085033947	4
1	123	37.851522426693	3
1	124	38.05225680937	2
1	125	39.485773287583	1
1	126	39.71919731398	0
1	128	40.765099071438	0
1	129	40.96173185079	0
1	137	43.140673249638	0
1	139	43.287200008344	1
1	140	44.610615570934	1
1	142	45.257950273449	1
1	146	47.086656236092	2
1	148	47.43687846879	2
1	152	48.045123999453	2
1	154	50.767861205452	2
1	156	51.000816194993	2
1	158	53.209497989955	3
1	163	53.636295504597	4
1	168	55.41488092815	5
1	172	58.44933304614	5
1	177	59.311102926472	5
1	182	61.257700267	6
1	188	62.328223507482	7
1	190	62.397624050049	8
1	193	65.512073687312	8
1	194	65.988450408575	7
1	195	66.224056929693	6
1	197	66.389130306538	6
1	199	67.61915762176	7
1	201	68.6219286083	8
1	202	69.833298239	8
1	203	72.422954898616	7
1	218	74.520070137919	7
1	221	76.835652867157	7
1	222	77.192467725181	6
1	224	77.725894920592	6
1	225	78.159840022601	6
1	229	81.551353596516	5
1	233	82.542040900027	5
1	235	82.792331128146	5
1	236	82.969355426359	4
1	237	82.987629540049	3
1	239	83.561733679822	3
1	240	85.379579747451	3
1	242	85.857659271306	3
1	244	86.428574642286	4
1	246	86.708874611092	5
1	250	87.092555697211	6
1	259	92.949280488488	7
1	260	93.237427025051	7
1	264	94.508013451328	7
1	266	94.72295871939	7
1	268	94.732206426613	7
1	269	94.777856147334	7
1	270	95.203982990335	6
1	272	95.205845816036	6
1	273	95.668248411766	6
1	275	95.756282115984	6
1	276	96.345114877854	6
1	277	96.797550700599	5
1	279	97.350678260283	5
1	283	97.906237729815	5
1	284	97.963599174249	4
1	285	99.401675217779	3
1	286	99.47948897438	2
1	287	100.699050624914	1
1	289	100.903538630984	1
1	291	102.150014213542	2
1	293	102.773766744637	3
1	297	103.773620714368	4
1	300	104.171540885796	5
1	305	105.109114400417	6
1	306	105.977133180246	6
1	308	106.044459128139	6
1	309	109.58380094243	6
1	316	112.248816529953	5
1	317	112.351862911867	4
1	318	113.212773405407	3
1	320	113.617627922438	3
1	327	116.692115023452	3
1	331	118.069645739752	3
1	339	119.599723900723	3
1	344	121.607229673037	3
1	345	122.717460511729	3
1	346	122.890048916837	2
1	354	124.716174198311	2
1	358	125.626152514486	3
1	363	127.377535353123	3
1	367	128.093404686376	2
1	368	128.252523649073	1
1	369	128.462423699954	0
1	371	129.947902801033	0
1	372	130.031461321302	0
1	381	131.9839225024	0
1	387	133.443744723661	1
1	389	133.602534563023	2
1	391	134.775136415646	2
1	392	137.781937569575	1
1	397	138.750286703179	1
1	399	140.638557600931	2
1	406	141.70757238879	3
1	410	141.93202227933	4
1	414	143.475018992869	5
1	418	144.070341269073	6
1	420	144.247929284606	7
1	424	146.527489218046	8
1	427	149.723352983106	8
1	428	150.19931452048	7
1	430	150.563840146263	7
1	431	151.246657601612	7
1	433	152.152208678034	7
1	437	152.812249970875	8
1	448	155.97324962403	8
1	450	156.296776236302	8
1	454	157.734039233462	8
1	458	158.384175418766	8
1	469	160.101387012821	9
1	471	161.181810562984	9
1	473	162.070143634201	9
1	475	162.386596023595	10
1	477	162.532327205309	11
1	478	163.192893195104	11
1	479	163.32646621147	10
1	480	163.434021590109	9
1	482	164.412914473801	9
1	486	165.089696752369	10
1	489	165.265078561053	11
1	491	165.649464183404	12
1	493	166.419444827583	13
1	494	166.558805108041	13
1	496	166.884954667653	13
1	498	167.1881366138	14
1	499	167.91784471421	14
1	500	168.010531987003	13
1	504	168.932650955093	13
1	506	168.946851686748	14
1	514	170.294696971252	14
1	516	171.489391421069	14
1	518	172.751224700901	15
1	519	172.84645529974	15
1	521	173.297790499033	15
1	523	173.338809114457	16
1	530	176.277073123897	16
1	534	176.663515547977	16
1	542	178.851188053608	16
1	544	178.871936016986	16
1	549	180.396301790422	17
1	550	181.277850462806	17
1	554	183.64017262495	16
1	564	187.353128807131	16
1	567	188.545711244801	17
1	569	188.638681514752	18
1	570	189.502888601014	18
1	571	189.514528909423	17
1	578	190.513788841081	16
1	579	191.241343756243	15
1	583	193.469284468271	14
1	584	194.255168874397	13
1	588	195.691337074453	13
1	593	196.908390534778	13
1	594	198.309092569144	12
1	596	198.47201404953	12
1	597	198.84817616959	12
1	606	201.163093167108	12
1	610	201.907522526141	13
1	614	202.978981379732	13
1	621	204.23583579116	12
1	623	205.251809436095	12
1	627	205.712446857865	12
1	631	206.962189659536	11
1	632	207.137488210579	10
1	639	208.47571492493	10
1	641	209.229246307847	11
1	644	211.176508870158	12
1	645	211.353768326441	12
1	646	212.760998707561	11
1	647	214.292259227695	10
1	652	214.528975416502	10
1	657	216.50276889298	11
1	661	218.656653791643	11
1	662	219.033896085499	10
1	663	219.897354087622	9
1	664	220.688644168664	8
1	665	221.866327221094	7
1	666	222.986386668466	6
1	670	223.501076292729	5
1	672	225.765904906916	5
1	677	226.57609444232	6
1	679	226.748631884781	7
1	681	226.801652231121	8
1	682	227.216352664781	8
1	684	227.511163540082	8
1	685	227.704279447956	8
1	686	227.818632012663	7
1	688	229.492436188407	7
1	689	229.653624769026	7
1	690	229.848444864734	6
1	691	231.175535820311	5
1	692	231.704781555838	4
1	693	231.735767818318	3
1	694	232.133475042153	2
1	695	232.486494726627	1
1	696	232.562303681947	0
1	698	233.945136802938	0
1	699	234.208510638731	0
1	701	234.31669139753	0
1	702	234.63316726862	0
1	712	239.067729194791	0
1	714	240.070468959862	0
1	718	241.825299478477	0
1	723	242.376238409733	0
1	725	242.420713291421	0
1	726	243.230590179783	0
1	735	244.713718358535	0
1	738	245.696855357636	0
1	740	245.81920560411	0
1	741	245.919389886712	0
1	746	249.461294644965	0
1	750	249.892958649829	0
1	758	253.144732402934	0
1	762	255.348458541358	1
1	765	257.776826719776	2
1	766	259.281919980789	2
1	767	259.648076824512	1
1	769	260.535040117949	1
1	771	261.240024353318	2
1	772	261.860308595143	2
1	777	263.810010717872	2
1	778	264.076436327169	2
1	782	264.61409567739	2
1	785	265.506744539323	3
1	789	266.832208485703	3
1	790	267.242549788772	2
1	794	268.725229450691	1
1	795	270.143762997303	0
1	797	270.148071467344	0
1	802	272.777785378145	1
1	804	273.027819586549	2
1	805	273.510695623332	2
1	807	273.829111208011	2
1	814	278.84276845982	2
1	818	280.838202004371	1
1	823	282.160988369656	1
1	824	282.343988376351	1
1	828	283.395174523737	1
1	834	284.670154460246	2
1	840	285.055669888567	3
1	847	287.475666284281	4
1	851	288.814909694248	5
1	854	289.254468567843	6
1	855	291.407330833983	6
1	857	293.237829614921	6
1	861	295.085525287371	6
1	863	295.610336070003	6
1	864	295.650118757585	6
1	866	295.872653993157	6
1	867	296.563698509418	6
1	868	296.667203558968	5
1	870	297.796128404333	5
1	874	298.489594547619	5
1	875	298.546426401892	4
1	876	299.934909197499	3
1	880	301.329402632475	2
1	885	303.49762655681	2
1	886	304.034442253254	2
1	888	304.701344693788	2
1	892	305.691819340062	2
1	899	309.038246557033	1
1	903	309.734082977518	0
1	905	309.938689700746	0
1	907	310.083086890498	1
1	909	311.222816916593	2
1	913	314.79362610707	2
1	920	317.316512879895	1
1	922	318.152918493468	1
1	923	319.334166582306	1
1	924	319.441548767553	0
1	926	320.238168304601	0
1	928	320.310575680313	1
1	929	320.420938659767	1
1	930	321.08981718131	0
1	932	322.667931836395	0
1	945	325.461788386247	0
1	952	326.47604252563	0
1	954	327.230436771698	0
1	958	327.862159855752	0
1	962	328.916306639288	1
1	966	330.006473151339	2
1	970	331.109418691941	2
1	972	331.461883548392	2
1	973	331.832484473313	2
1	974	333.01824694304	1
1	976	333.400028520266	1
1	978	334.628616220523	2
1	980	335.834733500673	3
1	981	336.39142826074	3
1	983	336.795318034617	3
1	984	336.943027623542	3
1	985	337.093775219948	2
1	986	337.263525946491	1
1	987	337.87037145018	0
1	989	338.96847353818	0
1	996	341.077790629855	0
1	1007	345.48057508211	0
1	1008	345.500422693803	0
1	1010	346.263970295315	0
1	1011	346.908954164054	0
1	1013	347.784106982873	0
1	1015	348.450255101601	1
1	1019	349.783444083112	2
1	1030	351.559268105451	3
1	1032	351.69851369791	4
1	1034	355.047267916368	4
1	1036	355.054976814768	4
1	1037	356.813732229972	4
1	1038	357.967626268685	3
1	1042	359.329487672344	2
1	1043	359.41998197148	1
1	1048	360.700694853374	1
1	1052	361.53215158686	2
1	1054	363.289421190246	2
1	1056	363.535857578906	2
1	1058	363.895712719098	3
1	1059	364.163838359179	3
1	1063	365.033467258673	3
1	1065	365.131010145378	4
1	1067	365.221671965518	4
1	1069	365.453930850565	4
1	1071	365.784795744161	5
1	1075	366.101435559252	5
1	1076	366.452251484052	4
1	1077	366.519294250946	3
1	1085	368.518028400824	3
1	1086	368.721210501174	3
1	1087	369.314811959141	2
1	1089	370.581057231721	2
1	1090	372.166568272383	2
1	1091	372.604577101524	1
1	1096	374.504336987901	1
1	1100	375.810016235943	2
1	1102	375.929042711835	3
1	1108	377.282381574738	4
1	1115	380.213756423355	5
1	1117	381.358513151216	5
1	1119	382.032244767252	5
1	1127	383.251734753314	6
1	1137	385.132687035413	7
1	1139	385.218628432655	7
1	1141	385.417753565063	7
1	1143	385.978291590922	8
1	1144	387.347854509845	8
1	1146	387.551023816741	8
1	1147	388.427870156884	8
1	1149	389.06152008968	8
1	1154	391.309211944487	9
1	1156	391.382038141774	10
1	1161	392.07346887727	11
1	1162	392.911936577779	11
1	1163	392.922052594029	10
1	1164	393.357113814332	9
1	1165	393.840022653864	8
1	1166	394.943837316014	7
1	1168	395.833610795891	7
1	1170	396.253376492353	8
1	1171	396.350026301318	8
1	1172	396.422980608749	7
1	1173	396.709943411617	6
1	1179	398.641195020377	6
1	1194	403.361534707895	6
1	1195	404.198417455111	5
1	1199	404.485633506959	5
1	1202	406.33527240852	6
1	1207	407.911063360746	7
1	1215	410.280773609355	8
1	1222	413.120104388589	8
1	1223	415.540797134668	7
1	1228	415.968582905208	7
1	1232	416.288583552816	8
1	1234	417.720047024052	8
1	1235	417.941028423197	7
1	1236	418.585247288467	6
1	1237	419.764653564817	5
1	1241	420.637075743527	5
1	1243	420.959764576186	5
1	1244	420.990860705198	4
1	1245	421.934402259996	3
1	1246	422.011564829388	2
1	1247	423.294524072637	1
1	1248	423.661392062302	0
1	1250	423.987845067052	0
1	1251	424.123107703246	0
1	1259	427.155546319327	0
1	1260	427.272169581061	0
1	1262	427.666627073222	0
1	1263	428.29214788466	0
1	1268	429.467952489841	0
1	1272	430.243079730177	0
1	1274	431.581121290293	0
1	1275	434.103858514602	0
1	1277	436.259457993317	0
1	1279	436.324586584245	1
1	1280	436.603683349057	1
1	1281	436.864823973646	0
1	1283	437.468877605879	0
1	1285	438.127368102882	1
1	1287	438.657333018896	2
1	1288	440.628604976562	2
1	1289	441.71673614835	1
1	1290	443.895028557026	0
1	1292	445.654494150166	0
1	1293	447.30780492035	0
1	1297	447.640206370362	0
1	1303	449.13378036333	1
1	1304	449.544694625849	1
1	1308	450.824977122694	1
1	1310	450.933040781392	2
1	1313	451.169186264204	3
1	1315	451.503634306163	4
1	1319	452.613623198856	4
1	1320	452.854314285687	3
1	1321	453.212314165146	2
1	1325	453.701177698103	1
1	1326	454.315125724766	0
1	1336	457.735335409686	0
1	1341	459.05955400953	0
1	1343	459.18005853603	0
1	1344	459.349918380121	0
1	1349	459.952726130787	0
1	1351	460.089253946609	1
1	1352	460.183445717969	1
1	1359	463.399907932324	0
1	1361	464.590771522298	0
1	1374	469.291674013045	1
1	1376	469.960874031225	1
1	1384	471.947797664455	1
1	1386	474.068836328435	2
1	1387	474.701918977529	2
1	1388	475.195446885087	1
1	1389	475.474378219841	0
1	1391	479.072729588865	0
1	1393	479.470945593589	1
1	1394	479.99068032483	1
1	1395	480.184538155785	0
1	1397	481.929626505769	0
1	1398	482.043148167745	0
1	1400	483.225987277274	0
1	1401	483.367898446713	0
1	1408	489.671617696454	0
1	1410	490.191034751226	1
1	1412	490.276689691536	2
1	1414	490.396090848056	3
1	1419	493.131144236836	3
1	1421	493.856889191355	3
1	1423	494.667669946127	4
1	1425	495.315639196211	5
1	1426	495.54282760539	5
1	1430	496.819015860737	5
1	1433	496.922477663246	6
1	1435	498.55880411997	7
1	1436	498.798301129491	7
1	1437	500.962309472851	6
1	1438	502.547708082213	5
1	1440	503.05159144102	5
1	1442	503.282870963819	6
1	1444	503.309946209048	7
1	1446	503.423209520566	8
1	1448	505.838135686679	9
1	1449	505.937152611603	9
1	1451	506.032513048644	9
1	1452	506.085177689351	9
1	1456	506.738575112396	8
1	1461	507.154154290516	8
1	1463	507.373060087277	9
1	1467	508.774873256773	9
1	1468	509.496948983515	8
1	1469	510.1223415701	7
1	1471	511.249984609303	7
1	1472	513.247285456318	7
1	1474	513.901937492724	7
1	1476	514.585717747642	8
1	1477	515.191792135423	8
1	1481	518.547247326719	7
1	1482	519.204695408378	6
1	1483	519.516367269109	5
1	1484	521.065099006399	4
1	1485	524.762891080321	3
1	1493	528.75461130731	3
1	1497	529.579099495093	3
1	1498	530.141159668458	2
1	1500	530.373494613139	2
1	1501	530.770991579777	2
1	1503	530.940509450807	2
1	1504	531.305916236507	2
1	1505	531.61664031068	1
1	1506	531.98152478486	0
1	1511	534.633794232729	0
1	1513	534.947379410606	1
1	1515	535.643730841933	2
1	1516	535.72914832468	2
1	1517	536.083341547459	1
1	1524	539.761918467167	0
1	1529	540.11136070169	0
1	1530	540.721996539613	0
1	1535	543.757601925723	0
1	1536	543.884591155563	0
1	1543	549.085121989691	0
1	1548	550.023028793844	1
1	1550	553.344297386635	1
1	1552	553.552974503478	1
1	1554	553.837959344187	2
1	1558	554.598487877522	3
1	1560	555.345404038348	3
1	1561	556.074679414412	2
1	1565	558.581061574125	1
1	1566	559.566053155293	0
1	1568	559.924064348243	0
1	1570	560.349452940517	1
1	1572	560.785655990812	2
1	1573	561.075629405276	2
1	1575	561.786095090868	2
1	1577	561.810887594968	3
1	1578	563.221276917054	3
1	1582	566.099051218875	2
1	1584	566.113877506702	2
1	1586	567.899719092116	3
1	1588	568.850268149865	4
1	1589	569.678306438377	4
1	1590	569.703150381094	3
1	1591	570.26638275012	2
1	1592	571.026062456386	1
1	1593	571.217484610501	0
1	1595	572.638064552033	0
1	1596	573.283397327694	0
1	1598	573.62165087529	0
1	1599	574.425166941788	0
1	1601	574.841287874637	0
1	1603	574.848088791841	1
1	1604	575.463727216581	1
1	1606	575.567612803738	1
1	1612	577.256870926265	2
1	1616	578.964998045724	3
1	1618	579.314917801716	4
1	1619	579.518897862081	4
1	1624	580.245554578869	4
1	1625	580.403612725368	4
1	1627	580.485593711358	4
1	1628	581.227908091797	4
1	1630	581.299694523376	4
1	1631	584.348425199026	4
1	1635	586.737547297417	3
1	1636	588.005661605277	2
1	1638	588.321030882045	2
1	1640	588.840142505229	3
1	1641	589.24425053965	3
1	1642	591.375286840407	2
1	1646	593.067470481858	1
1	1647	593.383579406216	0
1	1652	597.851992777721	0
1	1654	599.560644074563	1
1	1656	600.876654882804	2
1	1661	601.618452050992	3
1	1666	605.105167915127	4
1	1668	605.98257971374	5
1	1670	606.214587006594	6
1	1671	607.018817942361	6
1	1672	607.556372826556	5
1	1674	607.788632804405	5
1	1676	608.161903517863	6
1	1677	608.36619234353	6
1	1679	608.63422763153	6
1	1681	608.943398559884	7
1	1685	609.393578895051	8
1	1688	609.847412401553	9
1	1689	609.90027723273	9
1	1690	609.930577346191	8
1	1694	611.354193355004	7
1	1696	611.502304100335	7
1	1697	613.4986805397	7
1	1698	614.302868678115	6
1	1699	614.540527776292	5
1	1701	615.650596182852	5
1	1703	616.575368639195	6
1	1704	616.587965138001	6
1	1705	616.710348606512	5
1	1706	618.55446674582	4
1	1708	619.831345929452	4
1	1709	619.912561463508	4
1	1713	623.015977137647	3
1	1715	624.270203241049	3
1	1719	625.300534703371	3
1	1720	625.548800306889	2
1	1722	626.060769141536	2
1	1723	626.509115306787	2
1	1728	626.852629656313	2
1	1730	626.907728253168	3
1	1734	627.59977515774	4
1	1736	628.177746517717	4
1	1737	628.419765964477	3
1	1738	629.482076694082	2
1	1743	630.125840779656	2
1	1745	631.73263107663	3
1	1746	631.892817346376	3
1	1747	632.537024302181	2
1	1749	632.772842446331	2
1	1750	633.443361308361	2
1	1751	633.638399927196	1
1	1752	633.778319535192	0
1	1756	636.448947518858	0
1	1758	638.487498223969	0
1	1760	639.042053169447	0
1	1764	640.620474765984	0
1	1769	644.696733461025	0
1	1773	646.471304933817	0
1	1775	648.834274431338	0
1	1776	649.591220440466	0
1	1778	650.350555052934	0
1	1779	651.964311306156	0
1	1781	652.583583323969	0
1	1782	654.07080127615	0
1	1784	661.116201300555	0
1	1786	661.387455513721	1
1	1790	661.651927119788	2
1	1795	663.521103434911	2
1	1801	664.744008402179	2
1	1804	665.347020502727	3
1	1806	665.40824476971	4
1	1808	666.298671253931	4
1	1809	666.329993635847	3
1	1810	666.689803988777	2
1	1812	666.699391105923	2
1	1816	669.801376956808	2
1	1817	670.428825956541	1
1	1821	672.432693277916	0
1	1825	673.106926965026	0
1	1834	679.476748842436	1
1	1836	680.095175600532	2
1	1841	681.756098187447	3
1	1842	681.911028125871	3
1	1855	683.759920729339	3
1	1857	684.33148256636	3
1	1859	684.842325729964	3
1	1860	686.157404093223	3
1	1861	687.02832039852	2
1	1862	687.379521541126	1
1	1864	687.971214524492	1
1	1865	688.202695633125	1
1	1869	689.692576492081	1
1	1892	695.158960839669	2
1	1894	695.338016547196	2
1	1896	696.071454274788	2
1	1897	696.852132661525	2
1	1899	698.294526955953	2
1	1907	703.17282200682	3
1	1911	706.07279937929	3
1	1912	706.806886077818	2
1	1917	708.578671456924	2
1	1921	710.305747051612	2
1	1923	710.587603430874	2
1	1924	710.873246170531	2
1	1925	710.993315040718	1
1	1926	711.646640072049	0
1	1931	714.805513029806	0
1	1932	714.956193336246	0
1	1942	718.102904994005	0
1	1944	718.425463308764	1
1	1947	720.118610871291	2
1	1948	720.415037895629	2
1	1949	721.296797314805	1
1	1950	721.716776173705	0
1	1954	722.551215877026	0
1	1962	726.150307248596	0
1	1967	728.332878237159	0
1	1969	729.78163054664	1
1	1992	734.896134236847	2
1	1993	736.650947729765	2
1	1994	738.146803421065	1
1	1995	738.842140229264	0
1	1997	741.20914975654	0
1	1999	741.42415479295	1
1	2001	741.759884442196	2
1	2003	743.078798027627	3
1	2004	743.194770182567	3
1	2006	743.91805517697	3
1	2008	745.524923470084	4
1	2010	746.117006270831	5
1	2018	748.421802007114	6
1	2022	750.521863430483	7
1	2024	750.873292544103	7
1	2032	753.570181744199	7
1	2033	754.02224794493	7
1	2034	754.367463556129	6
1	2035	754.401132378117	5
1	2036	754.529168521215	4
1	2038	754.907804858776	4
1	2040	754.945017898195	5
1	2042	755.09213839706	6
1	2050	757.537800740479	7
1	2051	759.572606851488	7
1	2055	759.885242694393	7
1	2058	761.25793184434	8
1	2060	761.356657701153	9
1	2062	761.358231339736	10
1	2064	761.419077576166	11
1	2065	761.520711610979	11
1	2069	765.295879005052	10
1	2070	766.576721054089	9
1	2071	768.007000339104	8
1	2075	768.136660193491	8
1	2077	769.013514263657	8
1	2078	769.171322720964	7
1	2087	771.149013590369	7
1	2090	772.132338909092	7
1	2091	772.602559547997	6
1	2096	774.772037730155	6
1	2097	775.034930803236	6
1	2098	775.425671993583	5
1	2099	775.495917026889	4
1	2110	778.637734910761	4
1	2114	779.130523859542	5
1	2118	779.671838254334	6
1	2124	787.834007347361	6
1	2126	788.439288265184	6
1	2133	789.664554561591	7
1	2136	790.214385270024	8
1	2137	790.830092078307	8
1	2144	792.988521223239	7
1	2145	793.463260342952	6
1	2146	793.527372322137	5
1	2147	793.668530212994	4
1	2148	794.488140096141	3
1	2150	794.946130643843	3
1	2152	795.656219188823	4
1	2154	796.776475271988	5
1	2155	798.986600139611	5
1	2163	801.246967536402	5
1	2165	801.318023686939	6
1	2166	802.23392016953	6
1	2167	802.716777841901	5
1	2171	803.472376517791	4
1	2172	803.91602286187	3
1	2174	804.246274457322	3
1	2175	804.48343642848	3
1	2177	804.651328070611	3
1	2179	806.232802010307	4
1	2180	807.674249817761	4
1	2181	807.915814722363	3
1	2182	808.719550919596	2
1	2183	809.49586837047	1
1	2184	809.752144080529	0
1	2186	810.408158636355	0
1	2187	811.092088165532	0
1	2189	813.207785158356	0
1	2190	813.295715291904	0
1	2192	813.327470256732	0
1	2194	813.581817874859	1
1	2195	813.605417135087	1
1	2196	813.947910857476	0
1	2198	815.332763706528	0
1	2200	816.593704101737	1
1	2205	817.414281372087	2
1	2207	817.642977191978	3
1	2211	818.205572577393	3
1	2212	820.098361238532	2
1	2217	821.765829792715	2
1	2219	822.593939019046	3
1	2220	822.636384231861	3
1	2221	823.743963317976	2
1	2223	823.822747143489	2
1	2225	823.916459497359	3
1	2230	826.921999982949	4
1	2234	829.711054293295	4
1	2235	830.119552508281	3
1	2236	830.853818946335	2
1	2237	831.314392254911	1
1	2247	834.915220150504	0
1	2249	836.46041394474	0
1	2251	836.465762342487	1
1	2255	837.253413514344	2
1	2257	837.348853327602	3
1	2260	837.953455501456	4
1	2264	840.195768832292	4
1	2265	840.706614288608	3
1	2267	841.453618106686	3
1	2268	841.932189119415	3
1	2270	843.015090364484	3
1	2271	843.290130674842	3
1	2276	845.698337097629	3
1	2278	846.614809661106	4
1	2280	847.732005897404	5
1	2282	848.184046389101	6
1	2289	851.418066883521	6
1	2294	852.925980356967	6
1	2298	852.98958694778	6
1	2300	853.189091923076	6
1	2301	853.516106982754	6
1	2308	855.600888193059	5
1	2310	855.851303700065	5
1	2312	856.542519056229	6
1	2313	858.591599149956	6
1	2314	858.899166864945	5
1	2315	859.133868259932	4
1	2317	860.138979337761	4
1	2319	860.976660207171	5
1	2320	860.988754695276	5
1	2324	862.681685129459	4
1	2329	864.422551226442	4
1	2330	865.994115767351	4
1	2331	866.275386743854	3
1	2332	866.649663998319	2
1	2333	867.479528836828	1
1	2338	868.519525963588	1
1	2342	869.770988515398	1
1	2343	869.896943005565	0
1	2348	873.631812612453	0
1	2349	873.978661059674	0
1	2351	874.17689112856	0
1	2353	874.232806295293	1
1	2355	876.440821145062	2
1	2357	876.575602388254	3
1	2361	880.290039175836	3
1	2365	881.455645602761	2
1	2372	883.009644886778	1
1	2377	885.235807223137	1
1	2379	885.441540584081	2
1	2380	885.846461678031	2
1	2382	886.153814431445	2
1	2384	887.181538074871	3
1	2385	887.78267947108	3
1	2389	888.963449744365	3
1	2391	889.62649270286	4
1	2411	900.403316490705	4
1	2413	900.615083400298	4
1	2417	902.726971328294	4
1	2419	903.132578811609	4
1	2421	903.679547092872	5
1	2422	903.898837633871	5
1	2423	905.853095763594	4
1	2425	907.635324995623	4
1	2427	910.148379116709	5
1	2431	911.790351476379	6
1	2437	914.098788238076	7
1	2439	914.241436372724	8
1	2440	914.407414665616	8
1	2441	914.47888824347	7
1	2443	914.612538387727	7
1	2447	914.700869635541	8
1	2450	915.338833933661	9
1	2454	916.589566410276	9
1	2456	916.623347309943	9
1	2457	916.913917321629	9
1	2461	917.358563632731	8
1	2469	920.411305315595	8
1	2473	921.881726707209	8
1	2475	922.247669185073	8
1	2480	924.087124294879	9
1	2481	924.711756495831	9
1	2482	925.330596973694	8
1	2483	925.936718876011	7
1	2487	926.442568711119	7
1	2489	927.234288829631	7
1	2491	927.454449323344	7
1	2492	928.019822434651	7
1	2493	928.341141361804	6
1	2494	929.473959454108	5
1	2496	929.927174995021	5
1	2500	930.39306517189	6
1	2502	930.504497138643	7
1	2510	932.67541071201	8
1	2519	933.9056661674	9
1	2521	933.950899331561	10
1	2525	935.14797720501	11
1	2530	936.953117127186	12
1	2532	937.381309541801	13
1	2535	938.314175277676	14
1	2537	938.462647725958	15
1	2538	941.055145845838	15
1	2548	943.181739661542	15
1	2553	945.202654029026	15
1	2555	945.996921126563	15
1	2556	947.193139418118	15
1	2560	947.794718034605	14
1	2562	949.501226851903	14
1	2563	950.505650824263	14
1	2564	951.177862603587	13
1	2569	951.913489426621	13
1	2570	952.321392343308	13
1	2571	953.154004364303	12
1	2573	953.168187845634	12
1	2574	953.218826621177	12
1	2575	953.222842693865	11
1	2576	954.047095580522	10
1	2577	954.986422679102	9
1	2578	955.515913679035	8
1	2579	955.807219720785	7
1	2581	956.787481257119	7
1	2582	956.853241292284	7
1	2584	957.693312329618	7
1	2586	959.28446641568	8
1	2590	960.139958401411	8
1	2591	960.204580017818	7
1	2593	962.606283785991	7
1	2595	963.466014905854	8
1	2602	964.662732650244	9
1	2604	965.823771283365	9
1	2606	965.9812530892	9
1	2608	966.042476011801	10
1	2613	968.673922620158	11
1	2620	969.655743124881	12
1	2628	971.824086899242	12
1	2633	972.760273114117	12
1	2640	975.237723108704	12
1	2647	979.632903636335	11
1	2648	980.09322395915	10
1	2649	980.151742521757	9
1	2653	982.699349849546	8
1	2657	982.972458267869	8
1	2659	984.296370026088	8
1	2660	984.793505234082	7
1	2662	985.322786667105	7
1	2666	985.693133615426	8
1	2668	985.872182068869	8
1	2670	985.916711702177	8
1	2671	986.197257149671	8
1	2681	988.328191507658	7
1	2682	988.42961917875	6
1	2683	990.175767712114	5
1	2685	991.859280059314	5
1	2686	992.293934371922	5
1	2687	992.397350153677	4
1	2688	993.106785435796	3
1	2690	993.505713225263	3
1	2692	993.867580683215	4
1	2700	995.009581924565	5
1	2702	995.224631893041	6
1	2704	995.287592229722	7
1	2706	995.394184337736	8
1	2708	996.046629784902	9
1	2710	996.332080134265	10
1	2712	997.096774701215	11
1	2716	1000.522779236944	12
1	2721	1002.856962758784	12
1	2722	1003.28768494042	11
1	2724	1003.643016638838	11
1	2725	1004.289830058998	11
1	2727	1004.402948460292	11
1	2728	1005.528514733489	11
1	2733	1006.098849955786	11
1	2735	1006.220879328443	12
1	2736	1007.156220986794	12
1	2738	1007.767405380445	12
1	2739	1007.927855021299	12
1	2741	1009.509994292592	12
1	2743	1009.610848771286	13
1	2745	1010.163230399448	14
1	2750	1012.089880834841	15
1	2754	1012.494229728859	16
1	2757	1015.145278247521	17
1	2761	1016.395017748493	17
1	2762	1016.458233843273	16
1	2764	1016.759810980905	16
1	2765	1016.775471991854	16
1	2767	1016.873541765114	16
1	2769	1017.450099060962	17
1	2770	1019.78961028678	17
1	2771	1019.854409421966	16
1	2779	1020.737291557222	16
1	2780	1021.48334720083	16
1	2781	1021.710566343043	15
1	2782	1021.762792206366	14
1	2784	1021.856011988586	14
1	2785	1022.088101577258	14
1	2786	1022.421906621956	13
1	2787	1024.594801833245	12
1	2789	1026.149810322966	12
1	2790	1026.835567123668	12
1	2792	1026.982972737809	12
1	2793	1027.185265940381	12
1	2794	1027.478517453656	11
1	2796	1028.185575694535	11
1	2797	1028.326013987177	11
1	2799	1028.511889638872	11
1	2807	1030.537998027483	12
1	2808	1030.72908768271	12
1	2809	1030.75515624134	11
1	2811	1031.226004869369	11
1	2813	1031.336401714767	12
1	2814	1031.712949918779	12
1	2815	1033.090674526818	11
1	2819	1035.406199761076	10
1	2829	1037.147570234591	9
1	2830	1038.118262027206	8
1	2831	1038.324012026979	7
1	2832	1038.911896658637	6
1	2836	1039.697065127409	6
1	2838	1040.014578680022	7
1	2840	1040.017268033326	8
1	2842	1040.366091946834	9
1	2846	1041.69581566932	10
1	2855	1043.013564313863	11
1	2857	1043.128998182662	12
1	2864	1044.503287022626	13
1	2866	1044.580936457839	14
1	2875	1048.460536217657	14
1	2876	1050.377868974721	13
1	2878	1051.421879837355	13
1	2880	1052.079162950334	14
1	2881	1053.391394694892	14
1	2882	1053.543066447454	13
1	2883	1054.041313215821	12
1	2884	1054.390827334547	11
1	2886	1054.508805668388	11
1	2887	1056.643296864178	11
1	2888	1056.708929078687	10
1	2890	1056.75433710508	10
1	2891	1056.796232890399	10
1	2893	1058.289618396018	10
1	2897	1059.97003352278	11
1	2899	1060.468738556588	11
1	2903	1060.725211853384	11
1	2905	1061.074169430581	11
1	2916	1064.496881586005	11
1	2924	1067.353632890438	12
1	2929	1068.340361711455	13
1	2933	1069.420635384207	13
1	2939	1069.601507312364	13
1	2946	1071.725843859047	14
1	2947	1071.908268927404	14
1	2949	1072.104364900199	14
1	2950	1075.007115588551	14
1	2952	1076.013866522709	14
1	2953	1076.214029915219	14
1	2955	1076.889196549384	14
1	2956	1077.301827354286	14
1	2960	1078.870372653216	14
1	2962	1079.322168934449	14
1	2964	1080.674054630334	14
1	2968	1082.094027623331	14
1	2970	1082.274655191065	14
1	2971	1083.606603929883	14
1	2973	1083.635292766571	14
1	2975	1083.635866787651	15
1	2977	1085.111734585798	16
1	2981	1085.644989915908	16
1	2983	1086.426251437757	16
1	2984	1087.287045022923	16
1	2985	1087.893708875332	15
1	2987	1089.682747902604	15
1	2989	1089.741304909905	16
1	2991	1091.976071432375	17
1	2992	1091.977320882121	17
1	2993	1093.53243193879	16
1	2995	1093.620915097477	16
1	2997	1094.080907877159	17
1	2998	1095.168178273174	17
1	2999	1095.248173301311	16
1	3000	1097.285333418867	15
1	3001	1097.439051480076	14
1	3002	1099.073812111066	13
1	3009	1099.55117609496	12
1	3010	1099.996116878308	11
1	3011	1100.223113012913	10
1	3012	1101.034863918508	9
1	3013	1101.226358099696	8
1	3020	1102.773651144034	7
1	3021	1102.903309437065	6
1	3022	1103.181486733127	5
1	3029	1105.786591628401	4
1	3034	1107.848118144419	4
1	3035	1108.160951374476	4
1	3037	1109.995103337457	4
1	3039	1111.769205604888	5
1	3047	1112.798731314642	6
1	3048	1113.222369235499	6
1	3049	1115.55861882546	5
1	3050	1116.408079883169	4
1	3052	1116.874893703702	4
1	3054	1116.941784824277	5
1	3056	1117.309083318935	6
1	3066	1119.652404017424	7
1	3068	1120.000077123261	7
1	3069	1122.536443105003	6
1	3070	1122.940681104657	5
1	3071	1123.231234110158	4
1	3072	1124.245128155133	3
1	3076	1125.688089914917	3
1	3079	1127.232932369307	4
1	3086	1129.203727816333	4
1	3090	1130.225590456233	3
1	3091	1130.994407172346	2
1	3092	1132.339657586942	1
1	3094	1132.758472459357	1
1	3095	1133.512464935542	1
1	3096	1134.575496929989	0
1	3098	1135.626063245812	0
1	3104	1135.933217626188	1
1	3110	1138.882575597476	1
1	3112	1139.041972344218	1
1	3114	1139.501554201532	2
1	3116	1140.114199731796	3
1	3117	1140.204830014004	3
1	3118	1140.794045870669	2
1	3122	1142.431249270544	2
1	3125	1143.822244462981	3
1	3132	1146.215112318383	3
1	3136	1146.640328238954	2
1	3137	1148.950822310968	1
1	3145	1150.878840139481	1
1	3146	1152.000022847911	1
1	3148	1152.310448546241	1
1	3149	1152.600337926336	1
1	3151	1152.746594815243	1
1	3153	1153.029407738363	2
1	3155	1153.568395255815	3
1	3156	1153.792975720007	3
1	3160	1154.869800594328	3
1	3162	1156.363901250681	3
1	3164	1157.064448609387	3
1	3166	1157.537943924221	4
1	3167	1158.329879085024	4
1	3168	1158.699718017022	3
1	3172	1161.224165596558	2
1	3173	1161.482682086056	1
1	3175	1161.666304275084	1
1	3179	1162.819138157918	1
1	3184	1163.545158212778	1
1	3192	1164.793971334867	2
1	3194	1164.929683242463	3
1	3210	1169.789158150417	3
1	3212	1170.775025831917	3
1	3214	1171.167007460099	4
1	3215	1171.33288423712	4
1	3221	1174.884790394859	4
1	3224	1175.712271365781	4
1	3225	1177.446178491908	3
1	3227	1177.679801611349	3
1	3229	1178.106944359547	4
1	3230	1178.751591655884	4
1	3232	1179.309523801315	4
1	3233	1179.744831602801	4
1	3241	1180.997900553816	4
1	3242	1181.300801023504	4
1	3244	1181.31640845024	4
1	3245	1181.486338966779	4
1	3256	1185.689221730692	4
1	3257	1186.236911931219	4
1	3258	1187.497923567887	3
1	3260	1188.27374702462	3
1	3270	1191.072830313383	4
1	3272	1191.288968097266	5
1	3275	1192.24461604522	6
1	3289	1196.015237769109	7
1	3290	1196.117284030347	7
1	3291	1196.579037688774	6
1	3293	1198.579919542424	6
1	3297	1199.384945412843	7
1	3309	1201.996602813583	8
1	3310	1202.409261747592	8
1	3312	1202.847168538825	8
1	3313	1202.950714614949	8
1	3318	1205.139272841817	8
1	3322	1206.757816320945	9
1	3324	1207.194920225733	10
1	3326	1207.78336241763	11
1	3333	1208.742994354068	12
1	3336	1209.1941453149	12
1	3337	1209.228873840222	11
1	3345	1211.208058968542	11
1	3350	1211.915089052986	12
1	3351	1212.331020729649	12
1	3353	1214.581358593965	12
1	3355	1214.589844336479	13
1	3356	1215.868540743794	13
1	3357	1217.154931699768	12
1	3371	1220.841713061009	12
1	3372	1221.186996405106	12
1	3374	1221.195512533829	12
1	3381	1223.689473464343	12
1	3382	1224.231600610533	11
1	3387	1224.591662032772	11
1	3388	1225.25370865789	11
1	3389	1225.434277280745	10
1	3390	1225.474099882324	9
1	3391	1226.079066593599	8
1	3392	1226.631095541069	7
1	3393	1229.00334435087	6
1	3395	1229.742351255178	6
1	3397	1229.822876291473	7
1	3402	1232.277671181665	8
1	3404	1233.30963215098	9
1	3405	1233.547887614479	9
1	3412	1237.640066248093	8
1	3413	1237.646792410183	7
1	3420	1239.015037092896	6
1	3422	1239.118772753799	6
1	3423	1239.954625885143	6
1	3424	1240.909339895255	5
1	3426	1241.531127066562	5
1	3432	1243.114907169046	6
1	3435	1243.205874586231	7
1	3437	1243.207898157243	8
1	3439	1244.018748844119	8
1	3446	1245.71736958776	7
1	3447	1246.263070616049	6
1	3452	1247.592998465046	6
1	3459	1251.139317735734	6
1	3461	1253.550091209405	6
1	3477	1258.677133434077	6
1	3481	1258.977336900684	6
1	3484	1260.123763736511	7
1	3488	1260.64803599309	8
1	3493	1263.917315296669	9
1	3495	1264.374014978203	9
1	3496	1264.963761302375	8
1	3498	1265.117128950338	8
1	3500	1266.450292060341	9
1	3501	1267.395923035595	9
1	3505	1268.052049039039	9
1	3510	1270.477835759985	9
1	3512	1272.533983872613	9
1	3522	1274.020974968437	9
1	3526	1277.361789003882	8
1	3530	1279.129483578383	7
1	3534	1280.851005737992	6
1	3536	1280.922454247153	6
1	3542	1281.947079475593	7
1	3545	1283.769293224836	7
1	3546	1283.785202896514	6
1	3557	1285.518765208091	6
1	3559	1285.672627342065	7
1	3560	1285.8623385094	7
1	3562	1287.003671914849	7
1	3564	1288.027241239319	8
1	3566	1289.476179511867	9
1	3568	1290.860863683462	10
1	3569	1291.539110876166	10
1	3570	1292.070370438777	9
1	3571	1292.640828934244	8
1	3573	1292.790149774241	8
1	3574	1293.377590953497	8
1	3575	1293.729309433055	7
1	3577	1294.379000404944	7
1	3578	1294.566605630687	7
1	3579	1297.018215968647	6
1	3580	1297.313393039011	5
1	3581	1297.602744689631	4
1	3594	1300.665118002995	4
1	3596	1301.543986263456	5
1	3598	1301.886219274328	6
1	3601	1303.104766661635	7
1	3602	1303.176033572804	7
1	3603	1303.221039794437	6
1	3604	1303.326655089069	5
1	3605	1303.574205261365	4
1	3609	1304.317631303618	4
1	3611	1304.812889686788	5
1	3625	1309.365187985443	5
1	3630	1311.127315052343	5
1	3631	1311.162312045258	5
1	3632	1312.024135720207	4
1	3633	1313.378566315468	3
1	3635	1314.231747026935	3
1	3636	1314.414885393178	3
1	3637	1314.906530733793	2
1	3638	1316.25578035528	1
1	3645	1319.917366011441	0
1	3647	1323.84304053141	0
1	3648	1323.862013468305	0
1	3650	1325.214274403648	0
1	3654	1326.101855847954	0
1	3656	1328.312499245093	0
1	3658	1329.108436191952	1
1	3659	1329.298901253125	1
1	3660	1329.606639487068	0
1	3662	1330.15801938492	0
1	3664	1331.735671292507	1
1	3665	1332.208827737427	1
1	3667	1332.768612644062	1
1	3669	1334.766588829434	2
1	3673	1335.881845342298	2
1	3674	1335.987770658193	1
1	3678	1336.233650587867	1
1	3680	1337.03350343346	1
1	3681	1337.091820632923	0
1	3683	1338.095676693861	0
1	3685	1338.952609737802	1
1	3686	1339.4423682577	1
1	3688	1339.739076464844	1
1	3693	1340.171600818383	2
1	3694	1340.477975764683	2
1	3695	1342.804382522489	1
1	3697	1343.991779183472	1
1	3699	1345.05943170281	2
1	3701	1347.423483241146	3
1	3709	1347.980416169796	4
1	3711	1348.702902995653	5
1	3716	1351.96754461873	6
1	3725	1353.669673911371	7
1	3729	1356.973425265926	8
1	3730	1357.224429822838	8
1	3731	1358.13398816881	7
1	3735	1359.381831487622	6
1	3737	1359.884080020873	6
1	3739	1360.333800595585	7
1	3741	1361.798209945552	8
1	3745	1363.501839389017	8
1	3746	1363.852070334038	7
1	3747	1364.086262074343	6
1	3748	1364.181892128778	5
1	3750	1364.235737637618	5
1	3751	1364.286622761897	5
1	3752	1365.481674172804	4
1	3754	1366.021962596834	4
1	3756	1366.024518531909	5
1	3760	1368.618143303399	6
1	3762	1369.713568358076	6
1	3763	1370.564324519958	5
1	3765	1370.672764626494	5
1	3766	1372.204586006486	5
1	3768	1372.294652815559	5
1	3769	1372.597825261178	5
1	3771	1373.528009873126	5
1	3778	1376.225059018225	5
1	3780	1377.990028017326	5
1	3784	1378.883076842268	5
1	3794	1381.039212347314	4
1	3796	1381.100111532973	4
1	3802	1381.869856017889	5
1	3805	1382.441710466918	5
1	3806	1383.24879022901	4
1	3807	1383.276661784484	3
1	3809	1383.338635543833	3
1	3810	1383.436403116354	3
1	3812	1384.264651601754	3
1	3814	1386.812796774238	4
1	3816	1386.918481447252	5
1	3817	1387.260383968802	5
1	3818	1387.945422910386	4
1	3825	1391.24479972229	3
1	3827	1391.312679744967	3
1	3828	1392.790625924933	3
1	3829	1392.955097612421	2
1	3830	1393.85607345761	1
1	3832	1394.277101458212	1
1	3836	1395.502371586556	1
1	3852	1399.738055539184	1
1	3855	1400.285168536596	2
1	3857	1400.938771388527	3
1	3859	1401.221100008437	4
1	3860	1401.752131838649	4
1	3865	1403.264385530943	4
1	3866	1403.960516257708	4
1	3868	1404.531867389584	4
1	3869	1404.826228072033	4
1	3870	1405.014726316502	3
1	3871	1405.836862928458	2
1	3873	1406.031776785068	2
1	3874	1407.238504893141	2
1	3875	1408.049049052903	1
1	3877	1408.100038518991	1
1	3879	1409.622792841177	2
1	3880	1411.305478214103	2
1	3882	1412.118887941888	2
1	3883	1413.081374093338	2
1	3890	1414.571936741058	2
1	3895	1415.417272825133	3
1	3897	1415.562217101727	4
1	3899	1415.740059241676	5
1	3907	1419.807265216154	5
1	3908	1421.306990450083	4
1	3910	1421.577257560553	4
1	3912	1422.133754952196	5
1	3913	1424.159511361149	5
1	3915	1424.929206481549	5
1	3916	1426.573347707241	5
1	3921	1428.320336227313	5
1	3926	1429.782547468084	6
1	3928	1430.192947225683	7
1	3935	1434.054176543584	7
1	3937	1435.313686875341	7
1	3939	1435.840864307892	8
1	3940	1436.900734092329	8
1	3942	1437.063341356346	8
1	3943	1438.744734730847	8
1	3945	1439.502048449828	8
1	3947	1440.559179076513	9
1	3948	1441.201719697944	9
1	3950	1442.477209793231	9
1	3951	1443.840217658273	9
1	3956	1445.272157974527	9
1	3957	1445.284068470816	9
1	3959	1445.346540726972	9
1	3960	1445.463509853252	9
1	3962	1445.724953681607	9
1	3963	1446.883978488367	9
1	3965	1446.948708772732	9
1	3966	1447.05813170784	9
1	3967	1448.629421377037	8
1	3969	1449.024076313816	8
1	3973	1449.800814135734	8
1	3974	1452.505330696273	7
1	3975	1453.255721789865	6
1	3976	1453.770403619314	5
1	3977	1453.837067239851	4
1	3978	1454.163611161678	3
1	3980	1454.29251291246	3
1	3981	1454.597580521947	3
1	3985	1455.513093806184	3
1	3987	1455.874081107643	4
1	3992	1458.198980938944	4
1	3993	1458.578846546426	3
1	3994	1458.853955597073	2
1	3995	1460.078677314363	1
1	3996	1460.478666471003	0
1	4003	1462.939430771437	0
1	4012	1464.80618566092	1
1	4013	1464.824506728816	1
1	4015	1465.685490228049	1
1	4016	1467.270688408843	1
1	4017	1467.424417012334	0
1	4021	1473.008099280015	0
1	4026	1476.334785205642	0
1	4031	1478.348951993814	0
1	4036	1479.741043760083	1
1	4041	1480.05685708062	2
1	4043	1480.072731987532	3
1	4045	1480.125487823745	4
1	4049	1480.998046759936	5
1	4051	1481.035033865948	6
1	4056	1482.981466876842	6
1	4057	1484.751215826897	5
1	4058	1484.878584064145	4
1	4060	1485.812375391882	4
1	4062	1485.96414170251	5
1	4064	1486.681440463009	6
1	4065	1487.869288070811	6
1	4069	1492.48357278386	5
1	4070	1492.521255272109	4
1	4071	1492.958463245823	3
1	4073	1493.248591177653	3
1	4075	1494.159430320525	4
1	4076	1494.71149919045	4
1	4081	1495.133614625565	4
1	4082	1495.536049910367	4
1	4083	1495.863305512009	3
1	4084	1497.659483817015	2
1	4089	1498.976737218303	2
1	4096	1501.47644392009	2
1	4097	1502.354053225308	1
1	4099	1503.973922713646	1
1	4109	1505.134324726487	1
1	4110	1505.695490862614	0
1	4112	1506.158964101063	0
1	4113	1506.765971433679	0
1	4127	1516.961420164839	0
1	4129	1517.45905140683	1
1	4130	1518.777607378834	1
1	4138	1520.229018001954	1
1	4145	1522.530350618982	1
1	4146	1522.642672625529	0
1	4148	1522.854369422209	0
1	4149	1523.157299706379	0
1	4154	1524.376887443308	0
1	4159	1524.849987909545	1
1	4160	1526.175299078071	1
1	4167	1527.181417838007	0
1	4169	1527.516267922432	0
1	4171	1527.52359338573	1
1	4172	1530.237910867461	1
1	4173	1530.395226125382	0
1	4175	1531.077966230575	0
1	4176	1531.721955946956	0
1	4181	1534.271802158774	0
1	4183	1535.066740928287	1
1	4184	1535.072499272964	1
1	4185	1535.896241884092	0
1	4190	1537.924329398944	0
1	4191	1538.61284629259	0
1	4198	1543.031972040764	0
1	4200	1545.138315851022	0
1	4202	1545.222987471724	0
1	4204	1545.372999889915	1
1	4205	1545.766357623491	1
1	4209	1549.497848482297	0
1	4220	1553.180333602653	0
1	4227	1556.345465261313	0
1	4229	1556.656201736484	0
1	4231	1557.030607452912	1
1	4232	1557.824005502795	1
1	4234	1558.913229917167	1
1	4236	1560.381872023846	2
1	4238	1560.720238185258	3
1	4240	1560.746808578653	4
1	4244	1564.666726442613	4
1	4245	1564.837033782682	3
1	4247	1565.159225292671	3
1	4248	1566.199833576822	3
1	4252	1569.104284059542	2
1	4253	1569.462344309133	1
1	4254	1570.035594762942	0
1	4262	1573.843776241258	0
1	4263	1574.073149212321	0
1	4265	1576.356406591956	0
1	4273	1581.692198391477	1
1	4281	1583.871102319494	2
1	4283	1584.006145078969	3
1	4285	1587.299507614712	4
1	4286	1588.652285473575	4
1	4294	1591.408011419271	4
1	4301	1593.105193877989	5
1	4304	1595.368684634447	6
1	4306	1596.080286149997	7
1	4308	1596.700091669322	8
1	4310	1597.336545527452	9
1	4312	1597.497016125506	10
1	4314	1598.752563404576	11
1	4315	1598.782236470393	11
1	4319	1599.774312664793	10
1	4320	1601.408805668527	9
1	4322	1602.213304320691	9
1	4330	1603.726918293542	10
1	4332	1603.996238394904	11
1	4336	1604.868285930635	11
1	4340	1607.208638974365	10
1	4344	1608.287830182974	9
1	4345	1609.64232033594	8
1	4346	1610.51255015387	7
1	4348	1611.142020783116	7
1	4349	1611.905979057595	7
1	4350	1612.718576679624	6
1	4358	1614.376199131279	6
1	4360	1614.5577270202	7
1	4364	1615.893266620246	7
1	4366	1616.888977517483	7
1	4367	1617.400936502641	7
1	4368	1618.055131895491	6
1	4374	1619.662304083871	6
1	4380	1621.923905911213	6
1	4390	1624.290695269787	6
1	4395	1625.744376466353	6
1	4396	1627.516329635821	5
1	4401	1628.330108152512	5
1	4403	1629.183362268162	6
1	4404	1629.747849639721	6
1	4405	1631.867060979691	5
1	4406	1632.846488730488	4
1	4417	1635.312909412948	4
1	4418	1635.340252512825	4
1	4419	1635.416805372425	3
1	4420	1635.962532258921	2
1	4427	1637.375770565805	2
1	4429	1637.64320495135	3
1	4431	1638.336878866543	3
1	4433	1639.356663782279	3
1	4435	1639.5100580666	4
1	4436	1640.39465575677	4
1	4440	1641.106747999774	3
1	4442	1641.212454706918	3
1	4444	1641.725387858313	4
1	4448	1642.436480573523	4
1	4450	1642.919648235772	4
1	4451	1643.002530084315	4
1	4453	1643.175077439751	4
1	4455	1643.637219492977	5
1	4462	1645.20364211095	6
1	4467	1646.446388270904	6
1	4468	1646.61144933474	5
1	4469	1647.202969476645	4
1	4470	1647.957400556056	3
1	4472	1648.731336257639	3
1	4474	1650.238178129994	4
1	4475	1650.506138005549	4
1	4477	1653.898248753743	4
1	4478	1654.109709122559	4
1	4479	1655.253412291341	3
1	4481	1656.0622580491	3
1	4482	1656.064457117214	3
1	4483	1658.520195504161	2
1	4488	1658.60617108907	2
1	4489	1659.275758570339	2
1	4491	1659.383949489586	2
1	4492	1660.242627658951	2
1	4498	1661.712630164814	2
1	4501	1662.136303249821	2
1	4503	1663.295873793589	2
1	4504	1663.390037750248	2
1	4505	1663.657689578549	1
1	4507	1664.156335951607	1
1	4508	1664.959689301674	1
1	4510	1665.050494504416	1
1	4514	1666.029751141476	1
1	4519	1668.320639989189	1
1	4521	1668.612145447052	2
1	4523	1669.392313729091	3
1	4524	1669.831481805905	3
1	4531	1670.678370674818	3
1	4539	1673.136033298473	3
1	4540	1673.362059155392	2
1	4550	1677.995456926853	1
1	4552	1679.093439431517	1
1	4554	1679.402917781702	2
1	4555	1679.85870273377	2
1	4559	1680.775049504991	1
1	4560	1680.80531192664	0
1	4562	1680.96821255255	0
1	4564	1681.558400563611	1
1	4565	1681.566518333392	1
1	4566	1682.122156677939	0
1	4568	1687.321458039809	0
1	4569	1687.338252875188	0
1	4571	1688.51349567175	0
1	4572	1688.724783507335	0
1	4574	1689.857700932654	0
1	4576	1690.054150785716	1
1	4577	1690.620518144105	1
1	4590	1694.558834000143	0
1	4592	1694.837297083917	0
1	4594	1695.220573712078	1
1	4595	1696.138624543967	1
1	4597	1697.182031045159	1
1	4598	1697.524231764283	1
1	4599	1698.007791773095	0
1	4601	1700.934725734892	0
1	4603	1701.121698403006	1
1	4605	1701.67983632513	2
1	4606	1702.567275858159	2
1	4608	1702.878270138344	2
1	4610	1703.433684833571	3
1	4612	1703.991813322922	4
1	4613	1704.205163027082	4
1	4614	1705.103413583362	3
1	4616	1705.124682025918	3
1	4620	1705.46582472832	4
1	4622	1705.613743369278	5
1	4625	1706.57443352246	6
1	4629	1707.74310689653	6
1	4633	1708.075075384742	5
1	4634	1709.020744038882	4
1	4635	1709.821399298839	3
1	4647	1712.870851030565	3
1	4649	1712.889227059557	4
1	4654	1714.653960759461	5
1	4656	1715.49335880429	6
1	4659	1715.911739982205	7
1	4662	1716.172038966684	8
1	4667	1717.624129444461	9
1	4674	1718.657067554514	9
1	4675	1719.554525136882	8
1	4676	1719.598128158928	7
1	4677	1719.865758410901	6
1	4678	1720.64205801991	5
1	4680	1721.042035899791	5
1	4681	1721.922714381208	5
1	4682	1722.148397476659	4
1	4683	1722.681368633362	3
1	4684	1723.89262208475	2
1	4685	1723.897498928913	1
1	4689	1725.20632611965	0
1	4693	1725.941552405463	0
1	4695	1726.606454120477	0
1	4706	1730.811820024819	0
1	4708	1731.941994976309	1
1	4710	1732.5534849191	2
1	4712	1732.994987851474	3
1	4714	1734.329907171726	4
1	4716	1736.397456716	5
1	4718	1736.805969746285	6
1	4720	1737.349804116971	7
1	4721	1738.286595584267	7
1	4722	1738.631551563903	6
1	4724	1738.633997434601	6
1	4726	1739.096241623625	7
1	4730	1741.583420229875	7
1	4731	1742.341088543886	6
1	4735	1743.187103971598	6
1	4738	1743.77458417108	7
1	4742	1744.842165383005	7
1	4743	1745.373070661615	6
1	4745	1745.438527633218	6
1	4747	1747.233250647369	7
1	4749	1747.707673768586	8
1	4750	1747.808369172385	8
1	4755	1748.251796847029	8
1	4757	1748.755666322652	9
1	4759	1749.28902174873	10
1	4760	1749.491289749871	10
1	4762	1749.839154168113	10
1	4763	1750.656993617424	10
1	4765	1751.718606455102	10
1	4769	1752.766149804295	11
1	4771	1753.549762289895	11
1	4788	1755.893459182467	11
1	4791	1756.370180709312	12
1	4794	1757.503863482621	12
1	4796	1757.93507787215	12
1	4798	1758.232149008821	13
1	4800	1758.237749219489	14
1	4805	1758.649551065831	15
1	4806	1759.52953390557	15
1	4808	1760.29918649116	15
1	4815	1764.410147592638	16
1	4817	1764.819353345976	17
1	4822	1766.414669285672	17
1	4827	1767.646863752315	17
1	4828	1767.688953478641	17
1	4829	1769.000483818864	16
1	4833	1772.035891348358	15
1	4834	1772.087878624076	14
1	4836	1772.133739568679	14
1	4837	1772.504229580166	14
1	4841	1773.173703298288	14
1	4843	1774.604340268424	14
1	4844	1775.09132441318	13
1	4845	1775.455155689647	12
1	4846	1777.165666156711	11
1	4848	1777.302937739023	11
1	4849	1778.074874590049	11
1	4850	1779.511542726934	10
1	4854	1780.760504488164	9
1	4856	1782.34238085862	9
1	4857	1782.910154165939	9
1	4859	1783.56753600888	9
1	4860	1785.819127275783	9
1	4865	1788.980780976287	9
1	4866	1789.088975432688	9
1	4867	1789.59177905369	8
1	4868	1789.706418174291	7
1	4869	1789.969946047142	6
1	4870	1790.04038069437	5
1	4871	1791.23702212105	4
1	4872	1791.488767103036	3
1	4876	1793.037643642974	2
1	4890	1795.60145883254	2
1	4898	1797.493630490946	3
1	4902	1798.881156678199	4
1	4910	1803.740087138942	4
1	4921	1807.425603633142	4
1	4925	1808.167674209971	4
1	4926	1809.613382591331	3
1	4928	1810.00760132994	3
1	4929	1810.356862031299	3
1	4930	1810.920629030886	2
1	4934	1811.654512767366	2
1	4937	1812.194626149775	3
1	4938	1812.597690438303	3
1	4939	1813.189836153348	2
1	4941	1813.819012445113	2
1	4942	1813.877846655521	2
1	4943	1814.932613061456	1
1	4944	1815.472517942235	0
1	4946	1819.706839237965	0
1	4951	1821.311307067723	1
1	4952	1821.793272787203	1
1	4954	1823.052901818083	1
1	4955	1823.678546661436	1
1	4956	1823.809819486288	0
1	4958	1824.807942762781	0
1	4962	1826.218213767656	1
1	4964	1827.432624821221	1
1	4965	1827.668710126734	0
1	4967	1829.095937615663	0
1	4968	1829.39355224542	0
1	4976	1833.469426611056	0
1	4977	1833.522643613191	0
1	4982	1835.823086097968	0
1	4990	1837.961113101595	1
1	4991	1838.211470135799	1
1	4993	1838.5166591722	1
1	4995	1840.056484760901	2
1	4997	1840.596744921732	3
1	4999	1841.612258169871	4
1	5001	1842.675409248585	5
1	5002	1842.685132737828	5
1	5003	1843.016534121979	4
1	5005	1843.207371350274	4
1	5009	1845.534593189677	5
1	5012	1845.583639080911	6
1	5014	1845.989523929595	7
1	5018	1847.648431944801	7
1	5020	1849.078857714278	7
1	5022	1850.767075475707	8
1	5024	1854.44880001221	9
1	5026	1854.922040043735	10
1	5028	1855.830783509668	11
1	5029	1856.339230449058	11
1	5030	1856.425849363239	10
1	5031	1856.431806514908	9
1	5033	1856.597891342252	9
1	5034	1857.187537525284	9
1	5035	1857.418233149438	8
1	5040	1858.89969862955	8
1	5041	1859.90938788237	8
1	5043	1859.949334048875	8
1	5047	1862.194657088004	8
1	5048	1863.030381378679	7
1	5049	1864.162066525959	6
1	5051	1864.284115533373	6
1	5057	1865.38727399268	7
1	5060	1866.11147780219	8
1	5066	1867.913266755859	9
1	5070	1868.333354610752	10
1	5073	1868.786312631268	11
1	5078	1870.920414722216	12
1	5085	1871.654945684751	13
1	5087	1871.777618457037	13
1	5088	1872.829165786426	12
1	5090	1874.182053857824	12
1	5092	1874.341688786137	13
1	5093	1875.349153206837	13
1	5097	1876.583498832142	13
1	5099	1877.091616164619	13
1	5109	1878.380976673747	13
1	5111	1878.430892808925	14
1	5114	1879.695596441113	15
1	5115	1879.800425792637	15
1	5116	1880.935769262906	14
1	5118	1881.963525990902	14
1	5122	1882.987362760101	14
1	5124	1883.033102213663	14
1	5125	1883.412960825104	14
1	5127	1883.838417145518	14
1	5128	1883.901446598732	14
1	5130	1884.010204317994	14
1	5131	1884.854136814394	14
1	5132	1885.464688575453	13
1	5134	1886.789438828424	13
1	5138	1888.482812237806	14
1	5141	1888.771802399481	15
1	5146	1889.265532896181	16
1	5150	1890.933985535513	16
1	5152	1891.939923862118	16
1	5154	1892.063695525958	17
1	5155	1892.641045367896	17
1	5159	1894.049764754777	16
1	5160	1894.932619658993	15
1	5161	1895.317347374701	14
1	5165	1897.149962223792	14
1	5171	1897.983833711987	15
1	5175	1898.619959895436	15
1	5186	1902.911097916586	15
1	5191	1903.755079659085	16
1	5192	1904.420708758351	16
1	5193	1904.54158890787	15
1	5194	1906.741399207244	14
1	5195	1907.408636247931	13
1	5196	1907.531739693819	12
1	5197	1908.117134550022	11
1	5199	1908.924537419805	11
1	5200	1908.997912688267	11
1	5202	1909.069705278384	11
1	5203	1909.335845548388	11
1	5207	1910.260709956718	11
1	5212	1913.022556702197	11
1	5217	1913.668825045359	11
1	5221	1915.558199359153	12
1	5223	1916.533438952269	12
1	5225	1916.593107888485	12
1	5227	1917.427681776997	13
1	5228	1917.535144467586	13
1	5229	1918.396507907421	12
1	5231	1919.74031962529	12
1	5235	1921.213632182338	13
1	5240	1922.147144745101	14
1	5243	1923.146863701978	15
1	5244	1923.723962738885	15
1	5245	1924.509942017407	14
1	5247	1925.989467655436	14
1	5259	1928.011219030376	15
1	5262	1929.184970125138	16
1	5264	1929.22106222365	17
1	5266	1929.350969965914	17
1	5267	1929.358187519405	16
1	5277	1931.569545360158	15
1	5278	1932.551407177717	14
1	5282	1934.291603145884	13
1	5283	1934.496644164808	12
1	5287	1937.285196381902	11
1	5289	1938.200509066618	11
1	5293	1938.929956977034	12
1	5299	1940.457117924047	13
1	5303	1941.014185545483	14
1	5308	1941.627220964466	14
1	5315	1943.283538560985	13
1	5319	1944.021202824909	12
1	5320	1944.552639696377	11
1	5322	1945.280819875686	11
1	5323	1945.859580187303	11
1	5328	1946.788643600907	11
1	5329	1947.808201623613	11
1	5334	1953.96104851603	11
1	5335	1954.45261441054	11
1	5339	1955.622635419752	10
1	5340	1960.125526344089	9
1	5341	1960.659782617104	8
1	5348	1964.211952593561	7
1	5350	1964.972850869541	7
1	5351	1965.071756885159	7
1	5355	1965.689249863699	6
1	5356	1966.191781437773	5
1	5361	1967.976278891095	5
1	5363	1968.1722307259	6
1	5364	1968.288226359551	6
1	5365	1968.476256221342	5
1	5367	1969.720276982993	5
1	5371	1970.38655337826	6
1	5376	1971.740521647448	7
1	5378	1972.225751697118	7
1	5379	1972.245687464514	6
1	5384	1974.203948934991	6
1	5385	1975.143628008966	6
1	5393	1975.43732209432	6
1	5403	1977.298736670865	6
1	5404	1978.27068983778	5
1	5409	1979.762044194699	5
1	5411	1979.880740939367	6
1	5415	1980.140806979521	7
1	5418	1982.221385386693	8
1	5420	1983.503607959618	9
1	5421	1984.069882232138	9
1	5423	1986.411738661299	9
1	5424	1987.742593325706	9
1	5428	1988.735066392862	9
1	5430	1989.440146949063	9
1	5431	1989.924407176969	8
1	5432	1990.700554205008	7
[...]
10	2790	1026.835567123668	16.29432603063
10	2793	1027.185265940381	15.09538510554
10	2794	1027.478517453656	15.242856228501
10	2797	1028.326013987177	15.831784258318
10	2808	1030.72908768271	13.969276701805
10	2809	1030.75515624134	13.881614476226
10	2814	1031.712949918779	14.262850857817
10	2815	1033.090674526818	12.952778414769
10	2819	1035.406199761076	13.55018777249
10	2829	1037.147570234591	8.961994540056
10	2830	1038.118262027206	9.606372388334
10	2831	1038.324012026979	9.782415774629
10	2832	1038.911896658637	9.555589354837
10	2875	1048.460536217657	17.12413450289
10	2876	1050.377868974721	16.085373562104
10	2881	1053.391394694892	17.9099996039
10	2882	1053.543066447454	16.960653580101
10	2883	1054.041313215821	15.08478804157
10	2884	1054.390827334547	14.693762207138
10	2887	1056.643296864178	16.628718184156
10	2888	1056.708929078687	16.691661045361
10	2891	1056.796232890399	16.430140943565
10	2899	1060.468738556588	17.455174242725
10	2905	1061.074169430581	16.570882407955
10	2933	1069.420635384207	12.666298279127
10	2947	1071.908268927404	13.462001766498
10	2950	1075.007115588551	15.037082065771
10	2953	1076.214029915219	15.623384079148
10	2956	1077.301827354286	16.576615500902
10	2962	1079.322168934449	14.825287348444
10	2968	1082.094027623331	16.103190963832
10	2971	1083.606603929883	16.252971039445
10	2981	1085.644989915908	17.304628204453
10	2984	1087.287045022923	18.562212486987
10	2985	1087.893708875332	18.364868579585
10	2992	1091.977320882121	22.375813569757
10	2993	1093.53243193879	21.806588079743
10	2998	1095.168178273174	23.063813372975
10	2999	1095.248173301311	19.234306778602
10	3000	1097.285333418867	20.396136869483
10	3001	1097.439051480076	19.216430954266
10	3002	1099.073812111066	20.20343945785
10	3009	1099.55117609496	17.276520903895
10	3010	1099.996116878308	16.360824111737
10	3011	1100.223113012913	16.587246225262
10	3012	1101.034863918508	15.92312933271
10	3013	1101.226358099696	16.087884086859
10	3020	1102.773651144034	13.032346234129
10	3021	1102.903309437065	10.92723800469
10	3022	1103.181486733127	9.56057163565
10	3029	1105.786591628401	6.520240673562
10	3035	1108.160951374476	5.938799590407
10	3048	1113.222369235499	8.658431807868
10	3049	1115.55861882546	9.697343062342
10	3050	1116.408079883169	8.55996173875
10	3068	1120.000077123261	7.830937329699
10	3069	1122.536443105003	9.737711790361
10	3070	1122.940681104657	6.065787400955
10	3071	1123.231234110158	6.289449285881
10	3072	1124.245128155133	6.936044836198
10	3086	1129.203727816333	4.057508541637
10	3090	1130.225590456233	2.992658086926
10	3091	1130.994407172346	3.245877950431
10	3092	1132.339657586942	3.312557765798
10	3095	1133.512464935542	4.131640772114
10	3096	1134.575496929989	1.817024470632
10	3110	1138.882575597476	2.949357971288
10	3117	1140.204830014004	3.370887528703
10	3118	1140.794045870669	1.752073526451
10	3132	1146.215112318383	4.384084177276
10	3136	1146.640328238954	2.818083775973
10	3137	1148.950822310968	4.893653014196
10	3146	1152.000022847911	2.90276201666
10	3149	1152.600337926336	1.721497786855
10	3156	1153.792975720007	1.482527173766
10	3162	1156.363901250681	3.334493512318
10	3167	1158.329879085024	4.761483829209
10	3168	1158.699718017022	4.003722433403
10	3172	1161.224165596558	4.159716987171
10	3173	1161.482682086056	3.944738161835
10	3179	1162.819138157918	1.152833882834
10	3210	1169.789158150417	4.859474907954
10	3215	1171.33288423712	3.877379524799
10	3224	1175.712271365781	6.804946120992
10	3225	1177.446178491908	6.671152659991
10	3230	1178.751591655884	7.584584195785
10	3233	1179.744831602801	5.188474516373
10	3242	1181.300801023504	3.193856663957
10	3245	1181.486338966779	2.176815165464
10	3257	1186.236911931219	5.239011377403
10	3258	1187.497923567887	6.181515117647
10	3290	1196.117284030347	6.911171796438
10	3291	1196.579037688774	6.296902206606
10	3310	1202.409261747592	7.982824241361
10	3313	1202.950714614949	6.93547684584
10	3336	1209.1941453149	9.809199902057
10	3337	1209.228873840222	9.167648716868
10	3351	1212.331020729649	9.483852190824
10	3356	1215.868540743794	11.352705014893
10	3357	1217.154931699768	12.015658857951
10	3372	1221.186996405106	13.992076179373
10	3381	1223.689473464343	13.88806662512
10	3382	1224.231600610533	13.261750730488
10	3388	1225.25370865789	13.974634426683
10	3389	1225.434277280745	13.519188227759
10	3390	1225.474099882324	10.892741288359
10	3391	1226.079066593599	11.48922225712
10	3392	1226.631095541069	9.230761218954
10	3393	1229.00334435087	9.334126049333
10	3405	1233.547887614479	12.35237508065
10	3412	1237.640066248093	13.217296776356
10	3413	1237.646792410183	13.055130377411
10	3420	1239.015037092896	8.918575378703
10	3423	1239.954625885143	7.676954703478
10	3424	1240.909339895255	7.599707744275
10	3439	1244.018748844119	8.725595522429
10	3446	1245.71736958776	6.598596833961
10	3447	1246.263070616049	4.731943549487
10	3459	1251.139317735734	7.933443149503
10	3477	1258.677133434077	11.855915721712
10	3495	1264.374014978203	10.69532245056
10	3496	1264.963761302375	9.45791701145
10	3501	1267.395923035595	9.433002254577
10	3510	1270.477835759985	10.354072023474
10	3522	1274.020974968437	10.798317968987
10	3526	1277.361789003882	12.244660053544
10	3530	1279.129483578383	11.606094915505
10	3534	1280.851005737992	10.525422501436
10	3545	1283.769293224836	11.080884932614
10	3546	1283.785202896514	9.946087022829
10	3560	1285.8623385094	6.521427597741
10	3569	1291.539110876166	10.616656629013
10	3570	1292.070370438777	11.132130707787
10	3571	1292.640828934244	10.693749458651
10	3574	1293.377590953497	9.322901571941
10	3575	1293.729309433055	8.382419525342
10	3578	1294.566605630687	9.047840422596
10	3579	1297.018215968647	11.345588626582
10	3580	1297.313393039011	10.309721124162
10	3581	1297.602744689631	9.575503450312
10	3602	1303.176033572804	8.79703316786
10	3603	1303.221039794437	5.153150312713
10	3604	1303.326655089069	3.511731660396
10	3605	1303.574205261365	2.953088676783
10	3625	1309.365187985443	6.260421323808
10	3631	1311.162312045258	6.84468074164
10	3632	1312.024135720207	7.211246033419
10	3633	1313.378566315468	6.823031520937
10	3636	1314.414885393178	6.782946709421
10	3637	1314.906530733793	4.423443732478
10	3638	1316.25578035528	5.128465302937
10	3645	1319.917366011441	0.277594926924
10	3648	1323.862013468305	0.018972936895
10	3654	1326.101855847954	0.685008805406
10	3659	1329.298901253125	0.986402008032
10	3660	1329.606639487068	0.498203295116
10	3665	1332.208827737427	2.050808352507
10	3673	1335.881845342298	3.113232698236
10	3674	1335.987770658193	1.221181828759
10	3680	1337.03350343346	0.816840857274
10	3681	1337.091820632923	0.858170045056
10	3686	1339.4423682577	1.346691563839
10	3694	1340.477975764683	0.738899299839
10	3695	1342.804382522489	2.889925874727
10	3730	1357.224429822838	9.800946581692
10	3731	1358.13398816881	10.702316347882
10	3735	1359.381831487622	10.678928491969
10	3745	1363.501839389017	11.355141058369
10	3746	1363.852070334038	10.965007068873
10	3747	1364.086262074343	10.416588162972
10	3748	1364.181892128778	7.208466862852
10	3751	1364.286622761897	5.612936940275
10	3752	1365.481674172804	5.597594151931
10	3762	1369.713568358076	7.915358412524
10	3763	1370.564324519958	8.160104340183
10	3766	1372.204586006486	7.968848368868
10	3769	1372.597825261178	6.575862664344
10	3778	1376.225059018225	7.606915714826
10	3784	1378.883076842268	6.588424026709
10	3794	1381.039212347314	6.24107707595
10	3805	1382.441710466918	3.928215360815
10	3806	1383.24879022901	4.334674336444
10	3807	1383.276661784484	3.460321001522
10	3810	1383.436403116354	2.336291583381
10	3817	1387.260383968802	5.977470697441
10	3818	1387.945422910386	6.075566892497
10	3825	1391.24479972229	4.432002948052
10	3828	1392.790625924933	5.872144477681
10	3829	1392.955097612421	3.103580141159
10	3830	1393.85607345761	3.278551036444
10	3836	1395.502371586556	1.225270128344
10	3860	1401.752131838649	2.654451014795
10	3866	1403.960516257708	3.675347721112
10	3869	1404.826228072033	3.887456683506
10	3870	1405.014726316502	3.793626308065
10	3871	1405.836862928458	3.530457543091
10	3874	1407.238504893141	3.974119362198
10	3875	1408.049049052903	3.517181663319
10	3880	1411.305478214103	5.273701429035
10	3883	1413.081374093338	4.981335574347
10	3907	1419.807265216154	5.545786683162
10	3908	1421.306990450083	6.735053709025
10	3913	1424.159511361149	9.02837804902
10	3916	1426.573347707241	11.156074882108
10	3935	1434.054176543584	9.124970062035
10	3940	1436.900734092329	8.863316378121
10	3943	1438.744734730847	10.424398503534
10	3948	1441.201719697944	11.623955897846
10	3951	1443.840217658273	14.057670190189
10	3957	1445.284068470816	14.105216602168
10	3960	1445.463509853252	13.417869355905
10	3963	1446.883978488367	11.570291613026
10	3966	1447.05813170784	11.217267399948
10	3967	1448.629421377037	11.566080020691
10	3973	1449.800814135734	9.241635059221
10	3974	1452.505330696273	10.028120903042
10	3975	1453.255721789865	8.71969864097
10	3976	1453.770403619314	8.498245644787
10	3977	1453.837067239851	8.490526512879
10	3978	1454.163611161678	8.438657480071
10	3981	1454.597580521947	7.648871749215
10	3992	1458.198980938944	3.906468026484
10	3993	1458.578846546426	3.083707124989
10	3994	1458.853955597073	3.340861790889
10	3995	1460.078677314363	4.20459620672
10	3996	1460.478666471003	4.04917526435
10	4013	1464.824506728816	1.885075957379
10	4016	1467.270688408843	2.464502747923
10	4017	1467.424417012334	1.738926784285
10	4026	1476.334785205642	2.972388363588
10	4056	1482.981466876842	3.144576046431
10	4057	1484.751215826897	4.694358746277
10	4058	1484.878584064145	4.805852076613
10	4065	1487.869288070811	7.743800247066
10	4069	1492.48357278386	11.485526023924
10	4070	1492.521255272109	11.486221406161
10	4071	1492.958463245823	7.146087853941
10	4076	1494.71149919045	8.74735748794
10	4082	1495.536049910367	5.75668170858
10	4083	1495.863305512009	2.614714334356
10	4084	1497.659483817015	3.50005349649
10	4096	1501.47644392009	2.499706701787
10	4097	1502.354053225308	2.866673532996
10	4109	1505.134324726487	1.160402012841
10	4110	1505.695490862614	1.561279762781
10	4113	1506.765971433679	0.607007332616
10	4130	1518.777607378834	1.816187213995
10	4145	1522.530350618982	2.301332617028
10	4146	1522.642672625529	0.52677221786
10	4149	1523.157299706379	0.30293028417
10	4160	1526.175299078071	1.772273979164
10	4167	1527.181417838007	0.235977163343
10	4172	1530.237910867461	2.721642945029
10	4173	1530.395226125382	2.871632739652
10	4176	1531.721955946956	0.643989716381
10	4184	1535.072499272964	0.80069711419
10	4185	1535.896241884092	0.829500955805
10	4191	1538.61284629259	0.688516893646
10	4200	1545.138315851022	2.106343810258
10	4205	1545.766357623491	0.543370151767
10	4209	1549.497848482297	1.670889436102
10	4227	1556.345465261313	1.274803563836
10	4232	1557.824005502795	1.167803766311
10	4244	1564.666726442613	5.753496525446
10	4245	1564.837033782682	4.455161758836
10	4248	1566.199833576822	5.479595391564
10	4252	1569.104284059542	6.133218437074
10	4253	1569.462344309133	4.303119016462
10	4254	1570.035594762942	2.360415985928
10	4263	1574.073149212321	0.229372971063
10	4286	1588.652285473575	6.437511073054
10	4315	1598.782236470393	11.482728855681
10	4319	1599.774312664793	8.366301245522
10	4320	1601.408805668527	9.672479954075
10	4336	1604.868285930635	11.763092052646
10	4340	1607.208638974365	11.128352824368
10	4344	1608.287830182974	10.951284655522
10	4345	1609.64232033594	12.145304210434
10	4346	1610.51255015387	11.759986749294
10	4349	1611.905979057595	12.797399076064
10	4350	1612.718576679624	10.505272358933
10	4364	1615.893266620246	11.897028225342
10	4367	1617.400936502641	10.675485085547
10	4368	1618.055131895491	10.311652734698
10	4380	1621.923905911213	8.654773120847
10	4395	1625.744376466353	11.181477686002
10	4396	1627.516329635821	10.627352118338
10	4404	1629.747849639721	10.08554555585
10	4405	1631.867060979691	9.713224037069
10	4406	1632.846488730488	8.555793460701
10	4418	1635.340252512825	6.156890244663
10	4419	1635.416805372425	2.437331310402
10	4420	1635.962532258921	2.663205855116
10	4431	1638.336878866543	2.352844176642
10	4436	1640.39465575677	3.315572574005
10	4440	1641.106747999774	3.463543048424
10	4448	1642.436480573523	2.926422506923
10	4451	1643.002530084315	2.590476527708
10	4467	1646.446388270904	4.28260652982
10	4468	1646.61144933474	3.691801098968
10	4469	1647.202969476645	4.027892036894
10	4470	1647.957400556056	4.320181063079
10	4475	1650.506138005549	6.543370381762
10	4478	1654.109709122559	8.92961049098
10	4479	1655.253412291341	10.049770180391
10	4482	1656.064457117214	7.333120859575
10	4483	1658.520195504161	8.282017374167
10	4489	1659.275758570339	3.213500521239
10	4492	1660.242627658951	1.69866687691
10	4501	1662.136303249821	2.752353760235
10	4504	1663.390037750248	2.718865432729
10	4505	1663.657689578549	1.945059413735
10	4508	1664.959689301674	1.663815508085
10	4514	1666.029751141476	0.97925663706
10	4524	1669.831481805905	2.661127845914
10	4539	1673.136033298473	3.743719569382
10	4540	1673.362059155392	3.348441502687
10	4550	1677.995456926853	5.650000555043
10	4555	1679.85870273377	5.529294967133
10	4559	1680.775049504991	1.372131723289
10	4560	1680.80531192664	0.705310174599
10	4565	1681.566518333392	0.598305780842
10	4566	1682.122156677939	0.563756114328
10	4569	1687.338252875188	0.016794835379
10	4572	1688.724783507335	0.211287835585
10	4577	1690.620518144105	0.762817211451
10	4590	1694.558834000143	1.66514311431
10	4595	1696.138624543967	1.30132746005
10	4598	1697.524231764283	2.303658052205
10	4599	1698.007791773095	0.825760727936
10	4606	1702.567275858159	1.632550123267
10	4613	1704.205163027082	3.083464624076
10	4614	1705.103413583362	3.423577258232
10	4629	1707.74310689653	3.751293573608
10	4633	1708.075075384742	2.784768654029
10	4634	1709.020744038882	3.554919310562
10	4635	1709.821399298839	4.207655929561
10	4674	1718.657067554514	5.786216523949
10	4675	1719.554525136882	6.665298077325
10	4676	1719.598128158928	4.944167399467
10	4677	1719.865758410901	4.372399606611
10	4678	1720.64205801991	4.730318037705
10	4681	1721.922714381208	5.750675414524
10	4682	1722.148397476659	5.115749149006
10	4683	1722.681368633362	5.057239188901
10	4684	1723.89262208475	5.994934216887
10	4685	1723.897498928913	5.649079326363
10	4689	1725.20632611965	1.295926969773
10	4695	1726.606454120477	0.664901715014
10	4721	1738.286595584267	7.474775559448
10	4722	1738.631551563903	6.689556587594
10	4730	1741.583420229875	8.588432378401
10	4731	1742.341088543886	8.01118137216
10	4742	1744.842165383005	7.492361266034
10	4743	1745.373070661615	6.739073227014
10	4750	1747.808369172385	8.71212754876
10	4760	1749.491289749871	6.563881660582
10	4763	1750.656993617424	7.469889645826
10	4771	1753.549762289895	9.691031474725
10	4794	1757.503863482621	9.252066635592
10	4806	1759.52953390557	10.24051215684
10	4822	1766.414669285672	13.963206298949
10	4828	1767.688953478641	13.768372602285
10	4829	1769.000483818864	14.712637757617
10	4833	1772.035891348358	16.595688460658
10	4834	1772.087878624076	16.194419441609
10	4837	1772.504229580166	16.134048870854
10	4843	1774.604340268424	16.372191259603
10	4844	1775.09132441318	16.853575193691
10	4845	1775.455155689647	17.164527381677
10	4846	1777.165666156711	18.51611509088
10	4849	1778.074874590049	17.775688098889
10	4850	1779.511542726934	17.352357074665
10	4854	1780.760504488164	16.350356895526
10	4857	1782.910154165939	18.090800819963
10	4860	1785.819127275783	18.913307708571
10	4866	1789.088975432688	17.76641372154
10	4867	1789.59177905369	17.458039485011
10	4868	1789.706418174291	16.748249975065
10	4869	1789.969946047142	16.796242748854
10	4870	1790.04038069437	12.737442955347
10	4871	1791.23702212105	11.10158728658
10	4872	1791.488767103036	9.146386244416
10	4876	1793.037643642974	4.406224341759
10	4910	1803.740087138942	6.915654122187
10	4925	1808.167674209971	9.286517531772
10	4926	1809.613382591331	7.985629049134
10	4929	1810.356862031299	4.763742664751
10	4930	1810.920629030886	3.495025397744
10	4938	1812.597690438303	2.590089108363
10	4939	1813.189836153348	1.867392524636
10	4942	1813.877846655521	2.223333888155
10	4943	1814.932613061456	2.737986911681
10	4944	1815.472517942235	1.653505497122
10	4952	1821.793272787203	1.80449281741
10	4955	1823.678546661436	2.367239593713
10	4956	1823.809819486288	0.756917668205
10	4964	1827.432624821221	1.566144481575
10	4965	1827.668710126734	1.450496359078
10	4968	1829.39355224542	0.297614629757
10	4977	1833.522643613191	0.053217002135
10	4991	1838.211470135799	1.415762017686
10	5002	1842.685132737828	4.724019636233
10	5003	1843.016534121979	4.499874949779
10	5018	1847.648431944801	6.03617377493
10	5029	1856.339230449058	13.663821200473
10	5030	1856.425849363239	13.218478012965
10	5031	1856.431806514908	12.213469109161
10	5034	1857.187537525284	11.652944335607
10	5035	1857.418233149438	11.834594068527
10	5041	1859.90938788237	13.875528315084
10	5047	1862.194657088004	11.427581612297
10	5048	1863.030381378679	8.581581366469
10	5049	1864.162066525959	9.240026482224
10	5087	1871.777618457037	7.493502923664
10	5088	1872.829165786426	7.899909282064
10	5093	1875.349153206837	9.961879214157
10	5099	1877.091616164619	9.878811226269
10	5115	1879.800425792637	11.467071181885
10	5116	1880.935769262906	12.149456631638
10	5122	1882.987362760101	12.066948037885
10	5125	1883.412960825104	12.252672175792
10	5128	1883.901446598732	12.625186668091
10	5131	1884.854136814394	13.199191129643
10	5132	1885.464688575453	11.282634717629
10	5150	1890.933985535513	13.689790696609
10	5155	1892.641045367896	14.734719646035
10	5159	1894.049764754777	15.618871945852
10	5160	1894.932619658993	15.23702321788
10	5161	1895.317347374701	13.353821383799
10	5175	1898.619959895436	14.609755577442
10	5192	1904.420708758351	15.381518632118
10	5193	1904.54158890787	15.276056011689
10	5194	1906.741399207244	16.643788781625
10	5195	1907.408636247931	15.468712385813
10	5196	1907.531739693819	15.468044167861
10	5197	1908.117134550022	14.655036055316
10	5200	1908.997912688267	12.70804560991
10	5203	1909.335845548388	12.185883324596
10	5212	1913.022556702197	14.599412860798
10	5223	1916.533438952269	14.72879115621
10	5228	1917.535144467586	14.624046551
10	5229	1918.396507907421	15.186177365035
10	5244	1923.723962738885	14.79942531908
10	5245	1924.509942017407	15.440236739023
10	5266	1929.350969965914	19.090260009196
10	5267	1929.358187519405	17.220993253055
10	5277	1931.569545360158	17.900720314799
10	5278	1932.551407177717	17.152563417541
10	5282	1934.291603145884	17.698495257399
10	5283	1934.496644164808	17.068962387811
10	5287	1937.285196381902	16.818840813377
10	5308	1941.627220964466	18.480357262488
10	5315	1943.283538560985	15.272319530609
10	5319	1944.021202824909	14.800140601259
10	5320	1944.552639696377	15.020193949797
10	5323	1945.859580187303	12.908707081918
10	5329	1947.808201623613	9.607692556995
10	5335	1954.45261441054	15.522657433506
10	5339	1955.622635419752	14.908282958283
10	5340	1960.125526344089	19.111340798606
10	5341	1960.659782617104	18.87711114288
10	5348	1964.211952593561	18.931132717875
10	5351	1965.071756885159	18.907755976284
10	5355	1965.689249863699	15.550864092479
10	5356	1966.191781437773	12.230732921743
10	5364	1968.288226359551	7.101446383668
10	5365	1968.476256221342	4.966834257475
10	5378	1972.225751697118	5.748235933302
10	5379	1972.245687464514	4.269408573419
10	5385	1975.143628008966	5.423351025973
10	5403	1977.298736670865	5.577317896445
10	5404	1978.27068983778	6.530168190332
10	5421	1984.069882232138	8.770607014568
10	5424	1987.742593325706	12.305271231386
10	5430	1989.440146949063	10.46378426307
10	5431	1989.924407176969	10.16236298227
10	5432	1990.700554205008	10.819813265641
10	5435	1990.973989924882	10.898550762604
10	5441	1992.693334246651	10.471948859958
10	5442	1992.840835019537	9.337227059919
10	5448	1995.433785858186	6.780478058257
10	5483	1998.48215849615	5.42337000214
10	5484	1999.107124686178	5.766922911656
11	5491	2000	0.4925
12	5491	2000	0.4175

