version 2
run Monotonicity_test_recover_rate-253-20221219-18:28:04-15744
attr configname Monotonicity_test_recover_rate
attr datetime 20221219-18:28:04
attr experiment Monotonicity_test_recover_rate
attr inifile omnetpp.ini
attr iterationvars $0=50
attr iterationvarsf 50-
attr measurement $0=50
attr network Network
attr processid 15744
attr repetition 53
attr replication #53
attr resultdir results
attr runnumber 253
attr seedset 53
param *.minion.arrival_mean 2
param *.minion.service_mean 1.5
param *.boss.arrival_mean 2.5
param *.boss.service_mean 0.5
param *.player.recover_rate_x 50
param **.minion.arrival_distribution 0
param **.minion.service_distribution 0
param **.boss.arrival_distribution 0
param **.boss.service_distribution 0

vector 0 Network.player minion_jobs_number_stat:vector ETV
attr source signal_minion_jobs_number
vector 1 Network.player minion_jobs_queue_number_stat:vector ETV
attr source signal_minion_jobs_queue_number
vector 2 Network.player minion_recovered_stat:vector ETV
attr source signal_minion_recovered
vector 3 Network.player minion_defeated_stat:vector ETV
attr source signal_minion_defeated
vector 4 Network.player boss_jobs_number_stat:vector ETV
attr source signal_boss_jobs_number
vector 5 Network.player boss_jobs_queue_number_stat:vector ETV
attr source signal_boss_jobs_queue_number
vector 6 Network.player boss_defeated_stat:vector ETV
attr source signal_boss_defeated
vector 7 Network.player boss_waiting_time_stat:vector ETV
attr source signal_boss_waiting_time
vector 8 Network.player boss_response_time_stat:vector ETV
attr source signal_boss_response_time
vector 9 Network.player minion_waiting_time_stat:vector ETV
attr source signal_minion_waiting_time
vector 10 Network.player minion_response_time_stat:vector ETV
attr source signal_minion_response_time
vector 11 Network.player minion_throughput:vector ETV
attr source signal_minion_throughput
vector 12 Network.player boss_throughput:vector ETV
attr source signal_boss_throughput
0	0	0	0
0	5	0.530280487642	1
0	7	0.894851443472	2
0	14	5.748645616739	1
0	18	6.383811039735	2
0	21	6.488567779872	3
0	23	6.78009337065	4
0	25	6.800208928541	5
0	27	8.311271807194	6
0	29	9.062854511375	7
0	35	11.895176040999	7
0	37	12.616954303925	8
0	39	13.276793054964	9
0	41	13.578908588903	10
0	45	15.99490211229	9
0	50	16.892450020447	10
0	56	17.821149936081	10
0	59	18.372496881901	10
0	81	27.212260126593	9
0	98	34.365418437859	10
0	105	37.491310642292	9
0	107	38.120847319529	10
0	109	38.222603405825	11
0	112	38.692862620646	11
0	123	42.625667604919	6
0	125	42.698611837633	7
0	129	45.688776091437	6
0	139	49.276073396999	5
0	144	50.29111883363	5
0	153	52.225159955958	5
0	155	52.450633509359	6
0	173	57.586713394066	6
0	179	60.771969190725	7
0	182	61.510299911978	7
0	185	62.821647327618	7
0	187	62.865385896394	8
0	196	66.499596745332	8
0	209	70.083297771228	4
0	222	73.448962794643	3
0	224	73.903840967405	4
0	236	78.314415145359	1
0	242	81.122876068799	1
0	245	84.080477703094	1
0	247	84.385992533158	2
0	251	86.510801978619	1
0	253	86.780337376265	2
0	256	88.641466468934	2
0	258	88.731010064849	3
0	267	92.516412149026	2
0	275	95.780024124382	1
0	287	98.964362405898	1
0	289	99.132814268689	2
0	291	99.227853276675	3
0	302	104.429044840622	1
0	317	108.018958357041	1
0	322	109.956841702508	2
0	324	110.019119173358	3
0	327	112.413502075128	3
0	342	118.557606297495	3
0	347	120.387731488253	4
0	351	122.219169740869	5
0	361	127.598252002417	5
0	363	130.312085968729	6
0	373	136.133066398678	5
0	375	136.537372153998	6
0	377	137.97100523216	7
0	385	139.164848026811	7
0	387	140.161053059266	8
0	390	141.299154600274	9
0	396	142.977744494729	9
0	408	146.95330597295	9
0	410	146.956503635298	10
0	412	148.000276689224	11
0	420	151.847507283555	12
0	427	158.583150784307	11
0	435	160.402371379431	11
0	437	160.909369688308	12
0	443	163.616337687028	10
0	445	164.085144516858	11
0	447	166.400492257645	12
0	450	167.39542918603	12
0	454	170.42450287571	11
0	459	172.63776589919	11
0	466	175.657448173323	10
0	468	175.818058438438	11
0	485	183.312629594075	7
0	493	184.506781332091	8
0	496	185.427060461224	8
0	499	186.699647043883	8
0	502	187.115267686883	8
0	504	189.484336270806	9
0	506	191.324376573575	10
0	515	193.217859239519	10
0	517	194.385522700482	11
0	519	194.908968164707	12
0	527	199.990879514858	10
0	531	200.520405435663	11
0	534	200.872814761092	12
0	538	201.823032050318	11
0	540	201.988660483264	12
0	546	208.338543143678	12
0	548	208.595798266939	13
0	551	210.450254208475	13
0	553	211.125459688518	14
0	558	211.884683289434	15
0	562	212.334811115906	16
0	569	213.86575498222	17
0	583	218.806556956791	16
0	592	221.656064295257	17
0	598	223.231960907458	18
0	600	223.787587034295	19
0	602	224.078232744955	20
0	612	227.345127744186	21
0	620	229.847317074062	22
0	627	231.515094035694	23
0	630	232.640192482961	24
0	636	236.091948203123	24
0	647	243.92923140959	19
0	653	247.510807692397	19
0	658	249.093780170155	20
0	661	250.013837100659	20
0	663	251.776737229816	21
0	667	252.683851255779	22
0	680	256.960377208493	22
0	682	256.974651411813	23
0	684	257.155750189134	24
0	691	260.606654889131	23
0	693	262.65002122422	24
0	698	263.869190327049	25
0	700	264.104172917863	26
0	703	267.240712631824	26
0	706	268.318842904304	26
0	725	277.281914530903	25
0	727	279.316786711959	26
0	732	283.627646358339	27
0	736	285.389636134177	26
0	749	294.178663505712	20
0	760	300.022613201428	20
0	762	301.195701691378	21
0	765	302.121427376672	21
0	769	302.449144879647	20
0	786	312.16653968806	18
0	788	312.60440733276	19
0	790	315.371559061227	20
0	792	315.542051326288	21
0	795	318.358088987896	21
0	799	320.5126960734	20
0	801	321.057838224811	21
0	811	325.419999539434	19
0	814	326.344473019327	20
0	825	327.968969639161	21
0	837	330.601578156264	22
0	841	331.430832784606	23
0	849	333.884782032455	21
0	851	334.735784206863	22
0	856	337.803916546846	23
0	858	338.107907441373	24
0	872	343.110634276505	19
0	880	346.40118139274	19
0	883	346.446308771068	20
0	885	346.719998109648	21
0	887	346.723522601266	22
0	889	346.820641934035	23
0	894	347.884086210405	24
0	897	348.495512335036	24
0	912	352.137236085034	23
0	922	357.371154289363	21
0	933	359.900299737128	22
0	948	364.859593473986	21
0	950	365.482488880102	22
0	958	369.004427468118	20
0	961	370.712074717659	20
0	963	370.794474496567	21
0	972	374.211162788963	21
0	974	374.714832975353	22
0	986	380.708535054222	16
0	988	380.816073196258	17
0	990	381.899748772595	18
0	992	382.201079801476	19
0	996	383.056615225856	18
0	1004	384.66138607093	16
0	1009	384.967510125939	17
0	1014	386.725461008325	15
0	1016	387.598905547209	16
0	1022	390.736024211174	13
0	1032	394.3217414348	9
0	1036	396.170262413939	8
0	1051	400.324153510475	8
0	1053	400.431156413925	9
0	1058	402.334923748453	10
0	1065	409.424145618979	9
0	1067	410.154221991077	10
0	1078	418.874229354072	8
0	1080	419.42544904319	9
0	1082	419.575076142688	10
0	1090	421.096640286034	8
0	1092	421.718301554096	9
0	1101	425.77854574685	6
0	1103	426.888139577652	7
0	1120	433.354586703207	5
0	1122	434.774691841968	6
0	1124	434.864116458195	7
0	1130	437.472478180085	7
0	1132	437.654144708039	8
0	1134	437.852930470807	9
0	1136	438.080107160215	10
0	1140	438.205286666561	11
0	1150	443.369286992222	11
0	1162	446.508081635989	12
0	1174	452.165142606742	11
0	1176	453.987167021013	12
0	1187	458.277813284589	13
0	1192	459.740364765804	14
0	1194	463.160815368576	15
0	1199	463.515659112346	16
0	1201	463.563805033032	17
0	1209	469.161347946125	15
0	1213	471.602241331725	14
0	1215	471.68691918634	15
0	1221	474.851501675423	14
0	1229	475.831175102342	13
0	1244	479.959799809011	13
0	1252	481.105109445513	14
0	1260	484.5508388326	15
0	1262	484.680104864304	16
0	1265	485.705635114082	16
0	1269	490.177783980389	15
0	1275	492.354365781596	15
0	1283	496.344236024703	15
0	1286	497.250053902436	16
0	1291	500.6377294364	17
0	1299	503.055113420477	18
0	1302	504.419420191694	18
0	1305	504.76061855445	18
0	1312	506.166550387449	17
0	1317	506.950636432557	17
0	1320	509.519795833789	18
0	1329	512.158034450635	17
0	1331	512.158653544871	18
0	1334	515.668882408875	19
0	1337	517.573467126429	19
0	1347	521.304472828585	18
0	1352	523.719114343801	18
0	1357	525.775285340421	17
0	1359	526.893490050709	18
0	1361	527.820760764876	19
0	1364	529.541005370161	19
0	1368	530.190529677069	20
0	1374	531.40447361361	21
0	1379	532.901889384165	22
0	1389	536.920466187259	21
0	1399	539.937954068549	20
0	1407	543.661558287477	18
0	1411	544.87525357573	17
0	1413	545.740600807617	18
0	1417	549.304530147686	17
0	1426	552.864861220648	17
0	1430	554.023345746158	16
0	1432	554.174346104658	17
0	1434	555.594441636932	18
0	1436	556.330079275289	19
0	1438	557.089097358594	20
0	1441	557.630997279335	20
0	1443	557.785903024188	21
0	1446	561.450669094442	21
0	1448	561.728698882911	22
0	1458	565.498342950721	18
0	1466	568.223073048364	16
0	1468	568.798033577683	17
0	1470	568.920621081641	18
0	1478	577.479094056294	15
0	1482	577.769248590118	16
0	1496	581.905236259424	17
0	1501	582.85797659214	18
0	1508	584.200259362295	19
0	1515	585.408309975037	18
0	1525	590.437981882006	16
0	1531	593.40343705288	14
0	1533	594.389269525653	15
0	1540	595.505948443797	14
0	1542	596.179401119207	15
0	1544	597.188302626629	16
0	1558	599.964591361808	15
0	1562	602.498855098904	16
0	1567	603.230398994641	17
0	1571	603.934096350214	18
0	1576	608.264275534715	17
0	1579	608.447987730183	17
0	1583	609.136018992084	16
0	1587	609.729008611374	17
0	1591	611.893773014089	17
0	1593	612.875730117271	18
0	1605	616.191578340441	18
0	1610	618.07867688593	18
0	1612	618.316253630813	19
0	1621	622.165487705928	20
0	1624	624.171308162123	20
0	1631	626.268570031458	19
0	1639	629.225315571488	19
0	1646	633.067430658676	19
0	1648	633.511400113116	20
0	1651	633.683972334751	20
0	1654	633.858316822041	20
0	1659	635.725159905563	20
0	1662	637.342759268873	21
0	1676	641.296509639745	22
0	1681	642.675329141747	23
0	1688	644.892939269747	24
0	1692	645.695298698732	25
0	1696	646.694591796313	26
0	1698	646.900680570638	27
0	1701	647.638799030891	28
0	1707	648.539696764504	29
0	1712	649.179333294119	30
0	1716	650.558279184189	30
0	1718	650.829319785527	31
0	1721	652.138495238784	31
0	1724	653.407975618909	31
0	1728	653.948103008975	32
0	1731	656.414188910905	33
0	1733	656.502728063841	34
0	1738	658.736785538556	35
0	1744	661.490310546753	32
0	1749	661.937126290087	33
0	1753	663.098936109094	32
0	1760	664.999395991645	31
0	1768	667.972977594374	28
0	1770	668.672501916556	29
0	1773	668.710838786357	30
0	1784	673.333123313733	28
0	1786	673.542897358549	29
0	1791	675.224373922592	27
0	1793	675.261148790552	28
0	1796	677.254213409719	28
0	1799	679.101589311907	28
0	1803	679.438585116073	29
0	1811	684.532272499435	25
0	1815	686.329882010378	24
0	1818	688.633938215651	24
0	1830	692.66867778559	21
0	1834	694.17533428472	20
0	1837	695.606720794901	20
0	1843	699.621632881455	19
0	1845	699.696394197364	20
0	1849	700.819416245272	20
0	1853	702.077788703464	19
0	1855	702.614132797363	20
0	1862	709.771534354695	16
0	1873	712.740838802714	16
0	1875	712.921181427406	17
0	1881	715.441692178138	18
0	1889	717.908635660301	19
0	1900	722.200433255746	17
0	1902	722.226571178049	18
0	1904	723.083793667255	19
0	1910	724.764970659741	18
0	1920	730.813038392132	18
0	1923	733.24889338886	18
0	1928	735.291112303732	19
0	1931	736.359802809156	19
0	1935	737.797964709104	18
0	1940	738.865725341934	19
0	1949	740.553218333374	20
0	1953	744.378180372335	21
0	1956	747.474005210044	21
0	1959	751.774263054769	21
0	1967	755.515487045249	19
0	1969	755.685148501093	20
0	1974	756.319457231914	20
0	1976	756.365020895975	21
0	1983	758.103093913546	21
0	1985	758.460948933196	22
0	1987	758.729658221806	23
0	1989	758.877315223223	24
0	1994	759.901814569516	25
0	1996	759.970636614204	26
0	1999	760.949300673736	26
0	2003	762.244839043657	25
0	2028	771.443024897053	24
0	2036	775.628531592738	25
0	2038	775.846440003599	26
0	2049	779.139876258356	21
0	2053	779.667135074398	20
0	2058	781.214930355838	21
0	2060	782.685918093921	22
0	2065	784.382410848673	20
0	2069	785.076481840018	21
0	2073	787.431813762966	21
0	2081	790.021722510276	21
0	2088	793.452265066827	21
0	2090	793.807846907659	22
0	2093	795.156839382244	22
0	2096	795.5008893767	22
0	2101	798.264097764684	20
0	2109	800.07151801203	20
0	2116	803.240934113387	20
0	2126	807.068508472707	16
0	2128	808.846957127073	17
0	2136	811.601431784843	15
0	2140	812.220909783414	16
0	2145	814.167431513494	15
0	2147	814.253310762528	16
0	2154	816.351871902098	17
0	2162	817.563908821416	16
0	2165	818.546188683699	16
0	2177	826.178114759103	14
0	2182	827.387523331474	14
0	2186	827.577629631236	15
0	2189	830.449616716405	16
0	2195	832.932106113312	16
0	2198	837.620337445524	16
0	2201	838.630089440041	16
0	2216	843.332411466857	13
0	2222	846.663709600844	13
0	2232	850.73207556607	11
0	2237	852.313712775574	12
0	2248	855.613448607949	11
0	2262	863.095173982919	9
0	2268	866.369820485477	8
0	2285	873.783752546352	4
0	2296	877.989501773402	1
0	2303	880.883539977249	1
0	2305	881.183396427369	2
0	2312	886.009259836328	1
0	2315	886.71904126236	1
0	2317	887.298670840836	2
0	2320	888.527630566572	2
0	2322	888.701144235361	3
0	2326	889.690709770985	2
0	2328	889.724999430156	3
0	2330	890.09096645715	4
0	2333	891.074226973638	4
0	2335	891.274684903098	5
0	2338	891.609975981078	5
0	2340	893.084492708607	6
0	2354	900.603943788657	4
0	2356	901.494086110814	5
0	2358	902.678777301441	6
0	2360	902.681972662541	7
0	2362	903.47708247163	8
0	2365	906.913417378848	8
0	2368	909.563181180884	8
0	2372	911.272531596135	7
0	2376	913.659527111393	8
0	2378	913.80848349447	9
0	2380	915.212562167156	10
0	2393	921.576405526115	10
0	2399	923.291105496528	10
0	2406	926.45024999034	10
0	2420	935.914486799527	7
0	2422	935.954519164496	8
0	2424	935.96164445389	9
0	2427	936.701074133081	9
0	2429	937.421564714454	10
0	2436	941.072211610365	9
0	2439	944.365550902851	9
0	2445	947.167229508503	6
0	2447	947.423384934097	7
0	2449	947.577243748437	8
0	2451	948.003788008754	9
0	2453	948.110129644211	10
0	2455	948.274319795886	11
0	2461	952.229092758174	11
0	2465	953.604319882248	10
0	2468	954.059278800319	10
0	2470	954.076212480793	11
0	2476	956.120912352776	10
0	2488	959.514332712025	10
0	2490	959.986947317835	11
0	2495	963.341733318062	10
0	2502	966.549483187193	8
0	2506	968.352032370141	8
0	2514	972.864637585464	8
0	2521	974.632289677966	8
0	2524	975.415981095874	8
0	2527	976.268869147964	8
0	2532	978.391145235967	9
0	2543	980.214795752369	9
0	2546	980.762967821398	10
0	2548	981.543526343707	11
0	2553	982.327195477388	11
0	2559	984.505728877217	12
0	2562	985.728986225098	12
0	2569	987.914869131585	11
0	2576	989.934520001853	12
0	2579	992.213905952414	13
0	2597	1000.482276822247	10
0	2599	1000.990318383592	11
0	2601	1001.595386568821	12
0	2608	1003.419016840502	13
0	2610	1004.396846630346	14
0	2616	1006.007858918386	15
0	2618	1006.044312454934	16
0	2624	1007.244521278157	16
0	2643	1014.906985935722	12
0	2667	1024.931979337856	3
0	2678	1026.586915965607	4
0	2680	1027.323026399398	5
0	2695	1032.604697823174	4
0	2698	1034.187592455341	5
0	2704	1035.902157066589	5
0	2711	1036.720177377228	6
0	2715	1037.562233419939	6
0	2720	1039.189615027398	6
0	2724	1042.976503289583	6
0	2727	1043.188267245339	6
0	2744	1056.086356638928	1
0	2746	1056.428969644906	2
0	2748	1056.502203606063	3
0	2751	1057.038972870973	3
0	2755	1057.957655556237	2
0	2757	1058.085662540371	3
0	2760	1058.375374292594	3
0	2762	1058.466346011449	4
0	2768	1059.629640097219	4
0	2777	1063.302174265326	4
0	2783	1065.227952926339	1
0	2785	1065.251579220187	2
0	2787	1065.581544149026	3
0	2790	1069.277650596673	3
0	2792	1069.602180289614	4
0	2794	1069.753336273234	5
0	2801	1072.554731512628	3
0	2804	1073.189115478409	4
0	2806	1073.373442123103	5
0	2808	1074.388463405227	6
0	2810	1075.554331826864	7
0	2814	1076.764856290603	6
0	2817	1077.806290064487	6
0	2820	1079.746508321894	6
0	2831	1082.522953492273	1
0	2833	1083.403657496412	2
0	2835	1083.938184956936	3
0	2838	1086.165478565329	3
0	2841	1087.339751797804	3
0	2846	1089.893039880426	1
0	2848	1090.652513365684	2
0	2854	1092.436474949558	3
0	2859	1093.447174148601	4
0	2864	1095.364446755345	4
0	2866	1095.685641311508	5
0	2872	1099.11164637404	2
0	2874	1101.614012500781	3
0	2876	1102.058104456985	4
0	2879	1103.166493471305	4
0	2888	1104.718415193946	4
0	2890	1105.054958791262	5
0	2901	1107.170116281553	5
0	2906	1109.055471193174	6
0	2912	1110.735824760771	6
0	2921	1112.570802029186	5
0	2924	1113.157665549317	6
0	2927	1114.550723157104	7
0	2930	1115.202413347031	7
0	2932	1116.048202776899	8
0	2938	1119.473160633957	5
0	2940	1120.195000112305	6
0	2946	1121.075909589151	6
0	2952	1122.150737050094	7
0	2958	1123.260812626282	6
0	2965	1128.332828203164	4
0	2970	1128.713136480317	5
0	2982	1133.981307006551	3
0	2989	1135.099724739037	2
0	2997	1137.778852596406	3
0	3014	1147.400934099334	1
0	3018	1148.541270582855	2
0	3032	1154.026667341992	1
0	3041	1159.560987195503	1
0	3044	1159.947889439956	1
0	3050	1161.551483405593	1
0	3052	1163.250327637528	2
0	3057	1166.290654132497	3
0	3067	1169.829697232655	1
0	3076	1174.581305813711	1
0	3079	1175.536564662723	2
0	3084	1177.556529598136	3
0	3086	1177.621053411187	4
0	3088	1179.452727123416	5
0	3090	1179.655788715512	6
0	3093	1180.120070585942	6
0	3107	1187.335311212594	3
0	3110	1188.609143985494	4
0	3115	1190.625493352116	2
0	3117	1191.396537037315	3
0	3125	1195.260763251974	1
0	3127	1196.259213370696	2
0	3131	1198.021447956792	1
0	3135	1198.680767993851	2
0	3138	1200.290463248066	3
0	3140	1200.534316810311	4
0	3146	1203.360447666565	4
0	3148	1205.206963332696	5
0	3158	1211.102259988689	1
0	3167	1213.568190677543	1
0	3173	1217.24337127826	1
0	3177	1218.492648584245	2
0	3181	1218.990611112297	3
0	3189	1221.187146800947	2
0	3199	1224.337538038437	1
0	3203	1227.366493161752	1
0	3205	1228.03838772195	2
0	3207	1228.326916988329	3
0	3209	1229.963636583378	4
0	3224	1233.701313863193	1
0	3228	1235.101982392546	2
0	3232	1235.747158961899	2
0	3248	1242.447674383748	1
0	3251	1243.957520964679	1
0	3255	1244.926742841282	2
0	3258	1245.048082705644	3
0	3260	1246.942639311941	4
0	3262	1247.04762113549	5
0	3265	1247.814013753912	5
0	3277	1253.985740958542	2
0	3289	1258.916849417981	1
0	3296	1266.695228375641	1
0	3298	1266.748293820722	2
0	3300	1267.050344845922	3
0	3314	1271.76974695359	2
0	3316	1271.818896750649	3
0	3329	1277.62957074948	1
0	3332	1279.224077369379	1
0	3341	1282.428533161418	1
0	3343	1283.182782306461	2
0	3345	1283.311023262407	3
0	3347	1284.182006953565	4
0	3349	1284.849054335951	5
0	3358	1287.433667691657	5
0	3362	1288.532315793443	6
0	3369	1291.71770202	5
0	3376	1292.717796115961	6
0	3380	1294.62776116852	7
0	3394	1298.31450350276	4
0	3397	1300.125950769991	5
0	3410	1302.504256062197	2
0	3414	1303.649972408689	3
0	3416	1303.816086224265	4
0	3421	1305.192033650322	5
0	3425	1306.520637736192	4
0	3430	1306.938314680304	5
0	3433	1308.151432114624	5
0	3435	1308.930675091958	6
0	3437	1308.988082725473	7
0	3439	1309.18816911848	8
0	3443	1310.274965827984	9
0	3446	1311.654870834978	10
0	3457	1315.378309470161	8
0	3459	1315.83492318936	9
0	3461	1316.045040190056	10
0	3466	1319.162702482552	8
0	3475	1320.510660287439	9
0	3478	1321.208865230729	10
0	3480	1321.836622669988	11
0	3483	1322.063797305558	12
0	3486	1323.078393595443	12
0	3489	1323.640804141415	12
0	3491	1324.752409198876	13
0	3496	1325.679513977536	14
0	3505	1332.50213457732	11
0	3512	1334.690668746225	10
0	3523	1336.64909600396	10
0	3532	1339.533607180326	8
0	3538	1343.896824999798	5
0	3540	1344.475247022631	6
0	3547	1345.527575854644	7
0	3550	1346.170714758522	8
0	3552	1346.369754316172	9
0	3560	1349.89604394011	7
0	3564	1354.708096644303	6
0	3570	1357.01624267819	6
0	3572	1359.003595069688	7
0	3577	1361.184248385744	8
0	3583	1364.536002438685	8
0	3588	1368.159579015836	6
0	3593	1369.595639984405	4
0	3596	1370.654756296202	4
0	3601	1371.196532324434	5
0	3603	1371.376345965684	6
0	3607	1373.366309596964	5
0	3619	1377.274378161368	5
0	3621	1377.929149832324	6
0	3630	1379.969538553119	7
0	3632	1381.843538798503	8
0	3639	1383.340672815846	9
0	3646	1384.190036488125	8
0	3648	1384.242096183188	9
0	3651	1385.009908771787	9
0	3654	1387.406175358349	9
0	3662	1389.347769541696	9
0	3673	1392.069227193345	10
0	3678	1393.871954905895	9
0	3680	1394.732041386111	10
0	3697	1402.870921218937	8
0	3699	1403.146495765158	9
0	3703	1404.191969820301	10
0	3707	1406.087508908728	10
0	3711	1407.374392618516	11
0	3714	1407.727701134762	12
0	3722	1409.79428650176	13
0	3737	1413.668499727638	14
0	3741	1415.644897144861	15
0	3746	1418.047423496383	13
0	3756	1419.593171264375	14
0	3762	1421.888194023154	15
0	3773	1426.300940515527	10
0	3775	1426.820858501416	11
0	3779	1429.490309888922	10
0	3781	1430.462934593517	11
0	3790	1432.556906892998	10
0	3792	1432.568247273906	11
0	3794	1432.610277412396	12
0	3800	1433.790372933307	13
0	3810	1437.395951226533	12
0	3812	1437.963022463407	13
0	3816	1439.593552750164	12
0	3823	1441.672197157455	11
0	3829	1442.337982532709	11
0	3837	1443.645462555885	12
0	3850	1450.238439345726	5
0	3853	1452.904792246657	5
0	3865	1456.409453068427	2
0	3871	1458.718315623144	1
0	3874	1459.192147860342	2
0	3877	1460.825543925523	2
0	3879	1462.514348244291	3
0	3891	1466.542053393449	2
0	3897	1467.884019595379	3
0	3904	1469.829671580157	4
0	3907	1470.972298091282	5
0	3916	1476.301750341802	5
0	3922	1481.075424878139	2
0	3933	1484.393834131098	3
0	3938	1485.303327469001	4
0	3961	1493.187127469583	2
0	3963	1493.247787974333	3
0	3966	1494.299599533941	3
0	3975	1497.208587769903	3
0	3984	1498.93544159466	3
0	3989	1501.839140039932	1
0	3992	1502.457429561513	1
0	3995	1503.343222432503	1
0	3999	1503.712927321294	2
0	4003	1505.849903720455	2
0	4006	1506.95203755549	2
0	4012	1508.40995149209	1
0	4016	1512.310075612652	1
0	4018	1513.505351801023	2
0	4045	1522.83704119392	2
0	4052	1527.32536605921	1
0	4058	1528.286715427163	1
0	4061	1529.806055155213	1
0	4067	1532.814183357122	1
0	4070	1534.333517207439	1
0	4072	1534.994951367765	2
0	4082	1541.870679907731	1
0	4085	1542.964392935059	1
0	4087	1543.015543030878	2
0	4090	1544.997598484752	2
0	4094	1546.338786605848	1
0	4096	1546.474499168284	2
0	4106	1548.912029795198	3
0	4128	1557.150691817701	4
0	4136	1561.352921509949	4
0	4138	1562.396575524026	5
0	4143	1562.890897860298	6
0	4147	1564.077464281257	5
0	4151	1564.658697538714	6
0	4155	1568.166296282354	6
0	4157	1569.895578695348	7
0	4162	1571.300918624756	8
0	4165	1572.783137787544	8
0	4167	1572.933946615211	9
0	4175	1575.09889549036	10
0	4177	1577.259681950347	11
0	4182	1579.110530307369	12
0	4189	1583.105050940503	11
0	4196	1585.622134615779	10
0	4201	1588.70857217772	8
0	4205	1591.677439531983	7
0	4207	1592.008162475773	8
0	4212	1593.518092973194	9
0	4214	1593.877327373879	10
0	4216	1593.90538186401	11
0	4219	1595.773600005798	11
0	4222	1597.487203866074	11
0	4227	1599.064282853425	12
0	4234	1602.192809729832	11
0	4241	1603.271435869019	12
0	4246	1603.554424106629	13
0	4252	1606.303303824243	14
0	4257	1607.819486201966	14
0	4265	1610.375521081921	13
0	4267	1610.379279264196	14
0	4274	1611.968672363314	15
0	4277	1612.866858928064	16
0	4279	1613.024543592248	17
0	4281	1615.165146165283	18
0	4284	1615.834422292067	18
0	4293	1618.506943817227	17
0	4295	1618.608407903961	18
0	4301	1620.269483895851	19
0	4306	1621.796245660763	19
0	4312	1623.927973072321	20
0	4314	1625.201352176151	21
0	4320	1625.552630956074	21
0	4323	1626.571579521483	21
0	4328	1628.991020544716	22
0	4330	1629.372395770072	23
0	4332	1629.744531875836	24
0	4341	1631.381609140479	25
0	4347	1633.697591325904	24
0	4351	1634.543560131669	23
0	4353	1635.227150920897	24
0	4360	1636.809766131677	24
0	4362	1636.880020486735	25
0	4375	1640.092913312917	23
0	4390	1645.984471899861	23
0	4392	1646.976806616372	24
0	4397	1649.001407702381	24
0	4400	1649.461440838124	25
0	4403	1650.11006882036	25
0	4408	1651.949921299775	26
0	4411	1652.116526167359	26
0	4413	1652.777409217866	27
0	4415	1654.303001986944	28
0	4419	1655.199569872927	29
0	4422	1656.377393048369	30
0	4432	1658.527138496683	28
0	4434	1659.075605685627	29
0	4436	1659.29192177557	30
0	4439	1659.462937447629	31
0	4446	1663.63896409409	30
0	4452	1665.854479659294	30
0	4456	1666.965176383378	31
0	4458	1668.587900733163	32
0	4470	1674.641335135739	30
0	4473	1676.264220793884	30
0	4488	1680.058037588752	30
0	4496	1685.769968885428	28
0	4499	1686.915797745467	28
0	4503	1690.057208864283	27
0	4514	1696.792573579176	25
0	4518	1697.435642756815	26
0	4520	1698.150353624383	27
0	4529	1699.896885959411	28
0	4541	1704.613929180468	25
0	4543	1706.455796294771	26
0	4545	1707.564463599506	27
0	4547	1707.917181403942	28
0	4551	1709.212159861641	27
0	4556	1710.68383113681	28
0	4566	1715.765628065227	24
0	4577	1720.383181916294	22
0	4581	1721.264495659487	23
0	4585	1723.612488005583	23
0	4587	1723.651666660285	24
0	4589	1724.558182154005	25
0	4596	1730.486646239789	24
0	4604	1735.953552949737	22
0	4606	1736.030109207232	23
0	4612	1736.89245288398	24
0	4616	1739.449776115398	25
0	4620	1741.282618982852	24
0	4624	1743.191426222011	25
0	4628	1743.72566884486	25
0	4637	1747.850848901139	19
0	4647	1751.535363078043	18
0	4650	1753.089893358085	18
0	4654	1754.111106572333	19
0	4657	1754.949449752459	20
0	4659	1755.057535403579	21
0	4666	1759.946008697061	20
0	4668	1760.17605936228	21
0	4670	1760.218953255546	22
0	4673	1761.662119081655	22
0	4676	1764.992616130297	22
0	4685	1767.200730234429	22
0	4691	1768.893786905998	21
0	4697	1769.582497531918	22
0	4702	1770.964282211517	23
0	4714	1774.803503321918	23
0	4716	1775.90129581147	24
0	4718	1776.240854927759	25
0	4725	1779.942794023636	24
0	4732	1781.402699431514	25
0	4749	1786.815549390491	24
0	4754	1788.525432078604	24
0	4763	1791.186431221058	22
0	4769	1793.917459190988	22
0	4777	1796.305518070457	23
0	4802	1808.231615008668	19
0	4806	1808.373991457865	20
0	4816	1813.832548464192	20
0	4820	1815.720827474194	19
0	4822	1816.409996924435	20
0	4837	1822.356656615541	17
0	4842	1824.237785878327	18
0	4845	1825.06001626004	18
0	4847	1826.713314563653	19
0	4853	1829.985888546832	19
0	4856	1831.284304531573	19
0	4861	1833.718232731767	20
0	4873	1841.657731764996	20
0	4882	1846.88612689236	17
0	4884	1850.941482421376	18
0	4886	1851.318434446723	19
0	4895	1854.736810385758	18
0	4897	1854.793781003369	19
0	4903	1856.498900326013	20
0	4912	1859.959607099289	20
0	4914	1860.191314004302	21
0	4919	1861.777830417494	22
0	4936	1867.266464010077	23
0	4939	1870.324671885804	23
0	4941	1871.20200833392	24
0	4944	1872.041108736566	24
0	4949	1875.049311504284	22
0	4954	1876.687877507598	23
0	4961	1879.501067324006	21
0	4964	1880.727068234598	22
0	4967	1882.80878716949	22
0	4985	1889.875262465685	21
0	4990	1890.596039331267	22
0	4992	1890.622521338509	23
0	4995	1892.722395632888	24
0	5009	1896.366680764609	22
0	5011	1896.989487795789	23
0	5014	1898.534533981978	23
0	5023	1900.73670185202	23
0	5025	1900.914269777789	24
0	5027	1902.084145802096	25
0	5029	1902.682475716244	26
0	5048	1909.684571271706	19
0	5050	1910.918022055722	20
0	5053	1911.527537161205	20
0	5055	1911.58486735407	21
0	5057	1912.68704073076	22
0	5060	1914.346900802309	22
0	5064	1915.59800190453	21
0	5068	1917.957900560867	20
0	5075	1920.351508955369	19
0	5082	1922.31425034	18
0	5084	1923.220091062348	19
0	5088	1924.035342318409	18
0	5094	1925.168862754971	18
0	5101	1926.924474151698	19
0	5103	1926.99140059583	20
0	5109	1929.135119193648	21
0	5111	1929.766452096921	22
0	5116	1933.775935704937	20
0	5127	1937.815608519062	18
0	5139	1939.933412782431	18
0	5146	1942.383341318404	17
0	5148	1942.498322590694	18
0	5150	1943.375779639529	19
0	5152	1945.219125004688	20
0	5155	1948.38144885523	20
0	5163	1952.763779473747	21
0	5172	1955.288138888354	21
0	5174	1955.609618973642	22
0	5179	1956.733969806849	22
0	5188	1960.567067202227	23
0	5195	1961.861487439701	24
0	5204	1963.016099566776	25
0	5208	1965.629533437244	24
0	5215	1967.264204243945	25
0	5220	1969.261864145168	26
0	5225	1970.342725587078	27
0	5234	1971.973618181555	28
0	5243	1975.203283627149	25
0	5253	1976.203610601814	24
0	5255	1976.512836352373	25
0	5260	1978.433789059904	26
0	5263	1978.721651150237	26
0	5266	1979.333531371459	26
0	5277	1982.24846560994	26
0	5289	1988.421765216347	26
0	5298	1991.608419022802	27
0	5303	1993.209757159693	28
0	5305	1994.989366738357	29
0	5315	1997.194805020815	28
0	5318	1997.813983977935	28
0	5323	1998.982539320796	28
1	0	0	0
1	5	0.530280487642	0
1	7	0.894851443472	1
1	8	0.899949681433	1
1	9	2.214547230806	0
1	14	5.748645616739	0
1	18	6.383811039735	1
1	21	6.488567779872	2
1	23	6.78009337065	3
1	25	6.800208928541	4
1	27	8.311271807194	5
1	29	9.062854511375	6
1	30	10.027603511243	6
1	35	11.895176040999	6
1	37	12.616954303925	7
1	39	13.276793054964	8
1	41	13.578908588903	9
1	42	15.385235215475	9
1	43	15.585828133738	8
1	45	15.99490211229	8
1	50	16.892450020447	9
1	51	17.246225557947	9
1	56	17.821149936081	9
1	57	18.118590559186	9
1	59	18.372496881901	9
1	63	20.744564879268	9
1	76	25.150112353558	8
1	81	27.212260126593	8
1	98	34.365418437859	9
1	102	36.501207084372	9
1	103	37.135433813484	8
1	105	37.491310642292	8
1	107	38.120847319529	9
1	109	38.222603405825	10
1	110	38.342454966083	10
1	112	38.692862620646	10
1	113	38.715771763823	10
1	114	39.706873418495	9
1	118	41.097648655203	8
1	119	41.585096432775	7
1	120	41.602250307671	6
1	121	42.052585823176	5
1	123	42.625667604919	5
1	125	42.698611837633	6
1	126	44.589981196339	6
1	127	45.17397687895	5
1	129	45.688776091437	5
1	130	46.333145265654	5
1	131	46.472922108968	4
1	139	49.276073396999	4
1	140	49.56332869803	4
1	144	50.29111883363	4
1	146	50.782584404556	4
1	153	52.225159955958	4
1	155	52.450633509359	5
1	160	55.149259491107	5
1	173	57.586713394066	5
1	179	60.771969190725	6
1	180	60.791896839884	6
1	182	61.510299911978	6
1	183	62.778548957103	6
1	185	62.821647327618	6
1	187	62.865385896394	7
1	191	63.860416761415	7
1	196	66.499596745332	7
1	197	66.974499460813	7
1	198	67.586467073255	6
1	199	67.705893648425	5
1	203	68.742436419413	4
1	207	69.869860888939	3
1	209	70.083297771228	3
1	210	70.823173595796	3
1	217	72.378894104663	2
1	222	73.448962794643	2
1	224	73.903840967405	3
1	231	75.985288396168	3
1	232	76.127660814109	2
1	233	76.982433129967	1
1	234	78.013471611058	0
1	236	78.314415145359	0
1	240	80.596248943516	0
1	242	81.122876068799	0
1	243	81.218335144583	0
1	245	84.080477703094	0
1	247	84.385992533158	1
1	248	84.461960596545	1
1	249	84.904620482572	0
1	251	86.510801978619	0
1	253	86.780337376265	1
1	254	87.590701354852	1
1	256	88.641466468934	1
1	258	88.731010064849	2
1	259	89.367214934654	2
1	260	90.377852544129	1
1	267	92.516412149026	1
1	269	93.362873706681	1
1	270	93.414574089466	0
1	275	95.780024124382	0
1	282	97.822460790467	0
1	287	98.964362405898	0
1	289	99.132814268689	1
1	291	99.227853276675	2
1	295	101.305745418745	2
1	296	101.448914120034	1
1	300	101.846708463143	0
1	302	104.429044840622	0
1	303	104.495857674889	0
1	317	108.018958357041	0
1	322	109.956841702508	1
1	324	110.019119173358	2
1	325	110.229065685852	2
1	327	112.413502075128	2
1	331	115.397095144297	2
1	342	118.557606297495	2
1	347	120.387731488253	3
1	351	122.219169740869	4
1	359	126.823553643869	4
1	361	127.598252002417	4
1	363	130.312085968729	5
1	367	132.471948765912	5
1	371	135.028891078484	4
1	373	136.133066398678	4
1	375	136.537372153998	5
1	377	137.97100523216	6
1	378	138.246078754848	6
1	385	139.164848026811	6
1	387	140.161053059266	7
1	390	141.299154600274	8
1	391	141.783483450265	8
1	396	142.977744494729	8
1	400	144.923255320814	8
1	408	146.95330597295	8
1	410	146.956503635298	9
1	412	148.000276689224	10
1	420	151.847507283555	11
1	421	154.087919636839	11
1	425	157.30779195906	10
1	427	158.583150784307	10
1	428	158.809532369978	10
1	435	160.402371379431	10
1	437	160.909369688308	11
1	439	162.402613818648	11
1	440	162.748299894745	10
1	441	163.603791742999	9
1	443	163.616337687028	9
1	445	164.085144516858	10
1	447	166.400492257645	11
1	448	166.628595610646	11
1	450	167.39542918603	11
1	451	169.200028815387	11
1	452	169.361724998924	10
1	454	170.42450287571	10
1	455	172.288765289435	10
1	459	172.63776589919	10
1	461	174.445030627348	10
1	462	174.572177653406	9
1	466	175.657448173323	9
1	468	175.818058438438	10
1	470	176.278707875401	10
1	474	179.215129586022	9
1	475	179.352727657707	8
1	482	181.508758390886	7
1	483	181.836545040367	6
1	485	183.312629594075	6
1	493	184.506781332091	7
1	494	185.035308484878	7
1	496	185.427060461224	7
1	497	185.76505434285	7
1	499	186.699647043883	7
1	500	186.894691503091	7
1	502	187.115267686883	7
1	504	189.484336270806	8
1	506	191.324376573575	9
1	510	192.185834032309	9
1	515	193.217859239519	9
1	517	194.385522700482	10
1	519	194.908968164707	11
1	520	195.144414713725	11
1	521	196.473061285616	10
1	525	198.735803000157	9
1	527	199.990879514858	9
1	531	200.520405435663	10
1	534	200.872814761092	11
1	535	201.107333908799	11
1	536	201.392612129902	10
1	538	201.823032050318	10
1	540	201.988660483264	11
1	544	207.322133360469	11
1	546	208.338543143678	11
1	548	208.595798266939	12
1	549	210.335098318827	12
1	551	210.450254208475	12
1	553	211.125459688518	13
1	558	211.884683289434	14
1	562	212.334811115906	15
1	569	213.86575498222	16
1	578	215.960385751775	16
1	579	217.398217002829	15
1	583	218.806556956791	15
1	592	221.656064295257	16
1	598	223.231960907458	17
1	600	223.787587034295	18
1	602	224.078232744955	19
1	612	227.345127744186	20
1	620	229.847317074062	21
1	627	231.515094035694	22
1	630	232.640192482961	23
1	634	235.552818530674	23
1	636	236.091948203123	23
1	637	236.176249463739	23
1	638	237.823831716873	22
1	639	239.756269013873	21
1	643	242.814290729659	20
1	644	243.299759701902	19
1	645	243.730454695832	18
1	647	243.92923140959	18
1	648	245.675994872647	18
1	653	247.510807692397	18
1	658	249.093780170155	19
1	659	249.469270119085	19
1	661	250.013837100659	19
1	663	251.776737229816	20
1	667	252.683851255779	21
1	678	254.830621995516	21
1	680	256.960377208493	21
1	682	256.974651411813	22
1	684	257.155750189134	23
1	685	258.425924865664	23
1	689	260.476991262853	22
1	691	260.606654889131	22
1	693	262.65002122422	23
1	698	263.869190327049	24
1	700	264.104172917863	25
1	701	264.795581018976	25
1	703	267.240712631824	25
1	704	267.2564993762	25
1	706	268.318842904304	25
1	710	270.505937046545	25
1	714	272.168291114798	24
1	725	277.281914530903	24
1	727	279.316786711959	25
1	732	283.627646358339	26
1	733	283.743773692236	26
1	734	284.441403161399	25
1	736	285.389636134177	25
1	737	286.823882283196	25
1	738	287.432043153649	24
1	739	289.198988937719	23
1	740	289.949589970694	22
1	741	290.019112890619	21
1	742	290.459965781695	20
1	743	292.002771031958	19
1	749	294.178663505712	19
1	758	298.53782430831	19
1	760	300.022613201428	19
1	762	301.195701691378	20
1	763	301.401639275197	20
1	765	302.121427376672	20
1	766	302.181040968795	20
1	767	302.281515957799	19
1	769	302.449144879647	19
1	773	306.375055999587	19
1	783	311.673222741565	18
1	784	312.108634320553	17
1	786	312.16653968806	17
1	788	312.60440733276	18
1	790	315.371559061227	19
1	792	315.542051326288	20
1	793	316.096929432313	20
1	795	318.358088987896	20
1	796	319.25289829876	20
1	797	319.429978347031	19
1	799	320.5126960734	19
1	801	321.057838224811	20
1	805	322.439046918675	20
1	806	322.818238733074	19
1	807	325.257936760676	18
1	811	325.419999539434	18
1	814	326.344473019327	19
1	825	327.968969639161	20
1	837	330.601578156264	21
1	841	331.430832784606	22
1	842	331.76383538226	22
1	843	332.287700997095	21
1	847	333.178869273248	20
1	849	333.884782032455	20
1	851	334.735784206863	21
1	856	337.803916546846	22
1	858	338.107907441373	23
1	859	338.175928762701	23
1	860	338.403481512606	22
1	861	338.837144004633	21
1	868	341.946608053545	20
1	869	342.234882071383	19
1	870	342.288083112367	18
1	872	343.110634276505	18
1	876	345.67481525888	18
1	880	346.40118139274	18
1	883	346.446308771068	19
1	885	346.719998109648	20
1	887	346.723522601266	21
1	889	346.820641934035	22
1	894	347.884086210405	23
1	895	348.353216612414	23
1	897	348.495512335036	23
1	907	351.830057904769	23
1	908	351.865727558129	22
1	912	352.137236085034	22
1	914	353.974764031021	22
1	915	355.629257175408	21
1	916	355.673912917931	20
1	922	357.371154289363	20
1	933	359.900299737128	21
1	939	361.581520128297	21
1	943	363.489016103278	20
1	948	364.859593473986	20
1	950	365.482488880102	21
1	954	367.115338484661	21
1	955	367.893831405862	20
1	956	368.194893574126	19
1	958	369.004427468118	19
1	959	369.041740254183	19
1	961	370.712074717659	19
1	963	370.794474496567	20
1	970	373.4247709636	20
1	972	374.211162788963	20
1	974	374.714832975353	21
1	975	374.999208857574	21
1	976	376.503751271339	20
1	977	376.627470979021	19
1	978	377.616816766705	18
1	979	378.279253001611	17
1	983	380.144668587383	16
1	984	380.413241123245	15
1	986	380.708535054222	15
1	988	380.816073196258	16
1	990	381.899748772595	17
1	992	382.201079801476	18
1	993	382.576284962995	18
1	994	382.927379108287	17
1	996	383.056615225856	17
1	997	383.641067352568	17
1	1001	384.245478109871	16
1	1002	384.56967716799	15
1	1004	384.66138607093	15
1	1009	384.967510125939	16
1	1010	386.085965665857	16
1	1011	386.31280575366	15
1	1012	386.435228589137	14
1	1014	386.725461008325	14
1	1016	387.598905547209	15
1	1017	388.174863322792	15
1	1018	388.934448480918	14
1	1019	389.121097892424	13
1	1020	389.977719465182	12
1	1022	390.736024211174	12
1	1023	391.58086261324	12
1	1027	392.620720119084	11
1	1028	392.921644712336	10
1	1029	393.336252982918	9
1	1030	393.838503009809	8
1	1032	394.3217414348	8
1	1033	395.778111986802	8
1	1034	396.1453855206	7
1	1036	396.170262413939	7
1	1049	400.253274345419	7
1	1051	400.324153510475	7
1	1053	400.431156413925	8
1	1058	402.334923748453	9
1	1059	404.811891864764	9
1	1063	405.408850560242	8
1	1065	409.424145618979	8
1	1067	410.154221991077	9
1	1074	414.665854151349	9
1	1075	417.004303019598	8
1	1076	417.329537806809	7
1	1078	418.874229354072	7
1	1080	419.42544904319	8
1	1082	419.575076142688	9
1	1086	420.438627574717	9
1	1087	420.463424290874	8
1	1088	420.700654232226	7
1	1090	421.096640286034	7
1	1092	421.718301554096	8
1	1093	422.167283326472	8
1	1094	423.960074027897	7
1	1095	424.1147119363	6
1	1096	424.757048988862	5
1	1101	425.77854574685	5
1	1103	426.888139577652	6
1	1107	427.71606536865	6
1	1114	429.884774102444	5
1	1115	430.19602618891	4
1	1120	433.354586703207	4
1	1122	434.774691841968	5
1	1124	434.864116458195	6
1	1128	436.611194187953	6
1	1130	437.472478180085	6
1	1132	437.654144708039	7
1	1134	437.852930470807	8
1	1136	438.080107160215	9
1	1140	438.205286666561	10
1	1142	439.013061724278	10
1	1150	443.369286992222	10
1	1162	446.508081635989	11
1	1165	448.050036766741	11
1	1172	449.537496183578	10
1	1174	452.165142606742	10
1	1176	453.987167021013	11
1	1187	458.277813284589	12
1	1192	459.740364765804	13
1	1194	463.160815368576	14
1	1199	463.515659112346	15
1	1201	463.563805033032	16
1	1202	464.480145126828	16
1	1203	465.982702300717	15
1	1204	466.185587937149	14
1	1209	469.161347946125	14
1	1210	470.510276573401	14
1	1211	470.673038151891	13
1	1213	471.602241331725	13
1	1215	471.68691918634	14
1	1216	471.727980304958	14
1	1217	472.555716153016	13
1	1221	474.851501675423	13
1	1223	475.135726362587	13
1	1227	475.701085190977	12
1	1229	475.831175102342	12
1	1230	477.940835564901	12
1	1244	479.959799809011	12
1	1252	481.105109445513	13
1	1260	484.5508388326	14
1	1262	484.680104864304	15
1	1263	484.807849347535	15
1	1265	485.705635114082	15
1	1266	487.446812994846	15
1	1267	489.476424934191	14
1	1269	490.177783980389	14
1	1270	490.691929003258	14
1	1275	492.354365781596	14
1	1279	495.230396202945	14
1	1283	496.344236024703	14
1	1286	497.250053902436	15
1	1291	500.6377294364	16
1	1299	503.055113420477	17
1	1300	503.315135891366	17
1	1302	504.419420191694	17
1	1303	504.583016775348	17
1	1305	504.76061855445	17
1	1306	505.038718118329	17
1	1310	506.089031832966	16
1	1312	506.166550387449	16
1	1313	506.682468227254	16
1	1317	506.950636432557	16
1	1320	509.519795833789	17
1	1321	509.76393579123	17
1	1325	510.927878297501	16
1	1329	512.158034450635	16
1	1331	512.158653544871	17
1	1334	515.668882408875	18
1	1335	516.294992160493	18
1	1337	517.573467126429	18
1	1338	517.96644710701	18
1	1345	520.177837660746	17
1	1347	521.304472828585	17
1	1348	522.651956809598	17
1	1352	523.719114343801	17
1	1354	524.959437544374	17
1	1355	525.422647289996	16
1	1357	525.775285340421	16
1	1359	526.893490050709	17
1	1361	527.820760764876	18
1	1362	528.817022143982	18
1	1364	529.541005370161	18
1	1368	530.190529677069	19
1	1374	531.40447361361	20
1	1379	532.901889384165	21
1	1386	535.526720814176	21
1	1387	535.935785891456	20
1	1389	536.920466187259	20
1	1393	537.851898493839	20
1	1394	538.586530565355	19
1	1399	539.937954068549	19
1	1400	540.063865227194	19
1	1404	542.289553453434	18
1	1405	542.319371035972	17
1	1407	543.661558287477	17
1	1408	543.952506361832	17
1	1409	543.976775305938	16
1	1411	544.87525357573	16
1	1413	545.740600807617	17
1	1414	547.380999355029	17
1	1415	548.526893662548	16
1	1417	549.304530147686	16
1	1418	549.669347074944	16
1	1426	552.864861220648	16
1	1427	553.39001638187	16
1	1428	553.497647467762	15
1	1430	554.023345746158	15
1	1432	554.174346104658	16
1	1434	555.594441636932	17
1	1436	556.330079275289	18
1	1438	557.089097358594	19
1	1439	557.624786679216	19
1	1441	557.630997279335	19
1	1443	557.785903024188	20
1	1444	558.659261955231	20
1	1446	561.450669094442	20
1	1448	561.728698882911	21
1	1449	562.329052951251	21
1	1450	562.773885162999	20
1	1454	563.730325900972	19
1	1455	564.623704301833	18
1	1456	564.980406741246	17
1	1458	565.498342950721	17
1	1462	567.085887188864	17
1	1463	567.768437150746	16
1	1464	567.844050632634	15
1	1466	568.223073048364	15
1	1468	568.798033577683	16
1	1470	568.920621081641	17
1	1471	568.988464790586	17
1	1472	572.641282710723	16
1	1473	574.960086466375	15
1	1474	575.564647239963	14
1	1478	577.479094056294	14
1	1482	577.769248590118	15
1	1496	581.905236259424	16
1	1501	582.85797659214	17
1	1508	584.200259362295	18
1	1509	584.334527163758	18
1	1510	584.433945843117	17
1	1515	585.408309975037	17
1	1516	588.088403336241	17
1	1517	588.829525843909	16
1	1521	590.214431194546	15
1	1525	590.437981882006	15
1	1527	591.01303406625	15
1	1528	592.63376970511	14
1	1529	593.3441533277	13
1	1531	593.40343705288	13
1	1533	594.389269525653	14
1	1534	594.446879711532	14
1	1535	595.070956518433	13
1	1540	595.505948443797	13
1	1542	596.179401119207	14
1	1544	597.188302626629	15
1	1545	597.681204863794	15
1	1546	597.945351323833	14
1	1558	599.964591361808	14
1	1562	602.498855098904	15
1	1567	603.230398994641	16
1	1571	603.934096350214	17
1	1573	605.619463125769	17
1	1574	607.439748127588	16
1	1576	608.264275534715	16
1	1577	608.416944677224	16
1	1579	608.447987730183	16
1	1580	608.65978816625	16
1	1581	608.769487833125	15
1	1583	609.136018992084	15
1	1587	609.729008611374	16
1	1589	610.880510079151	16
1	1591	611.893773014089	16
1	1593	612.875730117271	17
1	1603	615.846109542283	17
1	1605	616.191578340441	17
1	1606	616.41342317966	17
1	1610	618.07867688593	17
1	1612	618.316253630813	18
1	1621	622.165487705928	19
1	1622	623.848702546679	19
1	1624	624.171308162123	19
1	1625	624.640970827132	19
1	1626	624.669570651489	18
1	1631	626.268570031458	18
1	1632	627.522813588878	18
1	1639	629.225315571488	18
1	1641	631.705853749215	18
1	1646	633.067430658676	18
1	1648	633.511400113116	19
1	1649	633.590865242852	19
1	1651	633.683972334751	19
1	1652	633.737247586468	19
1	1654	633.858316822041	19
1	1655	634.513884682095	19
1	1659	635.725159905563	19
1	1662	637.342759268873	20
1	1676	641.296509639745	21
1	1681	642.675329141747	22
1	1688	644.892939269747	23
1	1692	645.695298698732	24
1	1696	646.694591796313	25
1	1698	646.900680570638	26
1	1701	647.638799030891	27
1	1707	648.539696764504	28
1	1712	649.179333294119	29
1	1714	649.849890122369	29
1	1716	650.558279184189	29
1	1718	650.829319785527	30
1	1719	651.988851830589	30
1	1721	652.138495238784	30
1	1722	652.17425143465	30
1	1724	653.407975618909	30
1	1728	653.948103008975	31
1	1731	656.414188910905	32
1	1733	656.502728063841	33
1	1738	658.736785538556	34
1	1739	658.825155785319	34
1	1740	659.795426548965	33
1	1741	660.518527753613	32
1	1742	660.778868303142	31
1	1744	661.490310546753	31
1	1749	661.937126290087	32
1	1750	661.965643148936	32
1	1751	662.779301439231	31
1	1753	663.098936109094	31
1	1757	664.586366504716	31
1	1758	664.977642845213	30
1	1760	664.999395991645	30
1	1761	665.401437164624	30
1	1762	666.003089501749	29
1	1763	666.074233561476	28
1	1764	666.53991960766	27
1	1768	667.972977594374	27
1	1770	668.672501916556	28
1	1773	668.710838786357	29
1	1777	669.072544062696	29
1	1778	670.003735405984	28
1	1782	673.199628613793	27
1	1784	673.333123313733	27
1	1786	673.542897358549	28
1	1787	673.544003173912	28
1	1788	674.918759576052	27
1	1789	674.919588302284	26
1	1791	675.224373922592	26
1	1793	675.261148790552	27
1	1794	675.358946455154	27
1	1796	677.254213409719	27
1	1797	678.272307878747	27
1	1799	679.101589311907	27
1	1803	679.438585116073	28
1	1805	680.462548140361	28
1	1806	680.667365951061	27
1	1807	681.366590856328	26
1	1808	682.658622403387	25
1	1809	683.888800147217	24
1	1811	684.532272499435	24
1	1812	685.662463716005	24
1	1813	685.929407129291	23
1	1815	686.329882010378	23
1	1816	686.922756780363	23
1	1818	688.633938215651	23
1	1819	688.961685640145	23
1	1820	689.392012177282	22
1	1824	691.469551305113	21
1	1825	691.630950827747	20
1	1830	692.66867778559	20
1	1831	693.223656015992	20
1	1832	693.79657654386	19
1	1834	694.17533428472	19
1	1835	694.461050647613	19
1	1837	695.606720794901	19
1	1838	696.466786920399	19
1	1839	697.314385715251	18
1	1843	699.621632881455	18
1	1845	699.696394197364	19
1	1847	700.565241986969	19
1	1849	700.819416245272	19
1	1850	700.865197267616	19
1	1851	701.320929065747	18
1	1853	702.077788703464	18
1	1855	702.614132797363	19
1	1856	707.438918262414	19
1	1857	708.058507874322	18
1	1858	708.305031817764	17
1	1859	708.61277855951	16
1	1860	709.76628049372	15
1	1862	709.771534354695	15
1	1863	710.8698203873	15
1	1873	712.740838802714	15
1	1875	712.921181427406	16
1	1881	715.441692178138	17
1	1889	717.908635660301	18
1	1890	718.709125101106	18
1	1891	719.057402925771	17
1	1892	719.364512046619	16
1	1900	722.200433255746	16
1	1902	722.226571178049	17
1	1904	723.083793667255	18
1	1905	723.334050632339	18
1	1906	723.563234156673	17
1	1910	724.764970659741	17
1	1912	725.099599228076	17
1	1920	730.813038392132	17
1	1921	731.722539391175	17
1	1923	733.24889338886	17
1	1928	735.291112303732	18
1	1929	736.132517426333	18
1	1931	736.359802809156	18
1	1932	736.719382313256	18
1	1933	737.409879783979	17
1	1935	737.797964709104	17
1	1940	738.865725341934	18
1	1949	740.553218333374	19
1	1953	744.378180372335	20
1	1954	747.221295636435	20
1	1956	747.474005210044	20
1	1957	750.737733599255	20
1	1959	751.774263054769	20
1	1960	753.391615959576	20
1	1961	754.159399357526	19
1	1962	754.369668748515	18
1	1967	755.515487045249	18
1	1969	755.685148501093	19
1	1970	755.945505281089	19
1	1974	756.319457231914	19
1	1976	756.365020895975	20
1	1981	757.445083256051	20
1	1983	758.103093913546	20
1	1985	758.460948933196	21
1	1987	758.729658221806	22
1	1989	758.877315223223	23
1	1994	759.901814569516	24
1	1996	759.970636614204	25
1	1997	760.204281826327	25
1	1999	760.949300673736	25
1	2000	761.013490604826	25
1	2001	761.786034597692	24
1	2003	762.244839043657	24
1	2004	762.818455834507	24
1	2005	763.046626631265	23
1	2028	771.443024897053	23
1	2036	775.628531592738	24
1	2038	775.846440003599	25
1	2039	775.975276182988	25
1	2043	776.263156111626	24
1	2044	776.395548734866	23
1	2045	776.524823474415	22
1	2046	777.019838722182	21
1	2047	778.449079113149	20
1	2049	779.139876258356	20
1	2050	779.275091070722	20
1	2051	779.559464132544	19
1	2053	779.667135074398	19
1	2058	781.214930355838	20
1	2060	782.685918093921	21
1	2061	782.761642090041	21
1	2062	783.442220340445	20
1	2063	784.325282149454	19
1	2065	784.382410848673	19
1	2069	785.076481840018	20
1	2071	787.284238820743	20
1	2073	787.431813762966	20
1	2074	787.577836707271	20
1	2081	790.021722510276	20
1	2083	791.526809228123	20
1	2088	793.452265066827	20
1	2090	793.807846907659	21
1	2091	794.814170265292	21
1	2093	795.156839382244	21
1	2094	795.295339220984	21
1	2096	795.5008893767	21
1	2097	795.857895167175	21
1	2098	796.186949449284	20
1	2099	797.534046223879	19
1	2101	798.264097764684	19
1	2102	798.486176425236	19
1	2109	800.07151801203	19
1	2114	802.902060127786	19
1	2116	803.240934113387	19
1	2117	803.549746866926	19
1	2118	804.218508407696	18
1	2122	805.188204676447	17
1	2123	805.975953159606	16
1	2124	806.685283351919	15
1	2126	807.068508472707	15
1	2128	808.846957127073	16
1	2129	809.448685047505	16
1	2130	810.194605599688	15
1	2134	811.474927001438	14
1	2136	811.601431784843	14
1	2140	812.220909783414	15
1	2142	813.294616757131	15
1	2143	813.576771225728	14
1	2145	814.167431513494	14
1	2147	814.253310762528	15
1	2154	816.351871902098	16
1	2156	817.239128617137	16
1	2157	817.269640095406	15
1	2162	817.563908821416	15
1	2163	818.288650253558	15
1	2165	818.546188683699	15
1	2169	820.54875124595	15
1	2170	822.060501046538	14
1	2171	823.796841818226	13
1	2177	826.178114759103	13
1	2180	827.087532691601	13
1	2182	827.387523331474	13
1	2186	827.577629631236	14
1	2189	830.449616716405	15
1	2190	831.04730034467	15
1	2195	832.932106113312	15
1	2196	833.001794987125	15
1	2198	837.620337445524	15
1	2199	838.037696778042	15
1	2201	838.630089440041	15
1	2205	840.040306398025	15
1	2206	840.965010451366	14
1	2210	841.80462656718	13
1	2214	842.393027549885	12
1	2216	843.332411466857	12
1	2217	843.581747752127	12
1	2222	846.663709600844	12
1	2223	847.148301448057	12
1	2224	847.561724204553	11
1	2225	847.727060504309	10
1	2232	850.73207556607	10
1	2237	852.313712775574	11
1	2242	853.543926420505	11
1	2243	853.592073651886	10
1	2248	855.613448607949	10
1	2252	856.539605350459	10
1	2253	856.892065402391	9
1	2260	861.525112139082	8
1	2262	863.095173982919	8
1	2263	864.363768657675	8
1	2264	865.91629867964	7
1	2268	866.369820485477	7
1	2273	868.25889515672	7
1	2280	869.485940995388	6
1	2281	869.836663639423	5
1	2282	871.182828430162	4
1	2283	872.3022055909	3
1	2285	873.783752546352	3
1	2286	873.884033355292	3
1	2287	875.58545762183	2
1	2288	875.639424226505	1
1	2289	875.917236641454	0
1	2296	877.989501773402	0
1	2298	879.410183957227	0
1	2303	880.883539977249	0
1	2305	881.183396427369	1
1	2306	882.142443420221	1
1	2307	883.518437052213	0
1	2312	886.009259836328	0
1	2313	886.015611029793	0
1	2315	886.71904126236	0
1	2317	887.298670840836	1
1	2318	887.549498032066	1
1	2320	888.527630566572	1
1	2322	888.701144235361	2
1	2323	888.919411241863	2
1	2324	889.114784866813	1
1	2326	889.690709770985	1
1	2328	889.724999430156	2
1	2330	890.09096645715	3
1	2331	890.185778473345	3
1	2333	891.074226973638	3
1	2335	891.274684903098	4
1	2336	891.479506816609	4
1	2338	891.609975981078	4
1	2340	893.084492708607	5
1	2341	896.066549091216	5
1	2351	899.60830373166	4
1	2352	900.003872981963	3
1	2354	900.603943788657	3
1	2356	901.494086110814	4
1	2358	902.678777301441	5
1	2360	902.681972662541	6
1	2362	903.47708247163	7
1	2363	906.288549768255	7
1	2365	906.913417378848	7
1	2366	908.2498021404	7
1	2368	909.563181180884	7
1	2369	910.541201575234	7
1	2370	911.088119119161	6
1	2372	911.272531596135	6
1	2376	913.659527111393	7
1	2378	913.80848349447	8
1	2380	915.212562167156	9
1	2391	921.188930289569	9
1	2393	921.576405526115	9
1	2394	922.467442271543	9
1	2399	923.291105496528	9
1	2400	925.115647425895	9
1	2406	926.45024999034	9
1	2409	929.110226054263	9
1	2410	929.455154111868	8
1	2411	930.923626492737	7
1	2418	934.950932303957	6
1	2420	935.914486799527	6
1	2422	935.954519164496	7
1	2424	935.96164445389	8
1	2425	936.30996240841	8
1	2427	936.701074133081	8
1	2429	937.421564714454	9
1	2430	937.626297045123	9
1	2431	939.027639291053	8
1	2436	941.072211610365	8
1	2437	943.229659907323	8
1	2439	944.365550902851	8
1	2440	944.528180751383	8
1	2441	944.939079192676	7
1	2442	945.51193212927	6
1	2443	946.917685136782	5
1	2445	947.167229508503	5
1	2447	947.423384934097	6
1	2449	947.577243748437	7
1	2451	948.003788008754	8
1	2453	948.110129644211	9
1	2455	948.274319795886	10
1	2456	949.255984631974	10
1	2461	952.229092758174	10
1	2462	952.691244695208	10
1	2463	952.994807086801	9
1	2465	953.604319882248	9
1	2466	953.665652408195	9
1	2468	954.059278800319	9
1	2470	954.076212480793	10
1	2471	955.495127879765	10
1	2472	955.547417832184	9
1	2476	956.120912352776	9
1	2484	958.666511355131	9
1	2488	959.514332712025	9
1	2490	959.986947317835	10
1	2492	961.368363387015	10
1	2493	962.478991179194	9
1	2495	963.341733318062	9
1	2496	964.404300750261	9
1	2497	965.025951101906	8
1	2498	965.445823903989	7
1	2502	966.549483187193	7
1	2504	967.079792863269	7
1	2506	968.352032370141	7
1	2507	969.488891463358	7
1	2514	972.864637585464	7
1	2516	973.832515157334	7
1	2521	974.632289677966	7
1	2522	974.854006396178	7
1	2524	975.415981095874	7
1	2525	975.850180448806	7
1	2527	976.268869147964	7
1	2532	978.391145235967	8
1	2536	979.800912971435	8
1	2543	980.214795752369	8
1	2546	980.762967821398	9
1	2548	981.543526343707	10
1	2549	981.647144729519	10
1	2553	982.327195477388	10
1	2559	984.505728877217	11
1	2560	985.62845339193	11
1	2562	985.728986225098	11
1	2566	987.022092416397	11
1	2567	987.875673179107	10
1	2569	987.914869131585	10
1	2576	989.934520001853	11
1	2579	992.213905952414	12
1	2580	992.724383016183	12
1	2587	994.547319721716	11
1	2591	995.554904643668	10
1	2595	999.91304913053	9
1	2597	1000.482276822247	9
1	2599	1000.990318383592	10
1	2601	1001.595386568821	11
1	2608	1003.419016840502	12
1	2610	1004.396846630346	13
1	2616	1006.007858918386	14
1	2618	1006.044312454934	15
1	2622	1006.832339687071	15
1	2624	1007.244521278157	15
1	2637	1012.096049768878	15
1	2638	1012.213171553199	14
1	2639	1012.653728341248	13
1	2640	1013.71386273572	12
1	2641	1014.301782187596	11
1	2643	1014.906985935722	11
1	2644	1015.025294325604	11
1	2645	1015.054570495675	10
1	2646	1015.256409358723	9
1	2650	1018.447190902462	8
1	2654	1019.101114339459	7
1	2655	1019.102545082157	6
1	2656	1020.583841771538	5
1	2660	1022.230671778963	4
1	2661	1022.995309161715	3
1	2665	1023.627284741966	2
1	2667	1024.931979337856	2
1	2678	1026.586915965607	3
1	2680	1027.323026399398	4
1	2681	1029.449604009381	4
1	2691	1031.274229359215	3
1	2695	1032.604697823174	3
1	2698	1034.187592455341	4
1	2702	1035.333146345311	4
1	2704	1035.902157066589	4
1	2711	1036.720177377228	5
1	2713	1037.407526721612	5
1	2715	1037.562233419939	5
1	2716	1038.429742792999	5
1	2720	1039.189615027398	5
1	2722	1040.463160358847	5
1	2724	1042.976503289583	5
1	2725	1043.176200475422	5
1	2727	1043.188267245339	5
1	2728	1044.998974428319	5
1	2729	1045.001726158095	4
1	2730	1046.11685116718	3
1	2731	1048.123109127279	2
1	2732	1050.745772654878	1
1	2733	1051.336075682609	0
1	2744	1056.086356638928	0
1	2746	1056.428969644906	1
1	2748	1056.502203606063	2
1	2749	1056.768285101362	2
1	2751	1057.038972870973	2
1	2752	1057.098046916898	2
1	2753	1057.823325272033	1
1	2755	1057.957655556237	1
1	2757	1058.085662540371	2
1	2758	1058.123325032599	2
1	2760	1058.375374292594	2
1	2762	1058.466346011449	3
1	2763	1058.770642380601	3
1	2768	1059.629640097219	3
1	2775	1062.122111667045	3
1	2777	1063.302174265326	3
1	2778	1064.065974434523	3
1	2779	1064.525729404704	2
1	2780	1064.875387204238	1
1	2781	1064.931869770882	0
1	2783	1065.227952926339	0
1	2785	1065.251579220187	1
1	2787	1065.581544149026	2
1	2788	1066.433659215517	2
1	2790	1069.277650596673	2
1	2792	1069.602180289614	3
1	2794	1069.753336273234	4
1	2795	1069.768149738915	4
1	2796	1070.488038155259	3
1	2797	1071.13522517099	2
1	2801	1072.554731512628	2
1	2804	1073.189115478409	3
1	2806	1073.373442123103	4
1	2808	1074.388463405227	5
1	2810	1075.554331826864	6
1	2811	1075.82563521347	6
1	2812	1076.329558357996	5
1	2814	1076.764856290603	5
1	2815	1077.38101131323	5
1	2817	1077.806290064487	5
1	2818	1079.439693907763	5
1	2820	1079.746508321894	5
1	2821	1080.226471934295	5
1	2822	1080.335735836477	4
1	2823	1080.671488130012	3
1	2827	1081.488818033628	2
1	2828	1081.780449853311	1
1	2829	1082.38964849136	0
1	2831	1082.522953492273	0
1	2833	1083.403657496412	1
1	2835	1083.938184956936	2
1	2836	1085.470114456921	2
1	2838	1086.165478565329	2
1	2839	1087.21887051782	2
1	2841	1087.339751797804	2
1	2842	1088.147617298502	2
1	2843	1088.232789065892	1
1	2844	1089.366938745023	0
1	2846	1089.893039880426	0
1	2848	1090.652513365684	1
1	2854	1092.436474949558	2
1	2859	1093.447174148601	3
1	2862	1094.016634007115	3
1	2864	1095.364446755345	3
1	2866	1095.685641311508	4
1	2867	1096.647698448321	4
1	2868	1097.315810635229	3
1	2869	1098.621151051846	2
1	2870	1098.708804000661	1
1	2872	1099.11164637404	1
1	2874	1101.614012500781	2
1	2876	1102.058104456985	3
1	2877	1102.997949103272	3
1	2879	1103.166493471305	3
1	2883	1103.946329684454	3
1	2888	1104.718415193946	3
1	2890	1105.054958791262	4
1	2891	1105.633708358682	4
1	2901	1107.170116281553	4
1	2906	1109.055471193174	5
1	2908	1110.107478114569	5
1	2912	1110.735824760771	5
1	2914	1111.966697760365	5
1	2915	1112.083174940308	4
1	2921	1112.570802029186	4
1	2924	1113.157665549317	5
1	2927	1114.550723157104	6
1	2928	1115.0040975854	6
1	2930	1115.202413347031	6
1	2932	1116.048202776899	7
1	2933	1116.633831202897	7
1	2934	1118.003347916849	6
1	2935	1118.071358539265	5
1	2936	1118.342391112874	4
1	2938	1119.473160633957	4
1	2940	1120.195000112305	5
1	2941	1120.252765794551	5
1	2946	1121.075909589151	5
1	2952	1122.150737050094	6
1	2955	1122.833113907624	6
1	2956	1122.915224967442	5
1	2958	1123.260812626282	5
1	2959	1124.114340380994	5
1	2960	1124.642456056123	4
1	2961	1125.344965983325	3
1	2965	1128.332828203164	3
1	2970	1128.713136480317	4
1	2972	1130.043546347832	4
1	2973	1131.124378574909	3
1	2974	1132.087433697896	2
1	2982	1133.981307006551	2
1	2986	1134.69851066359	2
1	2987	1134.970530438919	1
1	2989	1135.099724739037	1
1	2997	1137.778852596406	2
1	2998	1138.785254370069	2
1	3005	1139.992686394615	1
1	3006	1141.839560502116	0
1	3014	1147.400934099334	0
1	3018	1148.541270582855	1
1	3026	1150.362161552346	1
1	3027	1152.585232936505	0
1	3032	1154.026667341992	0
1	3033	1154.284344107951	0
1	3041	1159.560987195503	0
1	3042	1159.655146687043	0
1	3044	1159.947889439956	0
1	3045	1160.323338307631	0
1	3050	1161.551483405593	0
1	3052	1163.250327637528	1
1	3057	1166.290654132497	2
1	3058	1166.311322158408	2
1	3062	1168.079267151882	1
1	3063	1168.528958216635	0
1	3067	1169.829697232655	0
1	3069	1170.014115795446	0
1	3076	1174.581305813711	0
1	3079	1175.536564662723	1
1	3084	1177.556529598136	2
1	3086	1177.621053411187	3
1	3088	1179.452727123416	4
1	3090	1179.655788715512	5
1	3091	1179.689157547107	5
1	3093	1180.120070585942	5
1	3094	1181.39707895799	5
1	3101	1183.867029273668	4
1	3102	1184.117010890655	3
1	3103	1184.138987965287	2
1	3107	1187.335311212594	2
1	3110	1188.609143985494	3
1	3111	1188.741837139416	3
1	3112	1190.519529179142	2
1	3113	1190.570581128989	1
1	3115	1190.625493352116	1
1	3117	1191.396537037315	2
1	3121	1193.005618825602	2
1	3122	1193.492217661804	1
1	3123	1194.822662535746	0
1	3125	1195.260763251974	0
1	3127	1196.259213370696	1
1	3128	1196.310591601169	1
1	3129	1196.977536882612	0
1	3131	1198.021447956792	0
1	3135	1198.680767993851	1
1	3138	1200.290463248066	2
1	3140	1200.534316810311	3
1	3144	1201.622633399055	3
1	3146	1203.360447666565	3
1	3148	1205.206963332696	4
1	3149	1206.498266922261	4
1	3150	1206.665262069067	3
1	3151	1206.726007211815	2
1	3152	1206.756900242077	1
1	3153	1207.764386737194	0
1	3158	1211.102259988689	0
1	3165	1212.323151998789	0
1	3167	1213.568190677543	0
1	3168	1213.89858006736	0
1	3173	1217.24337127826	0
1	3177	1218.492648584245	1
1	3181	1218.990611112297	2
1	3184	1219.915075982062	2
1	3185	1219.997654213699	1
1	3189	1221.187146800947	1
1	3194	1222.632018014716	1
1	3195	1222.649051682617	0
1	3199	1224.337538038437	0
1	3201	1225.559113618599	0
1	3203	1227.366493161752	0
1	3205	1228.03838772195	1
1	3207	1228.326916988329	2
1	3209	1229.963636583378	3
1	3213	1230.546149933326	3
1	3214	1230.689259509676	2
1	3215	1230.799710943457	1
1	3216	1231.522407465355	0
1	3224	1233.701313863193	0
1	3228	1235.101982392546	1
1	3230	1235.369348135354	1
1	3232	1235.747158961899	1
1	3233	1238.10559046438	1
1	3237	1240.49616034352	0
1	3248	1242.447674383748	0
1	3249	1243.008261249366	0
1	3251	1243.957520964679	0
1	3255	1244.926742841282	1
1	3258	1245.048082705644	2
1	3260	1246.942639311941	3
1	3262	1247.04762113549	4
1	3263	1247.514735794839	4
1	3265	1247.814013753912	4
1	3269	1248.727392839389	4
1	3273	1251.603615378609	3
1	3274	1251.937919291236	2
1	3275	1253.935055987836	1
1	3277	1253.985740958542	1
1	3281	1255.026230837843	1
1	3285	1257.411121148588	0
1	3289	1258.916849417981	0
1	3291	1259.358088867588	0
1	3296	1266.695228375641	0
1	3298	1266.748293820722	1
1	3300	1267.050344845922	2
1	3301	1267.600284344935	2
1	3308	1270.045084943437	1
1	3314	1271.76974695359	1
1	3316	1271.818896750649	2
1	3319	1273.865477960809	2
1	3323	1276.720531902878	1
1	3327	1277.031700652909	0
1	3329	1277.62957074948	0
1	3330	1278.319413915431	0
1	3332	1279.224077369379	0
1	3333	1279.419001009144	0
1	3341	1282.428533161418	0
1	3343	1283.182782306461	1
1	3345	1283.311023262407	2
1	3347	1284.182006953565	3
1	3349	1284.849054335951	4
1	3353	1286.226825080178	4
1	3358	1287.433667691657	4
1	3362	1288.532315793443	5
1	3364	1289.623324540244	5
1	3365	1290.206296411054	4
1	3369	1291.71770202	4
1	3376	1292.717796115961	5
1	3380	1294.62776116852	6
1	3381	1295.147374295623	6
1	3382	1295.886229072233	5
1	3386	1296.87059648098	4
1	3387	1296.889358884337	3
1	3394	1298.31450350276	3
1	3397	1300.125950769991	4
1	3398	1300.970367054786	4
1	3399	1301.291211346318	3
1	3403	1301.685076038276	2
1	3404	1301.923123921604	1
1	3410	1302.504256062197	1
1	3414	1303.649972408689	2
1	3416	1303.816086224265	3
1	3421	1305.192033650322	4
1	3422	1305.328306450032	4
1	3423	1306.098389738576	3
1	3425	1306.520637736192	3
1	3430	1306.938314680304	4
1	3431	1307.902174122333	4
1	3433	1308.151432114624	4
1	3435	1308.930675091958	5
1	3437	1308.988082725473	6
1	3439	1309.18816911848	7
1	3443	1310.274965827984	8
1	3446	1311.654870834978	9
1	3447	1311.704247441777	9
1	3448	1313.497001080192	8
1	3455	1315.31873984654	7
1	3457	1315.378309470161	7
1	3459	1315.83492318936	8
1	3461	1316.045040190056	9
1	3462	1316.68894301198	9
1	3463	1316.938129550344	8
1	3464	1318.916451629343	7
1	3466	1319.162702482552	7
1	3475	1320.510660287439	8
1	3478	1321.208865230729	9
1	3480	1321.836622669988	10
1	3483	1322.063797305558	11
1	3484	1322.797699990156	11
1	3486	1323.078393595443	11
1	3487	1323.295866839224	11
1	3489	1323.640804141415	11
1	3491	1324.752409198876	12
1	3496	1325.679513977536	13
1	3500	1326.42821522382	13
1	3501	1328.624404050595	12
1	3502	1330.176704738787	11
1	3503	1330.524482568685	10
1	3505	1332.50213457732	10
1	3506	1333.322568821433	10
1	3507	1333.64066830575	9
1	3512	1334.690668746225	9
1	3513	1334.691383566494	9
1	3523	1336.64909600396	9
1	3525	1337.123728362945	9
1	3526	1337.679794916349	8
1	3530	1338.781930805993	7
1	3532	1339.533607180326	7
1	3533	1339.577689898576	7
1	3534	1341.178895941305	6
1	3535	1341.73004360772	5
1	3536	1342.208327944318	4
1	3538	1343.896824999798	4
1	3540	1344.475247022631	5
1	3547	1345.527575854644	6
1	3550	1346.170714758522	7
1	3552	1346.369754316172	8
1	3553	1346.851593022453	8
1	3554	1348.475976341238	7
1	3555	1349.394158457923	6
1	3560	1349.89604394011	6
1	3561	1352.260244402501	6
1	3562	1354.458024313898	5
1	3564	1354.708096644303	5
1	3565	1354.987529142898	5
1	3570	1357.01624267819	5
1	3572	1359.003595069688	6
1	3577	1361.184248385744	7
1	3581	1363.448379516146	7
1	3583	1364.536002438685	7
1	3584	1364.570020641822	7
1	3585	1364.879391743797	6
1	3586	1366.674988930185	5
1	3588	1368.159579015836	5
1	3589	1368.444137815294	5
1	3590	1368.578773862643	4
1	3591	1368.889185655356	3
1	3593	1369.595639984405	3
1	3594	1370.623087242118	3
1	3596	1370.654756296202	3
1	3601	1371.196532324434	4
1	3603	1371.376345965684	5
1	3604	1372.799305410171	5
1	3605	1372.939520036892	4
1	3607	1373.366309596964	4
1	3611	1374.575470779733	4
1	3619	1377.274378161368	4
1	3621	1377.929149832324	5
1	3630	1379.969538553119	6
1	3632	1381.843538798503	7
1	3639	1383.340672815846	8
1	3640	1383.392029531782	8
1	3644	1384.025739747214	7
1	3646	1384.190036488125	7
1	3648	1384.242096183188	8
1	3649	1384.680956381898	8
1	3651	1385.009908771787	8
1	3652	1386.814307520985	8
1	3654	1387.406175358349	8
1	3655	1387.693493496341	8
1	3662	1389.347769541696	8
1	3673	1392.069227193345	9
1	3675	1392.761787348505	9
1	3676	1393.590380005521	8
1	3678	1393.871954905895	8
1	3680	1394.732041386111	9
1	3681	1395.77839478595	9
1	3688	1400.252489608358	8
1	3692	1401.816559218614	7
1	3697	1402.870921218937	7
1	3699	1403.146495765158	8
1	3703	1404.191969820301	9
1	3705	1405.45146393066	9
1	3707	1406.087508908728	9
1	3711	1407.374392618516	10
1	3714	1407.727701134762	11
1	3722	1409.79428650176	12
1	3737	1413.668499727638	13
1	3741	1415.644897144861	14
1	3742	1415.66353125701	14
1	3743	1415.825900594474	13
1	3744	1417.039997442169	12
1	3746	1418.047423496383	12
1	3756	1419.593171264375	13
1	3762	1421.888194023154	14
1	3766	1423.278938810778	14
1	3767	1423.777280601792	13
1	3768	1424.386870635777	12
1	3769	1424.702179635966	11
1	3770	1426.132249234979	10
1	3771	1426.272168553132	9
1	3773	1426.300940515527	9
1	3775	1426.820858501416	10
1	3776	1426.901093867212	10
1	3777	1428.341554477895	9
1	3779	1429.490309888922	9
1	3781	1430.462934593517	10
1	3785	1431.410958164076	10
1	3786	1431.648760911423	9
1	3790	1432.556906892998	9
1	3792	1432.568247273906	10
1	3794	1432.610277412396	11
1	3800	1433.790372933307	12
1	3801	1434.213936352001	12
1	3808	1437.021570772104	11
1	3810	1437.395951226533	11
1	3812	1437.963022463407	12
1	3813	1438.881569460281	12
1	3814	1438.934351983066	11
1	3816	1439.593552750164	11
1	3820	1441.285932383551	11
1	3821	1441.351827148915	10
1	3823	1441.672197157455	10
1	3827	1442.04182145249	10
1	3829	1442.337982532709	10
1	3837	1443.645462555885	11
1	3838	1444.197854658419	11
1	3839	1444.981896066488	10
1	3843	1447.174384110176	9
1	3844	1448.083184835167	8
1	3845	1448.429329823486	7
1	3846	1449.183177819045	6
1	3847	1449.453723044468	5
1	3848	1450.22897751826	4
1	3850	1450.238439345726	4
1	3851	1450.518046771007	4
1	3853	1452.904792246657	4
1	3854	1453.165151512708	4
1	3855	1453.249586639874	3
1	3859	1455.411075348757	2
1	3863	1456.163936159792	1
1	3865	1456.409453068427	1
1	3866	1456.90407045023	1
1	3867	1457.279777461334	0
1	3871	1458.718315623144	0
1	3874	1459.192147860342	1
1	3875	1459.638154059566	1
1	3877	1460.825543925523	1
1	3879	1462.514348244291	2
1	3880	1463.204946409722	2
1	3887	1465.427067643151	1
1	3891	1466.542053393449	1
1	3897	1467.884019595379	2
1	3904	1469.829671580157	3
1	3907	1470.972298091282	4
1	3908	1473.2290559447	4
1	3916	1476.301750341802	4
1	3917	1476.592721845321	4
1	3918	1479.151420319589	3
1	3919	1479.586828799809	2
1	3920	1480.29860447245	1
1	3922	1481.075424878139	1
1	3933	1484.393834131098	2
1	3938	1485.303327469001	3
1	3942	1486.306237604598	3
1	3949	1487.677782915868	2
1	3950	1487.957015161044	1
1	3961	1493.187127469583	1
1	3963	1493.247787974333	2
1	3964	1493.755144526787	2
1	3966	1494.299599533941	2
1	3970	1496.072216956185	2
1	3975	1497.208587769903	2
1	3976	1497.341105973172	2
1	3984	1498.93544159466	2
1	3985	1499.854642717655	2
1	3986	1500.624566811046	1
1	3987	1501.434408574835	0
1	3989	1501.839140039932	0
1	3990	1502.257643773383	0
1	3992	1502.457429561513	0
1	3993	1503.067965199931	0
1	3995	1503.343222432503	0
1	3999	1503.712927321294	1
1	4001	1504.417606832905	1
1	4003	1505.849903720455	1
1	4004	1506.768898262743	1
1	4006	1506.95203755549	1
1	4007	1507.164676725391	1
1	4008	1507.19081889794	0
1	4012	1508.40995149209	0
1	4014	1511.914896645405	0
1	4016	1512.310075612652	0
1	4018	1513.505351801023	1
1	4025	1516.146384134857	1
1	4045	1522.83704119392	1
1	4046	1523.105007452995	1
1	4047	1524.392051403662	0
1	4052	1527.32536605921	0
1	4053	1527.453796932307	0
1	4058	1528.286715427163	0
1	4059	1528.72389560591	0
1	4061	1529.806055155213	0
1	4065	1530.726405553749	0
1	4067	1532.814183357122	0
1	4068	1534.097679017262	0
1	4070	1534.333517207439	0
1	4072	1534.994951367765	1
1	4073	1535.812864692667	1
1	4074	1537.607791181712	0
1	4082	1541.870679907731	0
1	4083	1542.474442794559	0
1	4085	1542.964392935059	0
1	4087	1543.015543030878	1
1	4088	1544.396403433433	1
1	4090	1544.997598484752	1
1	4091	1545.196970871372	1
1	4092	1545.237663817224	0
1	4094	1546.338786605848	0
1	4096	1546.474499168284	1
1	4106	1548.912029795198	2
1	4128	1557.150691817701	3
1	4134	1559.905798369233	3
1	4136	1561.352921509949	3
1	4138	1562.396575524026	4
1	4143	1562.890897860298	5
1	4144	1563.457378070272	5
1	4145	1563.623083624451	4
1	4147	1564.077464281257	4
1	4151	1564.658697538714	5
1	4153	1566.046693465894	5
1	4155	1568.166296282354	5
1	4157	1569.895578695348	6
1	4162	1571.300918624756	7
1	4163	1572.734691153498	7
1	4165	1572.783137787544	7
1	4167	1572.933946615211	8
1	4175	1575.09889549036	9
1	4177	1577.259681950347	10
1	4182	1579.110530307369	11
1	4183	1581.350722039979	11
1	4187	1583.008807502753	10
1	4189	1583.105050940503	10
1	4193	1584.75799522261	10
1	4194	1585.338966706619	9
1	4196	1585.622134615779	9
1	4197	1587.871874995664	9
1	4198	1588.09233899964	8
1	4199	1588.489999002483	7
1	4201	1588.70857217772	7
1	4202	1589.223725375357	7
1	4203	1589.862985746001	6
1	4205	1591.677439531983	6
1	4207	1592.008162475773	7
1	4212	1593.518092973194	8
1	4214	1593.877327373879	9
1	4216	1593.90538186401	10
1	4217	1595.227022986643	10
1	4219	1595.773600005798	10
1	4220	1595.999327795432	10
1	4222	1597.487203866074	10
1	4227	1599.064282853425	11
1	4228	1599.219901253559	11
1	4232	1600.111117826644	10
1	4234	1602.192809729832	10
1	4241	1603.271435869019	11
1	4246	1603.554424106629	12
1	4252	1606.303303824243	13
1	4253	1606.616794585235	13
1	4257	1607.819486201966	13
1	4259	1608.406983275399	13
1	4263	1609.028092666657	12
1	4265	1610.375521081921	12
1	4267	1610.379279264196	13
1	4274	1611.968672363314	14
1	4277	1612.866858928064	15
1	4279	1613.024543592248	16
1	4281	1615.165146165283	17
1	4282	1615.578652261234	17
1	4284	1615.834422292067	17
1	4285	1616.35200983999	17
1	4286	1617.299079852951	16
1	4293	1618.506943817227	16
1	4295	1618.608407903961	17
1	4301	1620.269483895851	18
1	4302	1620.576521896359	18
1	4306	1621.796245660763	18
1	4312	1623.927973072321	19
1	4314	1625.201352176151	20
1	4318	1625.549528544856	20
1	4320	1625.552630956074	20
1	4321	1626.430600964251	20
1	4323	1626.571579521483	20
1	4328	1628.991020544716	21
1	4330	1629.372395770072	22
1	4332	1629.744531875836	23
1	4341	1631.381609140479	24
1	4344	1632.171093101191	24
1	4345	1632.344523790292	23
1	4347	1633.697591325904	23
1	4348	1633.96323350616	23
1	4349	1634.431153900139	22
1	4351	1634.543560131669	22
1	4353	1635.227150920897	23
1	4354	1636.497350853101	23
1	4360	1636.809766131677	23
1	4362	1636.880020486735	24
1	4365	1637.416690940489	24
1	4366	1638.249363867124	23
1	4373	1640.061302968976	22
1	4375	1640.092913312917	22
1	4388	1643.339302698547	22
1	4390	1645.984471899861	22
1	4392	1646.976806616372	23
1	4393	1648.466099588059	23
1	4397	1649.001407702381	23
1	4400	1649.461440838124	24
1	4401	1649.848180284138	24
1	4403	1650.11006882036	24
1	4408	1651.949921299775	25
1	4409	1652.015121149273	25
1	4411	1652.116526167359	25
1	4413	1652.777409217866	26
1	4415	1654.303001986944	27
1	4419	1655.199569872927	28
1	4422	1656.377393048369	29
1	4423	1656.560279836358	29
1	4424	1657.290526712687	28
1	4425	1657.410934646292	27
1	4432	1658.527138496683	27
1	4434	1659.075605685627	28
1	4436	1659.29192177557	29
1	4439	1659.462937447629	30
1	4443	1661.275223490599	30
1	4444	1662.935076147039	29
1	4446	1663.63896409409	29
1	4450	1665.646816094399	29
1	4452	1665.854479659294	29
1	4456	1666.965176383378	30
1	4458	1668.587900733163	31
1	4460	1669.575101886721	31
1	4461	1670.184920545967	30
1	4462	1672.77847425099	29
1	4470	1674.641335135739	29
1	4471	1675.821716272724	29
1	4473	1676.264220793884	29
1	4483	1679.31479756065	29
1	4488	1680.058037588752	29
1	4489	1680.549914872334	29
1	4493	1682.71415321137	28
1	4494	1682.776821435935	27
1	4496	1685.769968885428	27
1	4497	1686.871175458656	27
1	4499	1686.915797745467	27
1	4500	1687.079562778824	27
1	4501	1688.271691177586	26
1	4503	1690.057208864283	26
1	4507	1692.801999100429	26
1	4508	1693.069639613267	25
1	4509	1693.670295791542	24
1	4514	1696.792573579176	24
1	4518	1697.435642756815	25
1	4520	1698.150353624383	26
1	4529	1699.896885959411	27
1	4536	1701.326738723608	27
1	4537	1701.489045135535	26
1	4538	1704.020079224465	25
1	4539	1704.198047292757	24
1	4541	1704.613929180468	24
1	4543	1706.455796294771	25
1	4545	1707.564463599506	26
1	4547	1707.917181403942	27
1	4548	1707.932176711041	27
1	4549	1708.450279210008	26
1	4551	1709.212159861641	26
1	4556	1710.68383113681	27
1	4557	1710.941463619433	27
1	4561	1713.246386211925	26
1	4562	1713.498281837516	25
1	4563	1714.531392563203	24
1	4564	1715.088434327589	23
1	4566	1715.765628065227	23
1	4567	1715.825078693364	23
1	4568	1716.263327876553	22
1	4575	1718.30095994776	21
1	4577	1720.383181916294	21
1	4581	1721.264495659487	22
1	4583	1722.479358040607	22
1	4585	1723.612488005583	22
1	4587	1723.651666660285	23
1	4589	1724.558182154005	24
1	4593	1727.728954243202	24
1	4594	1729.070065280928	23
1	4596	1730.486646239789	23
1	4597	1732.034781000894	23
1	4598	1733.000602452483	22
1	4599	1733.505063361643	21
1	4604	1735.953552949737	21
1	4606	1736.030109207232	22
1	4612	1736.89245288398	23
1	4616	1739.449776115398	24
1	4617	1740.365085037048	24
1	4618	1740.625128475864	23
1	4620	1741.282618982852	23
1	4624	1743.191426222011	24
1	4626	1743.566550830805	24
1	4628	1743.72566884486	24
1	4629	1744.301617801683	24
1	4630	1745.499625445059	23
1	4631	1745.845547306491	22
1	4632	1746.000391597897	21
1	4633	1746.970949714845	20
1	4634	1747.02601249971	19
1	4635	1747.636238914034	18
1	4637	1747.850848901139	18
1	4644	1750.90897343827	18
1	4645	1751.242304252028	17
1	4647	1751.535363078043	17
1	4648	1752.642757346087	17
1	4650	1753.089893358085	17
1	4654	1754.111106572333	18
1	4657	1754.949449752459	19
1	4659	1755.057535403579	20
1	4663	1759.293159695436	20
1	4664	1759.900581820664	19
1	4666	1759.946008697061	19
1	4668	1760.17605936228	20
1	4670	1760.218953255546	21
1	4671	1761.575671149337	21
1	4673	1761.662119081655	21
1	4674	1762.143938963563	21
1	4676	1764.992616130297	21
1	4677	1765.874269647288	21
1	4685	1767.200730234429	21
1	4686	1768.015728794522	21
1	4687	1768.662624041743	20
1	4691	1768.893786905998	20
1	4697	1769.582497531918	21
1	4702	1770.964282211517	22
1	4706	1771.760498871264	22
1	4714	1774.803503321918	22
1	4716	1775.90129581147	23
1	4718	1776.240854927759	24
1	4719	1777.481275645324	24
1	4720	1779.32598372752	23
1	4725	1779.942794023636	23
1	4732	1781.402699431514	24
1	4737	1782.907998095857	24
1	4738	1783.210609881524	23
1	4749	1786.815549390491	23
1	4750	1787.531665062196	23
1	4754	1788.525432078604	23
1	4756	1789.178851714464	23
1	4757	1789.489530626343	22
1	4761	1790.278437458446	21
1	4763	1791.186431221058	21
1	4767	1792.104394039013	21
1	4769	1793.917459190988	21
1	4777	1796.305518070457	22
1	4787	1800.23739223703	22
1	4791	1800.931944047196	21
1	4792	1802.573920993695	20
1	4793	1803.085779711099	19
1	4800	1806.971976324677	18
1	4802	1808.231615008668	18
1	4806	1808.373991457865	19
1	4814	1813.649102821779	19
1	4816	1813.832548464192	19
1	4817	1814.535025431199	19
1	4818	1814.563948351425	18
1	4820	1815.720827474194	18
1	4822	1816.409996924435	19
1	4823	1816.606465579794	19
1	4824	1817.583185521857	18
1	4825	1819.302545547142	17
1	4826	1820.124135084924	16
1	4837	1822.356656615541	16
1	4842	1824.237785878327	17
1	4843	1825.014924444365	17
1	4845	1825.06001626004	17
1	4847	1826.713314563653	18
1	4851	1828.601308627384	18
1	4853	1829.985888546832	18
1	4854	1830.377748777751	18
1	4856	1831.284304531573	18
1	4861	1833.718232731767	19
1	4862	1834.20864716138	19
1	4873	1841.657731764996	19
1	4874	1842.521303673519	19
1	4875	1842.720067984871	18
1	4879	1845.377377058469	17
1	4880	1846.737775719822	16
1	4882	1846.88612689236	16
1	4884	1850.941482421376	17
1	4886	1851.318434446723	18
1	4887	1852.33203782055	18
1	4888	1853.064729257113	17
1	4895	1854.736810385758	17
1	4897	1854.793781003369	18
1	4903	1856.498900326013	19
1	4910	1859.224790611927	19
1	4912	1859.959607099289	19
1	4914	1860.191314004302	20
1	4919	1861.777830417494	21
1	4936	1867.266464010077	22
1	4937	1867.407867490171	22
1	4939	1870.324671885804	22
1	4941	1871.20200833392	23
1	4942	1871.774889073797	23
1	4944	1872.041108736566	23
1	4945	1872.91966834214	23
1	4946	1873.112474428769	22
1	4947	1874.74285185633	21
1	4949	1875.049311504284	21
1	4954	1876.687877507598	22
1	4955	1878.381456371559	22
1	4956	1878.730066965991	21
1	4957	1878.786143168549	20
1	4961	1879.501067324006	20
1	4964	1880.727068234598	21
1	4965	1882.458727326152	21
1	4967	1882.80878716949	21
1	4968	1884.473200961334	21
1	4969	1885.79850276083	20
1	4985	1889.875262465685	20
1	4990	1890.596039331267	21
1	4992	1890.622521338509	22
1	4995	1892.722395632888	23
1	4996	1893.079546123822	23
1	5006	1895.297334289238	22
1	5007	1895.994618989299	21
1	5009	1896.366680764609	21
1	5011	1896.989487795789	22
1	5012	1897.086934574661	22
1	5014	1898.534533981978	22
1	5015	1899.387736735118	22
1	5023	1900.73670185202	22
1	5025	1900.914269777789	23
1	5027	1902.084145802096	24
1	5029	1902.682475716244	25
1	5030	1902.855723723395	25
1	5031	1903.29361146219	24
1	5032	1904.193851694102	23
1	5033	1904.428736251187	22
1	5034	1904.75741977468	21
1	5038	1905.787631707474	20
1	5045	1908.34454556633	19
1	5046	1908.652406523634	18
1	5048	1909.684571271706	18
1	5050	1910.918022055722	19
1	5051	1910.978183562049	19
1	5053	1911.527537161205	19
1	5055	1911.58486735407	20
1	5057	1912.68704073076	21
1	5058	1914.00723891804	21
1	5060	1914.346900802309	21
1	5061	1914.355521543528	21
1	5062	1914.898012476129	20
1	5064	1915.59800190453	20
1	5065	1916.079746584716	20
1	5066	1917.056738767394	19
1	5068	1917.957900560867	19
1	5069	1918.331691173371	19
1	5070	1918.978138282573	18
1	5075	1920.351508955369	18
1	5076	1920.529818266139	18
1	5080	1922.285361174844	17
1	5082	1922.31425034	17
1	5084	1923.220091062348	18
1	5085	1923.514159221243	18
1	5086	1923.98567281694	17
1	5088	1924.035342318409	17
1	5092	1924.540318587015	17
1	5094	1925.168862754971	17
1	5101	1926.924474151698	18
1	5103	1926.99140059583	19
1	5109	1929.135119193648	20
1	5111	1929.766452096921	21
1	5112	1930.006208493597	21
1	5113	1930.070712633099	20
1	5114	1932.881520396106	19
1	5116	1933.775935704937	19
1	5117	1934.241184711415	19
1	5124	1937.500916986114	18
1	5125	1937.717314299806	17
1	5127	1937.815608519062	17
1	5131	1938.936785665716	17
1	5139	1939.933412782431	17
1	5140	1940.797910913701	17
1	5144	1942.250764329918	16
1	5146	1942.383341318404	16
1	5148	1942.498322590694	17
1	5150	1943.375779639529	18
1	5152	1945.219125004688	19
1	5153	1945.452934829999	19
1	5155	1948.38144885523	19
1	5163	1952.763779473747	20
1	5170	1954.039641246819	20
1	5172	1955.288138888354	20
1	5174	1955.609618973642	21
1	5175	1955.940495313189	21
1	5179	1956.733969806849	21
1	5188	1960.567067202227	22
1	5195	1961.861487439701	23
1	5204	1963.016099566776	24
1	5205	1963.143040856211	24
1	5206	1964.688664623621	23
1	5208	1965.629533437244	23
1	5215	1967.264204243945	24
1	5220	1969.261864145168	25
1	5225	1970.342725587078	26
1	5234	1971.973618181555	27
1	5235	1972.191052277247	27
1	5236	1973.131257857975	26
1	5240	1974.373694373644	25
1	5241	1974.863236806884	24
1	5243	1975.203283627149	24
1	5244	1975.448509679734	24
1	5251	1976.073338418151	23
1	5253	1976.203610601814	23
1	5255	1976.512836352373	24
1	5260	1978.433789059904	25
1	5261	1978.585403550616	25
1	5263	1978.721651150237	25
1	5264	1979.227692289447	25
1	5266	1979.333531371459	25
1	5267	1979.797754760659	25
1	5277	1982.24846560994	25
1	5282	1985.614953520928	25
1	5289	1988.421765216347	25
1	5298	1991.608419022802	26
1	5303	1993.209757159693	27
1	5305	1994.989366738357	28
1	5306	1995.827123750361	28
1	5310	1997.113230192354	27
1	5315	1997.194805020815	27
[...]
10	2580	992.724383016183	12.509587263814
10	2587	994.547319721716	13.003793378009
10	2591	995.554904643668	13.22770916628
10	2595	999.91304913053	14.184062905432
10	2622	1006.832339687071	16.897819685218
10	2637	1012.096049768878	11.613772946631
10	2638	1012.213171553199	11.222853169607
10	2639	1012.653728341248	11.058341772427
10	2640	1013.71386273572	11.727021696136
10	2641	1014.301782187596	11.217969645681
10	2644	1015.025294325604	11.606277485102
10	2645	1015.054570495675	10.657723865329
10	2646	1015.256409358723	9.657970726827
10	2650	1018.447190902462	12.402878447528
10	2654	1019.101114339459	11.856593061302
10	2655	1019.102545082157	11.577111467733
10	2656	1020.583841771538	12.754687458405
10	2660	1022.230671778963	12.28250271993
10	2661	1022.995309161715	8.088323225993
10	2665	1023.627284741966	4.958882075235
10	2681	1029.449604009381	4.179436250234
10	2691	1031.274229359215	3.951202959817
10	2702	1035.333146345311	4.90118909432
10	2713	1037.407526721612	3.219934266271
10	2716	1038.429742792999	3.97276897313
10	2722	1040.463160358847	4.320496492255
10	2725	1043.176200475422	6.646916008993
10	2728	1044.998974428319	8.278797051091
10	2729	1045.001726158095	7.439492738156
10	2730	1046.11685116718	7.033101770419
10	2731	1048.123109127279	8.933494099881
10	2732	1050.745772654878	7.769269365295
10	2733	1051.336075682609	8.14780843727
10	2749	1056.768285101362	0.681928462434
10	2752	1057.098046916898	0.669077271992
10	2753	1057.823325272033	1.32112166597
10	2758	1058.123325032599	1.084352161626
10	2763	1058.770642380601	0.812986824364
10	2775	1062.122111667045	3.219535089569
10	2778	1064.065974434523	4.436334337304
10	2779	1064.525729404704	4.707138992551
10	2780	1064.875387204238	4.043058544548
10	2781	1064.931869770882	1.629695505556
10	2788	1066.433659215517	1.205706289178
10	2795	1069.768149738915	4.516570518728
10	2796	1070.488038155259	4.906494006233
10	2797	1071.13522517099	1.857574574317
10	2811	1075.82563521347	6.072298940236
10	2812	1076.329558357996	4.236006925542
10	2815	1077.38101131323	4.826279800602
10	2818	1079.439693907763	6.250578429354
10	2821	1080.226471934295	6.853029811192
10	2822	1080.335735836477	5.94727243125
10	2823	1080.671488130012	5.117156303148
10	2827	1081.488818033628	3.682527969141
10	2828	1081.780449853311	2.033941531417
10	2829	1082.38964849136	1.674763660079
10	2836	1085.470114456921	2.947160964648
10	2839	1087.21887051782	3.815213021408
10	2842	1088.147617298502	4.209432341566
10	2843	1088.232789065892	2.067310500563
10	2844	1089.366938745023	2.027186947219
10	2862	1094.016634007115	3.364120641431
10	2867	1096.647698448321	5.694445630068
10	2868	1097.315810635229	4.879335685671
10	2869	1098.621151051846	5.173976903245
10	2870	1098.708804000661	3.344357245316
10	2877	1102.997949103272	7.312307791764
10	2883	1103.946329684454	2.332317183673
10	2891	1105.633708358682	2.467214887377
10	2908	1110.107478114569	4.174612126031
10	2914	1111.966697760365	4.981574563782
10	2915	1112.083174940308	4.913058658755
10	2928	1115.0040975854	5.948626392226
10	2933	1116.633831202897	6.425090237853
10	2934	1118.003347916849	7.267523156078
10	2935	1118.071358539265	5.777451608342
10	2936	1118.342391112874	5.771589083688
10	2941	1120.252765794551	7.095100245234
10	2955	1122.833113907624	6.784911130725
10	2956	1122.915224967442	3.442064333485
10	2959	1124.114340380994	3.919340268689
10	2960	1124.642456056123	4.333627789427
10	2961	1125.344965983325	4.269056394174
10	2972	1130.043546347832	7.892809297738
10	2973	1131.124378574909	7.863565948627
10	2974	1132.087433697896	4.659611245807
10	2986	1134.69851066359	0.966652515074
10	2987	1134.970530438919	0.989223432368
10	2998	1138.785254370069	3.685529631032
10	3005	1139.992686394615	2.213833798209
10	3006	1141.839560502116	2.529363823714
10	3026	1150.362161552346	1.820890969491
10	3027	1152.585232936505	2.432511308017
10	3033	1154.284344107951	0.257676765959
10	3042	1159.655146687043	0.09415949154
10	3045	1160.323338307631	0.375448867675
10	3058	1166.311322158408	3.06099452088
10	3062	1168.079267151882	1.788613019385
10	3063	1168.528958216635	1.717052745971
10	3069	1170.014115795446	0.184418562791
10	3091	1179.689157547107	4.152592884384
10	3094	1181.39707895799	5.320142990396
10	3101	1183.867029273668	4.414302150252
10	3102	1184.117010890655	4.461222175143
10	3103	1184.138987965287	4.018917379345
10	3111	1188.741837139416	6.081918104026
10	3112	1190.519529179142	3.303768119387
10	3113	1190.570581128989	3.235269916395
10	3121	1193.005618825602	2.380125473486
10	3122	1193.492217661804	2.095680624489
10	3123	1194.822662535746	3.220029189205
10	3128	1196.310591601169	1.049828349195
10	3129	1196.977536882612	0.718323511916
10	3144	1201.622633399055	2.941865405204
10	3149	1206.498266922261	6.207803674195
10	3150	1206.665262069067	6.130945258756
10	3151	1206.726007211815	5.700626058531
10	3152	1206.756900242077	3.396452575512
10	3153	1207.764386737194	2.557423404498
10	3165	1212.323151998789	0.899773167968
10	3168	1213.89858006736	0.330389389817
10	3184	1219.915075982062	2.098824239066
10	3185	1219.997654213699	1.505005629454
10	3194	1222.632018014716	1.832594706218
10	3195	1222.649051682617	1.46190488167
10	3201	1225.559113618599	1.221575580162
10	3213	1230.546149933326	2.507762211376
10	3214	1230.689259509676	2.362342521347
10	3215	1230.799710943457	0.836074360079
10	3216	1231.522407465355	1.077570226461
10	3230	1235.369348135354	1.668034272161
10	3233	1238.10559046438	3.003608071834
10	3237	1240.49616034352	2.142884552114
10	3249	1243.008261249366	0.560586865618
10	3263	1247.514735794839	3.01337636142
10	3269	1248.727392839389	3.679310133745
10	3273	1251.603615378609	4.555994243119
10	3274	1251.937919291236	4.123905537324
10	3275	1253.935055987836	5.996088599044
10	3281	1255.026230837843	1.040489879301
10	3285	1257.411121148588	1.862156024783
10	3291	1259.358088867588	0.441239449607
10	3301	1267.600284344935	0.905055969294
10	3308	1270.045084943437	1.630137072188
10	3319	1273.865477960809	3.164034989089
10	3323	1276.720531902878	4.901635152229
10	3327	1277.031700652909	0.281429477139
10	3330	1278.319413915431	0.689843165951
10	3333	1279.419001009144	0.194923639765
10	3353	1286.226825080178	3.044042773717
10	3364	1289.623324540244	4.774270204293
10	3365	1290.206296411054	4.871868293059
10	3381	1295.147374295623	7.008991546881
10	3382	1295.886229072233	7.35391327879
10	3386	1296.87059648098	5.15289446098
10	3387	1296.889358884337	4.775748929166
10	3398	1300.970367054786	4.763481341265
10	3399	1301.291211346318	4.332024612462
10	3403	1301.685076038276	3.370572535516
10	3404	1301.923123921604	1.797173151613
10	3422	1305.328306450032	2.824050387835
10	3423	1306.098389738576	2.448417329887
10	3431	1307.902174122333	3.134112303122
10	3447	1311.704247441777	5.183609705585
10	3448	1313.497001080192	6.838602672564
10	3455	1315.31873984654	6.388064754582
10	3462	1316.68894301198	7.700860286507
10	3463	1316.938129550344	7.749960431864
10	3464	1318.916451629343	8.756587630169
10	3484	1322.797699990156	11.142829155178
10	3487	1323.295866839224	9.363503673466
10	3500	1326.42821522382	10.59329203446
10	3501	1328.624404050595	12.579363860539
10	3502	1330.176704738787	11.014002256235
10	3503	1330.524482568685	11.126627520557
10	3506	1333.322568821433	12.811908533994
10	3507	1333.64066830575	12.431803075021
10	3513	1334.691383566494	12.627586260936
10	3525	1337.123728362945	11.88502674349
10	3526	1337.679794916349	12.000280938813
10	3530	1338.781930805993	6.279796228673
10	3533	1339.577689898576	5.761975753056
10	3534	1341.178895941305	6.48822719508
10	3535	1341.73004360772	6.766779366286
10	3536	1342.208327944318	6.382769112183
10	3553	1346.851593022453	8.184410559317
10	3554	1348.475976341238	8.942369160912
10	3555	1349.394158457923	5.497333458125
10	3561	1352.260244402501	7.642706823636
10	3562	1354.458024313898	9.182149459517
10	3565	1354.987529142898	9.459953288254
10	3581	1363.448379516146	13.552335576036
10	3584	1364.570020641822	9.861923997519
10	3585	1364.879391743797	9.005303185804
10	3586	1366.674988930185	9.658746251995
10	3589	1368.444137815294	9.440542745606
10	3590	1368.578773862643	9.575067094866
10	3591	1368.889185655356	7.704937269612
10	3594	1370.623087242118	8.11926397362
10	3604	1372.799305410171	4.639726394335
10	3605	1372.939520036892	3.343880052487
10	3611	1374.575470779733	3.852885987246
10	3640	1383.392029531782	7.813612612023
10	3644	1384.025739747214	6.751361585846
10	3649	1384.680956381898	6.751806549574
10	3652	1386.814307520985	8.846593540646
10	3655	1387.693493496341	7.840259503548
10	3675	1392.761787348505	8.922757981227
10	3676	1393.590380005521	9.400343517396
10	3681	1395.77839478595	11.536298602762
10	3688	1400.252489608358	12.496564710002
10	3692	1401.816559218614	12.468789676918
10	3705	1405.45146393066	11.579509024765
10	3742	1415.66353125701	12.954068291117
10	3743	1415.825900594474	12.954979375537
10	3744	1417.039997442169	13.893501677011
10	3766	1423.278938810778	16.018911650318
10	3767	1423.777280601792	16.402887983276
10	3768	1424.386870635777	16.659169501015
10	3769	1424.702179635966	16.715190702674
10	3770	1426.132249234979	16.69331987087
10	3771	1426.272168553132	16.477882051372
10	3776	1426.901093867212	16.26992133371
10	3777	1428.341554477895	14.673054750257
10	3785	1431.410958164076	13.363534667693
10	3786	1431.648760911423	12.899471850295
10	3801	1434.213936352001	14.620765087626
10	3808	1437.021570772104	10.720630256577
10	3813	1438.881569460281	12.060710958865
10	3814	1438.934351983066	9.444042094144
10	3820	1441.285932383551	10.776273019141
10	3821	1441.351827148915	9.300609105713
10	3827	1442.04182145249	9.473574178584
10	3838	1444.197854658419	9.011880739442
10	3839	1444.981896066488	8.398056922298
10	3843	1447.174384110176	9.211361646769
10	3844	1448.083184835167	8.489632085003
10	3845	1448.429329823486	8.46467401531
10	3846	1449.183177819045	7.51098066159
10	3847	1449.453723044468	7.760908105748
10	3848	1450.22897751826	7.890994985551
10	3851	1450.518046771007	7.28610682482
10	3854	1453.165151512708	9.599106122225
10	3855	1453.249586639874	9.604124083989
10	3859	1455.411075348757	5.172636003031
10	3863	1456.163936159792	1.270999472349
10	3866	1456.90407045023	1.072205606811
10	3867	1457.279777461334	0.870324392907
10	3875	1459.638154059566	0.919838436422
10	3880	1463.204946409722	4.01279854938
10	3887	1465.427067643151	1.973307382971
10	3908	1473.2290559447	5.345036349321
10	3917	1476.592721845321	6.763050265164
10	3918	1479.151420319589	8.179122228307
10	3919	1479.586828799809	6.182842332855
10	3920	1480.29860447245	5.665222315901
10	3942	1486.306237604598	1.9124034735
10	3949	1487.677782915868	2.374455446867
10	3950	1487.957015161044	2.277575574319
10	3964	1493.755144526787	2.537746296616
10	3970	1496.072216956185	2.824428981852
10	3976	1497.341105973172	2.147303029592
10	3985	1499.854642717655	1.976940243281
10	3986	1500.624566811046	2.172849036723
10	3987	1501.434408574835	2.498966980175
10	3990	1502.257643773383	0.418503733451
10	3993	1503.067965199931	0.610535638418
10	4001	1504.417606832905	0.831298852574
10	4004	1506.768898262743	3.055970941449
10	4007	1507.164676725391	1.314773004936
10	4008	1507.19081889794	0.23878134245
10	4014	1511.914896645405	3.504945153315
10	4025	1516.146384134857	2.187148969423
10	4046	1523.105007452995	1.956219353044
10	4047	1524.392051403662	1.555010209742
10	4053	1527.453796932307	0.128430873097
10	4059	1528.72389560591	0.437180178747
10	4065	1530.726405553749	0.889358173399
10	4068	1534.097679017262	1.28349566014
10	4073	1535.812864692667	1.479347485228
10	4074	1537.607791181712	2.612839813947
10	4083	1542.474442794559	0.603762886828
10	4088	1544.396403433433	1.432010498374
10	4091	1545.196970871372	2.181427840494
10	4092	1545.237663817224	0.240065332472
10	4134	1559.905798369233	6.933257783822
10	4144	1563.457378070272	7.624016434298
10	4145	1563.623083624451	6.47239180675
10	4153	1566.046693465894	3.650117941868
10	4163	1572.734691153498	9.8437932932
10	4183	1581.350722039979	13.184425757625
10	4187	1583.008807502753	12.940383467322
10	4193	1584.75799522261	11.974857435066
10	4194	1585.338966706619	12.405020091408
10	4197	1587.871874995664	13.88603831873
10	4198	1588.09233899964	13.66838849807
10	4199	1588.489999002483	13.391103512123
10	4202	1589.223725375357	11.96404342501
10	4203	1589.862985746001	12.491754972372
10	4217	1595.227022986643	13.734815927733
10	4220	1595.999327795432	12.894276854929
10	4228	1599.219901253559	13.59776663778
10	4232	1600.111117826644	8.433678294661
10	4253	1606.616794585235	13.098701612041
10	4259	1608.406983275399	14.501601411389
10	4263	1609.028092666657	11.540888800583
10	4282	1615.578652261234	16.514369407809
10	4285	1616.35200983999	16.615270042834
10	4286	1617.299079852951	15.106270123119
10	4302	1620.576521896359	17.30508602734
10	4318	1625.549528544856	17.73004234289
10	4321	1626.430600964251	17.618394352093
10	4344	1632.171093101191	21.59214972002
10	4345	1632.344523790292	20.375851426978
10	4348	1633.96323350616	21.096374578096
10	4349	1634.431153900139	21.406610307891
10	4354	1636.497350853101	21.332204687818
10	4365	1637.416690940489	19.97224803845
10	4366	1638.249363867124	19.742420049897
10	4373	1640.061302968976	19.791819073125
10	4388	1643.339302698547	19.534318821088
10	4393	1648.466099588059	24.538126515738
10	4401	1649.848180284138	24.622975740982
10	4409	1652.015121149273	25.44354162779
10	4423	1656.560279836358	27.569259291642
10	4424	1657.290526712687	27.918130942615
10	4425	1657.410934646292	27.666402770456
10	4443	1661.275223490599	27.577632164695
10	4444	1662.935076147039	28.39151601537
10	4450	1665.646816094399	28.979267223192
10	4460	1669.575101886721	32.695081399986
10	4461	1670.184920545967	31.923284777218
10	4462	1672.77847425099	33.307675811404
10	4471	1675.821716272724	35.683659850219
10	4483	1679.31479756065	32.337990944278
10	4489	1680.549914872334	31.548507169953
10	4493	1682.71415321137	32.60408439101
10	4494	1682.776821435935	32.598468094524
10	4497	1686.871175458656	34.921254158881
10	4500	1687.079562778824	34.963036611465
10	4501	1688.271691177586	35.49428195972
10	4507	1692.801999100429	37.695783622957
10	4508	1693.069639613267	37.87006974034
10	4509	1693.670295791542	37.292902743173
10	4536	1701.326738723608	41.496220619799
10	4537	1701.489045135535	37.850081041445
10	4538	1704.020079224465	38.679884647752
10	4539	1704.198047292757	38.343567633463
10	4548	1707.932176711041	41.454078943916
10	4549	1708.450279210008	41.48510282663
10	4557	1710.941463619433	37.482543201742
10	4561	1713.246386211925	36.982165418041
10	4562	1713.498281837516	35.917236356336
10	4563	1714.531392563203	36.195592729861
10	4564	1715.088434327589	35.724060901675
10	4567	1715.825078693364	35.767041104612
10	4568	1716.263327876553	35.709060116135
10	4575	1718.30095994776	31.385162202293
10	4583	1722.479358040607	30.211574912051
10	4593	1727.728954243202	30.936380664026
10	4594	1729.070065280928	32.164264242829
10	4597	1732.034781000894	34.599138244079
10	4598	1733.000602452483	34.8502488281
10	4599	1733.505063361643	34.465373478073
10	4617	1740.365085037048	39.274670847836
10	4618	1740.625128475864	36.011199295396
10	4626	1743.566550830805	36.002087231299
10	4629	1744.301617801683	36.384436397741
10	4630	1745.499625445059	36.287465583418
10	4631	1745.845547306491	36.208596400133
10	4632	1746.000391597897	35.316560461087
10	4633	1746.970949714845	34.750077228337
10	4634	1747.02601249971	31.260384434483
10	4635	1747.636238914034	30.947750532196
10	4644	1750.90897343827	29.920735447968
10	4645	1751.242304252028	29.977808592541
10	4648	1752.642757346087	29.030269340504
10	4663	1759.293159695436	33.438509195633
10	4664	1759.900581820664	29.413935580875
10	4671	1761.575671149337	27.319877287905
10	4674	1762.143938963563	26.190386013826
10	4677	1765.874269647288	29.844160440056
10	4686	1768.015728794522	28.565952679124
10	4687	1768.662624041743	27.380005058891
10	4706	1771.760498871264	28.034830026404
10	4719	1777.481275645324	29.382100804497
10	4720	1779.32598372752	27.790620649477
10	4737	1782.907998095857	27.958548343398
10	4738	1783.210609881524	28.153074477945
10	4750	1787.531665062196	27.31271180665
10	4756	1789.178851714464	24.186235584167
10	4757	1789.489530626343	23.181442800738
10	4761	1790.278437458446	23.077707224017
10	4767	1792.104394039013	23.210607133015
10	4787	1800.23739223703	25.433888915112
10	4791	1800.931944047196	24.691089119437
10	4792	1802.573920993695	22.792671714436
10	4793	1803.085779711099	23.142985687463
10	4800	1806.971976324677	25.569276893163
10	4814	1813.649102821779	27.416012821979
10	4817	1814.535025431199	27.719476040708
10	4818	1814.563948351425	26.186926130618
10	4823	1816.606465579794	28.08103350119
10	4824	1817.583185521857	27.738777553092
10	4825	1819.302545547142	28.116114326084
10	4826	1820.124135084924	28.872414314033
10	4843	1825.014924444365	28.575962222314
10	4851	1828.601308627384	28.232731712551
10	4854	1830.377748777751	27.169736450279
10	4862	1834.20864716138	25.977032152712
10	4874	1842.521303673519	33.538311388386
10	4875	1842.720067984871	28.887519520679
10	4879	1845.377377058469	28.967380134034
10	4880	1846.737775719822	26.426867046933
10	4887	1852.33203782055	31.699971412186
10	4888	1853.064729257113	31.091117243692
10	4910	1859.224790611927	32.511476048274
10	4937	1867.407867490171	34.456779624479
10	4942	1871.774889073797	38.05665634203
10	4945	1872.91966834214	36.193066056792
10	4946	1873.112474428769	33.925118476718
10	4947	1874.74285185633	33.085120091334
10	4955	1878.381456371559	31.495329479199
10	4956	1878.730066965991	27.788584544615
10	4957	1878.786143168549	27.467708721826
10	4965	1882.458727326152	28.029383621969
10	4968	1884.473200961334	29.736390575576
10	4969	1885.79850276083	31.004721757461
10	4996	1893.079546123822	32.719449446386
10	5006	1895.297334289238	28.030870279161
10	5007	1895.994618989299	25.669947103495
10	5012	1897.086934574661	25.884926240741
10	5015	1899.387736735118	27.346627998552
10	5030	1902.855723723395	26.167846215797
10	5031	1903.29361146219	24.319741542791
10	5032	1904.193851694102	24.692784370096
10	5033	1904.428736251187	23.701668016589
10	5034	1904.75741977468	21.94863260519
10	5038	1905.787631707474	18.817635208829
10	5045	1908.34454556633	18.754807207672
10	5046	1908.652406523634	18.777144057949
10	5051	1910.978183562049	20.854940438178
10	5058	1914.00723891804	23.411199586773
10	5061	1914.355521543528	23.733000205019
10	5062	1914.898012476129	22.175616843241
10	5065	1916.079746584716	22.530557654503
10	5066	1917.056738767394	22.951264594546
10	5069	1918.331691173371	23.330092060978
10	5070	1918.978138282573	22.611457517964
10	5076	1920.529818266139	21.995284284161
10	5080	1922.285361174844	22.114850990578
10	5085	1923.514159221243	22.777457369223
10	5086	1923.98567281694	23.071403039151
10	5092	1924.540318587015	21.857842870771
10	5112	1930.006208493597	19.088186437875
10	5113	1930.070712633099	18.543175471894
10	5114	1932.881520396106	21.296653042036
10	5117	1934.241184711415	21.554143980655
10	5124	1937.500916986114	21.902915081584
10	5125	1937.717314299806	19.759413738939
10	5131	1938.936785665716	18.585276710347
10	5140	1940.797910913701	17.577819851353
10	5144	1942.250764329918	17.870676524966
10	5153	1945.452934829999	20.284072075028
10	5170	1954.039641246819	27.048240650989
10	5175	1955.940495313189	28.294635165381
10	5205	1963.143040856211	25.327432337149
10	5206	1964.688664623621	26.140977562856
10	5235	1972.191052277247	29.692729686553
10	5236	1973.131257857975	29.755478218446
10	5240	1974.373694373644	25.992245518414
10	5241	1974.863236806884	25.517201073139
10	5244	1975.448509679734	23.254719200309
10	5251	1976.073338418151	20.785199529797
10	5261	1978.585403550616	22.247322900195
10	5264	1979.227692289447	22.493722482598
10	5267	1979.797754760659	21.208454349779
10	5282	1985.614953520928	23.753466081227
10	5306	1995.827123750361	29.98332196553
10	5310	1997.113230192354	29.849025948409
10	5316	1997.674862374129	28.412998228961
10	5319	1998.840240414264	28.497514827186
11	5325	2000	0.4775
12	5325	2000	0.4005

