version 2
run theoretical_model_minions-9-20230315-10:26:17-7520
attr configname theoretical_model_minions
attr datetime 20230315-10:26:17
attr experiment theoretical_model_minions
attr inifile omnetpp.ini
attr iterationvars ""
attr iterationvarsf ""
attr measurement ""
attr network Network
attr processid 7520
attr repetition 9
attr replication #9
attr resultdir results
attr runnumber 9
attr seedset 9
param *.minion.arrival_distribution 0
param *.minion.service_distribution 0
param *.minion.arrival_mean 1
param *.minion.service_mean 0.8
param *.boss.arrival_distribution 1
param *.boss.service_distribution 1
param *.boss.arrival_mean 0
param *.boss.service_mean 0

vector 0 Network.player minion_recovered_stat:vector ETV
attr source signal_minion_recovered
vector 1 Network.player minion_defeated_stat:vector ETV
attr source signal_minion_defeated
vector 2 Network.player boss_defeated_stat:vector ETV
attr source signal_boss_defeated
vector 3 Network.player minion_waiting_time_stat:vector ETV
attr source signal_minion_waiting_time
vector 4 Network.player minion_response_time_stat:vector ETV
attr source signal_minion_response_time
vector 5 Network.player minion_throughput:vector ETV
attr source signal_minion_throughput
vector 6 Network.player boss_throughput:vector ETV
attr source signal_boss_throughput
0	0	0	0
1	0	0	0
1	9	3.616868505871	1
1	10	3.736807182632	2
1	11	4.235850617536	3
1	12	4.829864402433	4
1	15	6.789282379994	5
1	20	9.48906474481	6
1	21	10.186682660083	7
1	24	10.79861510078	8
1	31	12.923316168829	9
1	32	14.485866256579	10
1	35	15.408044047468	11
1	38	15.463472281042	12
1	39	15.550822150669	13
1	44	16.901194309626	14
1	49	17.995881691557	15
1	50	18.79075539539	16
1	51	19.055760650397	17
1	56	19.68770765264	18
1	57	20.807777569516	19
1	60	22.316421712305	20
1	63	26.225119141274	21
1	66	27.037111074586	22
1	71	29.491379295566	23
1	74	30.182453531723	24
1	77	30.651307985431	25
1	78	30.65554638061	26
1	89	33.312044610079	27
1	90	34.058894589473	28
1	95	35.87783271385	29
1	100	36.854533244012	30
1	101	37.029858740443	31
1	104	37.4473100275	32
1	107	38.172285596015	33
1	108	38.252551860686	34
1	113	38.934035397883	35
1	116	40.860760632037	36
1	123	41.837247225007	37
1	126	42.731190676117	38
1	133	44.85020878283	39
1	138	46.251254486207	40
1	139	46.293325436916	41
1	140	46.511954489145	42
1	141	46.627801237321	43
1	148	48.196327602653	44
1	149	48.295897497553	45
1	154	48.47659991406	46
1	157	48.839557450323	47
1	166	49.87694572956	48
1	171	51.178257099505	49
1	172	51.54066640033	50
1	179	54.352411617338	51
1	184	55.090287394431	52
1	187	55.414234701814	53
1	188	56.156612620254	54
1	189	56.677326518345	55
1	196	57.298320745033	56
1	199	57.456045526389	57
1	200	58.31838798532	58
1	203	60.180993337544	59
1	204	60.685762184491	60
1	205	61.839463898355	61
1	206	62.584430908745	62
1	207	62.761807093122	63
1	208	63.458678272602	64
1	209	63.822847427646	65
1	210	64.581874999494	66
1	213	65.306120567042	67
1	214	65.668717354562	68
1	215	65.701453511514	69
1	216	66.258192121405	70
1	225	67.650868741188	71
1	226	67.990183247648	72
1	231	68.808107553397	73
1	232	69.087847620798	74
1	233	69.103305616143	75
1	234	69.192318618637	76
1	235	70.504394560414	77
1	240	72.624775711842	78
1	241	73.039986482424	79
1	242	74.473419764585	80
1	243	74.476308083994	81
1	246	74.919044788594	82
1	251	75.705292507795	83
1	252	75.739417843395	84
1	255	76.9132613365	85
1	260	82.129155573993	86
1	267	82.742417332501	87
1	270	83.901825874416	88
1	271	86.110880269307	89
1	274	87.654144700976	90
1	279	89.327710093439	91
1	280	90.02742391344	92
1	289	91.143125043354	93
1	294	93.244636138753	94
1	297	93.745021243636	95
1	298	94.393753182803	96
1	299	95.367401384521	97
1	306	96.290183799119	98
1	307	96.32177656265	99
1	308	96.488612718402	100
1	311	97.399413695253	101
1	314	97.47122978112	102
1	315	97.905605338447	103
1	316	98.546229871727	104
1	333	100.411498817735	105
1	334	100.679684295869	106
1	339	103.002376351813	107
1	342	104.730772630907	108
1	351	107.750365687307	109
1	352	108.610228695873	110
1	357	109.305514643459	111
1	358	109.544441137056	112
1	371	112.507011795241	113
1	372	112.794730816622	114
1	375	113.502728998646	115
1	376	114.077479156827	116
1	377	114.399476370935	117
1	378	114.72740351299	118
1	379	115.243288146144	119
1	382	116.395321411128	120
1	383	116.863720926827	121
1	384	117.62743094592	122
1	389	118.675037478034	123
1	392	119.119833877522	124
1	393	119.914441104182	125
1	394	120.085130178102	126
1	399	121.675707989457	127
1	400	121.693022643171	128
1	401	122.020638637187	129
1	408	123.792333894973	130
1	411	124.731223745153	131
1	412	125.553457682127	132
1	415	125.987318695295	133
1	416	126.565901502379	134
1	417	126.749092534273	135
1	418	126.961268330727	136
1	419	126.993621294247	137
1	426	127.555662471998	138
1	427	128.283751734222	139
1	432	129.124504923896	140
1	437	131.374976148336	141
1	440	131.800616339009	142
1	445	134.494072662123	143
1	446	134.645377209496	144
1	449	136.112885448167	145
1	452	136.537900310113	146
1	455	138.615935266543	147
1	458	139.05952573914	148
1	459	139.761475432143	149
1	460	140.00168226501	150
1	461	140.421411678723	151
1	462	140.912395027377	152
1	467	143.714957743209	153
1	468	143.870040931194	154
1	469	143.929277044552	155
1	472	144.550920180994	156
1	475	145.481028787923	157
1	476	145.818835608683	158
1	477	146.328252835478	159
1	480	147.361219310652	160
1	487	151.342772851427	161
1	488	151.490658552961	162
1	489	152.02195633721	163
1	492	152.269528539829	164
1	495	152.650924641901	165
1	498	153.362364344743	166
1	501	154.011618282587	167
1	504	156.949824506279	168
1	507	161.02646079921	169
1	510	162.306021641045	170
1	521	166.998348059028	171
1	522	167.458146833949	172
1	523	168.71682390396	173
1	524	168.774428359846	174
1	525	169.090623086614	175
1	528	172.832844742737	176
1	531	173.346918059254	177
1	534	174.104473656056	178
1	537	174.407658323804	179
1	542	176.006358328872	180
1	543	176.880495681339	181
1	546	177.43805386479	182
1	549	178.960266181982	183
1	552	182.076148130449	184
1	555	185.099124214809	185
1	562	187.48720980687	186
1	563	188.121723387859	187
1	564	188.657682501553	188
1	567	189.817450174467	189
1	570	190.176171615503	190
1	573	191.683247316116	191
1	576	191.812437918848	192
1	579	194.261733211174	193
1	586	196.525171023107	194
1	587	197.165551357564	195
1	592	199.656200913555	196
1	595	200.074307411738	197
1	598	201.061815472893	198
1	601	201.415667350653	199
1	612	203.01394092227	200
1	613	203.501318127978	201
1	614	203.960609599706	202
1	619	204.715194696657	203
1	628	205.237425221014	204
1	629	205.462248617137	205
1	630	205.510264575429	206
1	633	206.490088318628	207
1	634	206.852535812003	208
1	635	208.017106402804	209
1	638	208.340485965007	210
1	641	208.582261550235	211
1	642	209.263248542952	212
1	643	210.603044117788	213
1	648	211.398692073304	214
1	649	212.335488206279	215
1	650	212.640038629399	216
1	651	214.096109973623	217
1	654	215.267666020788	218
1	661	217.190502547528	219
1	664	218.191375468509	220
1	665	218.343270996365	221
1	670	219.346703916731	222
1	671	219.858689916857	223
1	672	219.93240085205	224
1	677	220.625493915272	225
1	678	220.763015538895	226
1	683	221.998983966789	227
1	686	222.890300364736	228
1	687	222.966690392304	229
1	692	225.31910461453	230
1	693	225.322399777925	231
1	704	229.813196245696	232
1	705	230.395686749318	233
1	706	230.793500217755	234
1	707	230.858858212569	235
1	712	232.157546103076	236
1	713	232.659422238299	237
1	714	232.955617127132	238
1	717	234.460865456657	239
1	720	235.640282087275	240
1	729	237.341934908631	241
1	730	237.624668891375	242
1	731	237.766843928152	243
1	734	240.415973988947	244
1	737	243.386469599578	245
1	738	244.094854210926	246
1	741	246.344316975784	247
1	744	248.457491086306	248
1	747	250.188071444934	249
1	754	251.692191344935	250
1	755	252.380043713739	251
1	760	253.374925934379	252
1	761	254.463967048888	253
1	762	254.859590968741	254
1	769	256.906622377421	255
1	770	257.522597358735	256
1	779	258.346633661173	257
1	782	258.808828758514	258
1	785	259.333961739649	259
1	786	259.349201585673	260
1	787	260.712599578138	261
1	788	260.769199577094	262
1	789	260.860852199347	263
1	792	261.533553521515	264
1	795	263.202291276664	265
1	800	266.294502546887	266
1	801	266.509695284567	267
1	804	267.355095270445	268
1	807	268.490267412341	269
1	816	270.852502265977	270
1	817	270.888601511543	271
1	818	271.206582734649	272
1	819	271.355334860603	273
1	830	274.591945858607	274
1	831	274.808826135494	275
1	832	274.873323579345	276
1	839	277.122835110082	277
1	842	278.048811340053	278
1	843	278.844969448241	279
1	844	279.170353991724	280
1	849	279.776351461232	281
1	852	281.22458790832	282
1	853	282.319083820008	283
1	854	282.443127290496	284
1	857	284.969754221174	285
1	858	285.211979933525	286
1	861	286.794523110635	287
1	866	288.686223966865	288
1	867	289.231579610904	289
1	872	290.498189571046	290
1	879	291.877682416069	291
1	882	293.43759410465	292
1	883	293.598704731316	293
1	886	294.713995724965	294
1	887	295.249968900307	295
1	888	295.611079016918	296
1	895	298.43575204902	297
1	896	298.478016011326	298
1	897	298.5684405654	299
1	900	300.645356310246	300
1	903	301.828615661654	301
1	906	302.790526455362	302
1	911	303.8185588082	303
1	912	304.478110477523	304
1	927	308.058031582613	305
1	930	308.968082519797	306
1	931	309.105128509194	307
1	934	309.802931936608	308
1	935	310.121680215231	309
1	938	310.920637154278	310
1	941	311.946070673769	311
1	946	313.256066623402	312
1	951	314.030257633366	313
1	952	314.037836777625	314
1	953	315.218818624896	315
1	958	315.937770424751	316
1	963	316.970193114086	317
1	966	317.016473392076	318
1	967	317.551593673718	319
1	968	317.753186728292	320
1	969	318.065873170831	321
1	970	318.133918086584	322
1	971	318.362231487344	323
1	972	318.653271805289	324
1	975	320.215618572578	325
1	978	320.266438327273	326
1	985	323.226284777856	327
1	990	325.740253441883	328
1	999	328.947786345337	329
1	1002	330.260252737514	330
1	1007	330.846814005604	331
1	1008	331.018235974152	332
1	1009	332.043709409969	333
1	1010	332.47146215228	334
1	1013	333.560559706874	335
1	1016	334.334817147388	336
1	1017	334.373445156398	337
1	1020	335.317102551512	338
1	1023	336.15934936401	339
1	1026	337.151621650086	340
1	1029	337.896469122794	341
1	1032	338.434229120915	342
1	1033	338.855265856955	343
1	1034	338.881810636585	344
1	1035	339.202281987086	345
1	1040	340.317739972068	346
1	1041	341.127540577487	347
1	1044	343.175569156841	348
1	1047	345.776043173834	349
1	1052	346.864862122928	350
1	1053	347.247425823922	351
1	1058	351.516974239184	352
1	1059	351.958651926635	353
1	1062	353.206822865055	354
1	1065	353.967875702174	355
1	1068	359.42780938087	356
1	1071	360.700494582722	357
1	1074	361.706819055192	358
1	1077	364.677301508653	359
1	1086	367.210262658419	360
1	1087	367.435455788087	361
1	1092	368.377450048694	362
1	1095	369.046467196426	363
1	1096	369.956954685085	364
1	1097	370.362325933549	365
1	1098	370.579351364786	366
1	1101	372.461067029679	367
1	1104	373.190127905687	368
1	1109	378.309550953238	369
1	1110	378.933582919864	370
1	1113	379.804142731259	371
1	1116	381.763460475318	372
1	1119	382.609587426942	373
1	1122	384.206923299782	374
1	1127	385.523631707934	375
1	1136	388.158802140569	376
1	1137	388.163255095203	377
1	1140	388.905843632111	378
1	1141	389.286448393035	379
1	1142	389.744111479541	380
1	1143	392.593040373932	381
1	1146	394.972162578637	382
1	1149	396.636010786737	383
1	1152	397.889171238405	384
1	1155	398.282956857779	385
1	1176	403.383164650504	386
1	1179	405.77431335885	387
1	1184	406.258129282173	388
1	1187	407.628471163059	389
1	1188	408.087697207161	390
1	1189	408.203069457729	391
1	1192	409.15907748395	392
1	1193	409.233887193016	393
1	1198	410.70156690705	394
1	1201	411.172708728081	395
1	1212	412.993561659858	396
1	1215	413.876148299244	397
1	1218	413.966572656025	398
1	1219	413.985886989308	399
1	1220	413.995846766271	400
1	1229	416.126832505339	401
1	1234	417.302059417199	402
1	1237	417.391532624089	403
1	1238	417.477874598707	404
1	1239	417.748920618209	405
1	1240	418.877317600096	406
1	1243	418.907481184931	407
1	1244	419.945424332791	408
1	1245	420.337346857883	409
1	1248	421.224680919708	410
1	1249	421.519176808621	411
1	1254	421.890810742277	412
1	1261	422.878885199675	413
1	1262	423.92445785627	414
1	1263	424.419643387112	415
1	1266	425.172343981188	416
1	1269	426.44270584181	417
1	1270	427.138246219716	418
1	1275	427.992404436182	419
1	1278	428.333120929303	420
1	1279	428.555943436034	421
1	1280	429.656664272763	422
1	1285	431.137116729342	423
1	1286	431.226581275114	424
1	1287	431.727458350294	425
1	1288	432.233205405445	426
1	1289	432.345017360671	427
1	1292	433.093322933398	428
1	1297	435.517399788304	429
1	1298	435.88769466816	430
1	1305	436.345647114358	431
1	1310	437.815648084997	432
1	1313	438.476377516613	433
1	1316	438.889571938903	434
1	1319	441.109102913858	435
1	1322	441.752189190278	436
1	1325	442.33507578856	437
1	1326	444.398796905416	438
1	1327	444.768346337341	439
1	1328	444.821367713971	440
1	1329	445.199145972139	441
1	1332	446.383394603227	442
1	1333	446.826187932915	443
1	1338	448.001313428126	444
1	1341	449.064287572547	445
1	1342	449.086436973352	446
1	1347	449.870863561329	447
1	1348	450.095536176614	448
1	1351	450.34232468358	449
1	1352	450.655905538468	450
1	1353	450.773418318012	451
1	1362	455.695134110921	452
1	1369	456.842685051745	453
1	1370	456.916070981312	454
1	1371	457.040347000465	455
1	1372	457.294351913816	456
1	1373	457.522128224702	457
1	1376	458.732138524844	458
1	1389	462.392855361749	459
1	1390	462.620254783963	460
1	1393	462.892057535397	461
1	1394	463.73284916823	462
1	1397	464.228417112338	463
1	1398	464.272602665396	464
1	1413	466.68539160084	465
1	1414	467.393754851799	466
1	1415	467.94360202195	467
1	1416	468.094473207896	468
1	1417	468.671741745235	469
1	1418	468.699537410959	470
1	1423	470.698321933618	471
1	1424	470.808668265591	472
1	1425	471.17252228909	473
1	1426	472.162889999609	474
1	1435	474.023948526471	475
1	1440	476.93658154979	476
1	1443	477.108543976233	477
1	1446	477.281711286035	478
1	1447	477.340183726689	479
1	1448	478.187964299456	480
1	1449	478.585200353611	481
1	1450	479.988479172496	482
1	1465	485.719811276033	483
1	1466	486.064925398776	484
1	1467	486.160831708556	485
1	1468	486.229751416374	486
1	1469	486.372438832607	487
1	1470	486.886023543573	488
1	1471	486.997556026804	489
1	1474	487.690461382287	490
1	1475	488.944709731709	491
1	1476	488.944835853903	492
1	1487	491.282625726504	493
1	1488	491.583210247665	494
1	1489	493.34791188901	495
1	1490	493.350238111101	496
1	1491	494.161880844566	497
1	1494	495.643406302145	498
1	1499	496.583925525944	499
1	1500	496.780056184261	500
1	1503	496.963736834029	501
1	1506	497.451769901138	502
1	1511	499.162883048874	503
1	1512	499.204589084382	504
1	1515	499.827127306534	505
1	1518	500.466395617606	506
1	1523	504.107249206376	507
1	1526	506.355754888156	508
1	1527	506.680539909392	509
1	1530	508.289867204147	510
1	1533	510.389293257311	511
1	1536	511.273230325324	512
1	1541	513.212305953568	513
1	1542	513.955751681935	514
1	1545	514.599546430037	515
1	1548	517.127445207164	516
1	1551	518.346326368995	517
1	1556	519.189656942718	518
1	1559	519.55324174324	519
1	1562	520.359326978905	520
1	1563	520.524502161997	521
1	1566	520.873388670199	522
1	1575	523.613037560007	523
1	1576	524.556419871011	524
1	1579	525.19979430998	525
1	1580	525.206464565446	526
1	1581	525.53448809052	527
1	1584	526.194259039896	528
1	1587	527.661272030413	529
1	1590	528.078023641597	530
1	1593	528.263829588683	531
1	1596	528.638629318503	532
1	1599	530.60457514041	533
1	1610	534.095248155063	534
1	1613	535.625571902013	535
1	1614	536.548632311809	536
1	1615	536.714580395848	537
1	1620	538.315991489122	538
1	1621	538.564671393784	539
1	1622	538.620856378715	540
1	1623	538.849641142294	541
1	1626	540.091319950676	542
1	1629	541.103204922648	543
1	1634	544.463363576147	544
1	1641	546.513484086575	545
1	1642	546.954005580702	546
1	1643	547.557209962141	547
1	1646	548.459893542764	548
1	1651	549.68220582944	549
1	1652	549.724416490611	550
1	1657	550.615702980265	551
1	1662	551.0886640641	552
1	1663	551.331048769597	553
1	1668	553.314514551762	554
1	1671	553.7291898073	555
1	1678	555.430140151566	556
1	1679	555.840749149719	557
1	1680	556.732306051005	558
1	1681	556.8154590353	559
1	1682	556.881416856636	560
1	1683	557.110990957043	561
1	1692	560.883077676853	562
1	1693	561.955023138018	563
1	1698	562.488553367578	564
1	1701	563.355837559308	565
1	1704	564.080038863642	566
1	1705	564.412044016256	567
1	1712	566.166917052172	568
1	1713	566.390129955289	569
1	1714	566.410337515523	570
1	1715	566.986235643389	571
1	1718	568.432325256417	572
1	1719	568.630570729854	573
1	1724	572.127659409032	574
1	1725	572.179116111312	575
1	1728	572.480466741923	576
1	1731	573.62926485659	577
1	1736	574.168921089293	578
1	1737	574.253112604898	579
1	1742	575.20841266664	580
1	1747	577.194423182873	581
1	1750	578.002884934915	582
1	1751	578.025082854975	583
1	1754	579.22424414889	584
1	1759	580.912373638523	585
1	1760	581.017963706857	586
1	1763	581.388255785983	587
1	1764	581.855873278873	588
1	1767	583.292911518536	589
1	1774	589.076623564292	590
1	1777	589.687071472418	591
1	1778	589.828388704939	592
1	1779	590.015823892168	593
1	1784	590.559130272263	594
1	1785	590.882347935789	595
1	1792	592.780121706911	596
1	1793	592.788448880604	597
1	1798	594.233834510864	598
1	1799	594.689725323892	599
1	1802	595.670629766961	600
1	1803	596.431895610504	601
1	1814	598.22886187748	602
1	1821	600.177487627175	603
1	1822	600.441280903579	604
1	1823	600.513962566476	605
1	1830	603.122750601584	606
1	1831	603.869831627454	607
1	1834	603.953633242674	608
1	1837	604.8979785196	609
1	1842	605.656664659449	610
1	1849	607.886681936576	611
1	1850	608.375697657133	612
1	1859	610.149986091201	613
1	1860	610.393782676757	614
1	1865	611.393294375396	615
1	1870	612.249216136798	616
1	1871	613.340845760344	617
1	1878	615.114710010773	618
1	1879	616.469109705781	619
1	1880	618.678088120232	620
1	1881	618.909287198502	621
1	1882	619.888559371407	622
1	1883	620.13050726114	623
1	1886	621.096057313113	624
1	1891	623.021117569384	625
1	1892	623.237255192674	626
1	1893	623.457976267073	627
1	1896	623.89030869527	628
1	1899	624.890051429791	629
1	1900	625.047397588515	630
1	1905	626.462026880362	631
1	1906	626.671580465289	632
1	1907	626.910701517082	633
1	1908	628.075745785425	634
1	1911	629.023268520462	635
1	1912	629.049041784429	636
1	1913	629.403635669937	637
1	1920	631.08482523565	638
1	1921	631.205264652377	639
1	1922	632.373096460582	640
1	1923	633.084398877525	641
1	1934	636.240166153358	642
1	1937	636.875813528315	643
1	1938	637.411342838879	644
1	1939	637.638050148841	645
1	1940	638.198646062526	646
1	1941	638.781158722103	647
1	1944	642.11715873982	648
1	1949	645.753420293765	649
1	1958	647.159071623684	650
1	1961	647.593475881605	651
1	1962	647.837720393595	652
1	1963	648.349350138463	653
1	1964	649.203857738758	654
1	1969	652.956351002743	655
1	1972	654.163014556926	656
1	1977	655.391115401357	657
1	1980	655.75401671443	658
1	1981	655.913613271119	659
1	1982	656.040371723962	660
1	1985	656.677793880998	661
1	1986	656.905008824413	662
1	2001	662.744746597249	663
1	2002	664.079903583607	664
1	2003	664.912832714818	665
1	2008	665.662658212552	666
1	2009	665.966384481556	667
1	2010	665.991687597066	668
1	2011	666.029148952767	669
1	2012	666.552115602956	670
1	2013	667.311905672294	671
1	2022	667.960245788074	672
1	2025	669.490631358191	673
1	2026	669.882190761809	674
1	2027	670.036911628339	675
1	2034	671.424228246088	676
1	2035	671.73031612652	677
1	2036	672.468307612822	678
1	2037	672.535364655899	679
1	2042	673.766598944895	680
1	2043	673.840018288675	681
1	2046	675.388743554207	682
1	2049	676.423899824832	683
1	2054	677.979055105927	684
1	2055	678.03036952667	685
1	2058	678.603253591335	686
1	2083	683.528932200821	687
1	2084	683.827036602449	688
1	2085	683.995922505494	689
1	2086	684.685140601542	690
1	2087	684.836587868708	691
1	2088	685.105584646736	692
1	2089	685.659627295139	693
1	2090	685.730644540216	694
1	2093	686.403030055098	695
1	2094	687.882417739032	696
1	2095	689.081430681673	697
1	2096	689.948313865341	698
1	2097	690.18837301665	699
1	2100	690.830473409138	700
1	2107	692.516362459814	701
1	2110	693.653808551218	702
1	2113	694.290647381997	703
1	2122	696.826454178255	704
1	2123	697.866199024779	705
1	2128	698.619337826103	706
1	2129	698.63273605175	707
1	2130	698.893703626446	708
1	2131	699.3873339736	709
1	2132	699.461866014129	710
1	2139	702.026612437477	711
1	2142	702.17705163861	712
1	2143	702.434876861751	713
1	2144	702.707696160709	714
1	2145	702.874781980101	715
1	2148	704.713911883314	716
1	2153	707.155115348943	717
1	2154	707.705237674232	718
1	2157	709.10804324224	719
1	2160	709.225533346327	720
1	2167	711.076127816114	721
1	2172	713.852239946742	722
1	2173	714.275854381087	723
1	2176	714.446449214465	724
1	2177	715.863490961298	725
1	2182	716.742137211166	726
1	2187	719.052618281463	727
1	2192	720.348266672729	728
1	2193	720.539124469512	729
1	2194	720.992428187191	730
1	2195	721.130555571552	731
1	2196	721.32176847939	732
1	2199	723.339709423823	733
1	2208	725.713747900537	734
1	2211	726.60107191205	735
1	2222	728.677018166203	736
1	2223	728.825679822097	737
1	2226	730.2619251431	738
1	2229	730.397117479403	739
1	2230	730.716697014157	740
1	2231	731.329997275292	741
1	2234	732.066273773744	742
1	2235	732.075577184024	743
1	2236	732.195757513987	744
1	2237	732.407513327995	745
1	2240	734.458604619994	746
1	2243	735.268653410795	747
1	2250	737.274528544453	748
1	2251	737.27475549171	749
1	2256	739.694182487159	750
1	2257	740.015587581676	751
1	2262	741.333882699598	752
1	2269	741.830182436973	753
1	2278	744.33619555614	754
1	2279	744.715679746692	755
1	2282	745.830707988646	756
1	2283	746.148739605732	757
1	2288	747.451595233506	758
1	2289	747.685728840472	759
1	2292	748.065455783128	760
1	2297	750.028084619124	761
1	2300	750.574306695929	762
1	2301	750.741397853701	763
1	2304	751.285780753049	764
1	2307	751.466527685006	765
1	2308	751.647219051541	766
1	2313	751.913474601621	767
1	2316	754.347496451693	768
1	2317	754.459690834235	769
1	2322	755.570012403413	770
1	2325	757.770130570629	771
1	2328	758.020991796661	772
1	2331	760.002968825082	773
1	2332	760.16981602281	774
1	2333	760.677961070488	775
1	2334	761.988899274509	776
1	2335	763.396983050698	777
1	2338	766.978234536544	778
1	2339	767.095869909672	779
1	2340	767.122949175825	780
1	2345	768.15628086423	781
1	2350	769.554425798939	782
1	2357	770.171575518477	783
1	2362	771.829131652338	784
1	2363	772.11979229063	785
1	2368	773.285863099767	786
1	2369	773.811234023558	787
1	2372	774.649896867751	788
1	2373	775.213037679042	789
1	2374	775.270604859101	790
1	2375	775.415476647737	791
1	2376	775.48857699585	792
1	2379	779.045804478224	793
1	2386	781.094406996393	794
1	2387	781.241544216783	795
1	2390	782.749419521657	796
1	2391	783.241571050085	797
1	2396	783.655118409093	798
1	2397	784.406197868244	799
1	2402	786.530737111163	800
1	2407	787.63085810707	801
1	2408	787.969102054356	802
1	2411	788.7532686335	803
1	2414	789.226624895903	804
1	2417	790.64245359549	805
1	2420	791.079661682609	806
1	2423	791.205327759213	807
1	2424	791.38218454633	808
1	2429	794.856483358922	809
1	2430	795.224205577257	810
1	2433	795.976805108181	811
1	2436	797.409527041121	812
1	2439	798.045140345724	813
1	2442	799.946904805509	814
1	2449	801.169399513825	815
1	2456	803.365951988019	816
1	2457	803.841646919449	817
1	2468	806.661375993707	818
1	2473	807.217683551443	819
1	2474	808.629377793103	820
1	2475	808.713853805386	821
1	2476	808.723969263794	822
1	2479	810.007263215571	823
1	2484	811.281505233082	824
1	2487	812.174679911697	825
1	2488	812.444161102687	826
1	2489	812.552109627178	827
1	2492	814.848961191745	828
1	2495	815.162614152512	829
1	2498	816.287498638191	830
1	2499	816.536220041335	831
1	2500	816.84540747405	832
1	2501	817.02397154209	833
1	2502	817.396704525175	834
1	2507	818.451983009906	835
1	2508	818.778822080166	836
1	2511	819.515472331757	837
1	2514	820.206588442946	838
1	2519	821.29476503051	839
1	2522	822.395110016069	840
1	2525	822.86639381288	841
1	2526	823.493574618728	842
1	2529	824.576519665623	843
1	2532	825.700948624504	844
1	2535	826.696119070815	845
1	2556	832.045108518576	846
1	2563	833.123477279137	847
1	2570	834.43002827092	848
1	2573	835.036277077676	849
1	2574	835.7628835681	850
1	2575	836.532894141598	851
1	2578	838.52080300699	852
1	2583	840.910516205062	853
1	2584	841.250727217898	854
1	2585	842.450978532375	855
1	2586	842.621275473832	856
1	2589	843.468808129422	857
1	2590	843.658942200733	858
1	2591	843.803071014572	859
1	2592	843.930948457475	860
1	2595	844.371314117429	861
1	2596	844.494447452807	862
1	2599	845.888664432101	863
1	2600	847.159087091083	864
1	2605	849.433693265156	865
1	2606	849.852714116706	866
1	2609	850.787896291343	867
1	2610	852.596874644696	868
1	2611	853.517713008681	869
1	2612	853.565534418839	870
1	2615	854.352895969576	871
1	2618	855.057480170217	872
1	2619	855.947119347831	873
1	2624	856.789502475679	874
1	2625	856.885615103282	875
1	2632	859.026672111954	876
1	2633	859.2634101443	877
1	2636	859.453608167512	878
1	2637	860.452723976872	879
1	2640	861.496644709972	880
1	2643	862.497131075458	881
1	2648	864.141999493822	882
1	2653	865.201191351088	883
1	2654	865.613067820841	884
1	2659	869.817167412376	885
1	2664	871.186493824738	886
1	2671	873.658098698583	887
1	2672	873.842830855259	888
1	2679	874.137440990889	889
1	2684	875.228791083815	890
1	2685	876.001199055775	891
1	2686	876.211423783868	892
1	2687	876.401694214741	893
1	2688	877.369906710064	894
1	2691	877.68108705804	895
1	2696	879.139236925025	896
1	2697	879.396345708471	897
1	2700	879.914558242959	898
1	2705	880.982441483755	899
1	2708	881.936093732711	900
1	2715	884.238492096807	901
1	2720	886.065117748924	902
1	2727	886.44117879638	903
1	2730	887.345229761679	904
1	2743	891.162263435857	905
1	2744	891.256131568094	906
1	2745	891.3124235245	907
1	2752	893.851419851839	908
1	2753	894.174021175524	909
1	2758	894.569331557657	910
1	2763	895.364177182272	911
1	2766	898.637188187345	912
1	2771	899.699698404179	913
1	2772	899.784314367896	914
1	2773	900.198011845408	915
1	2778	901.865128647427	916
1	2779	902.043490747252	917
1	2782	905.325369500871	918
1	2783	905.410567193279	919
1	2784	905.586141929381	920
1	2789	906.42990373259	921
1	2792	906.721870426203	922
1	2799	907.810758630306	923
1	2800	908.144904997871	924
1	2803	908.861987324296	925
1	2804	908.947366391102	926
1	2805	910.086622984102	927
1	2806	910.148311297699	928
1	2813	913.137847076032	929
1	2816	913.213954824644	930
1	2821	913.48016025711	931
1	2824	914.095293053245	932
1	2825	914.547407881316	933
1	2828	915.3086653352	934
1	2829	916.336139445502	935
1	2840	917.517535265092	936
1	2841	917.530462841951	937
1	2844	917.994978271695	938
1	2845	918.236919976298	939
1	2848	918.810439847286	940
1	2851	918.948941776103	941
1	2852	919.130441452139	942
1	2855	922.34840815418	943
1	2856	922.932987491984	944
1	2863	925.117238837626	945
1	2864	925.243731009318	946
1	2865	925.976343632206	947
1	2866	926.016135694485	948
1	2867	926.190383247455	949
1	2868	926.29983193576	950
1	2869	927.194955192748	951
1	2872	927.410056248177	952
1	2873	928.263750851716	953
1	2874	928.998716157377	954
1	2883	931.669318684784	955
1	2884	931.890245137803	956
1	2889	933.119462899369	957
1	2892	933.540264964391	958
1	2893	934.562081689537	959
1	2896	934.914656220061	960
1	2899	935.34236439051	961
1	2902	936.13163312397	962
1	2903	936.647655764761	963
1	2904	937.53040134036	964
1	2905	938.357534193128	965
1	2906	938.453538987491	966
1	2907	939.317904541222	967
1	2912	940.362593881667	968
1	2915	942.187255278946	969
1	2918	943.235151915106	970
1	2929	946.13479064197	971
1	2930	946.160805628709	972
1	2931	946.250546054012	973
1	2932	946.517680853597	974
1	2939	949.140815715218	975
1	2944	949.571752168822	976
1	2949	952.025944001886	977
1	2950	952.213764332691	978
1	2951	952.902436194338	979
1	2954	954.649588138998	980
1	2955	954.951124887504	981
1	2960	955.52959477178	982
1	2963	956.541446129697	983
1	2976	959.799044327371	984
1	2977	960.311084313713	985
1	2978	960.473476467605	986
1	2979	960.626228670603	987
1	2980	961.383648470476	988
1	2981	961.394861382813	989
1	2982	962.090700512137	990
1	2983	962.241813537102	991
1	2988	962.730311024559	992
1	2989	963.334996215304	993
1	2994	966.011568981831	994
1	2995	966.336228372379	995
1	2996	966.74343776698	996
1	2997	966.973109670819	997
1	2998	966.990558823307	998
1	2999	967.481033784436	999
1	3002	969.257529340138	1000
1	3003	969.672702655395	1001
1	3006	970.119591774856	1002
1	3009	971.620438203002	1003
1	3012	972.408637666889	1004
1	3019	974.789995989984	1005
1	3022	975.173207058175	1006
1	3027	976.659866214377	1007
1	3030	977.940815995124	1008
1	3031	978.0291349959	1009
1	3034	979.746609236916	1010
1	3039	981.126367950464	1011
1	3040	982.220110237294	1012
1	3041	982.342590134056	1013
1	3042	982.840747268852	1014
1	3045	984.117735198356	1015
1	3050	985.585443630433	1016
1	3065	989.837202882742	1017
1	3068	990.988169696541	1018
1	3069	991.445166809177	1019
1	3070	991.634391978481	1020
1	3071	992.405671016428	1021
1	3072	992.665160663748	1022
1	3073	992.854018261019	1023
1	3074	993.028936407925	1024
1	3077	993.376158797789	1025
1	3078	994.980268881947	1026
1	3081	997.368444008221	1027
1	3084	997.81559825985	1028
1	3091	998.742615935973	1029
1	3092	998.763896385095	1030
1	3095	999.604246532064	1031
1	3096	999.98923527614	1032
1	3101	1003.402339351393	1033
1	3102	1003.924783575335	1034
1	3105	1004.922897045013	1035
1	3110	1006.699769936094	1036
1	3111	1007.455831211831	1037
1	3114	1009.579825672556	1038
1	3119	1011.277506927299	1039
1	3120	1011.678408727185	1040
1	3123	1012.205065721085	1041
1	3128	1014.550999120684	1042
1	3129	1014.849993372017	1043
1	3132	1016.666966284328	1044
1	3135	1016.912349834214	1045
1	3138	1017.639848866253	1046
1	3143	1019.824121191003	1047
1	3144	1021.086771846794	1048
1	3153	1024.2094435148	1049
1	3158	1024.979302860987	1050
1	3169	1026.915806355728	1051
1	3172	1028.711108250996	1052
1	3177	1029.87922395223	1053
1	3182	1030.169611306506	1054
1	3183	1031.497602430418	1055
1	3184	1032.554154009547	1056
1	3185	1032.577751083811	1057
1	3186	1032.651359795787	1058
1	3195	1035.297690990353	1059
1	3198	1035.981496906267	1060
1	3203	1037.349371842135	1061
1	3212	1040.711245813314	1062
1	3213	1040.72618022847	1063
1	3214	1041.597520094209	1064
1	3221	1043.616096438831	1065
1	3226	1045.739559212117	1066
1	3229	1046.416190139508	1067
1	3236	1048.511384706173	1068
1	3237	1048.795295554056	1069
1	3242	1050.686676075838	1070
1	3247	1051.995897650133	1071
1	3250	1053.689661492612	1072
1	3255	1054.642281323748	1073
1	3258	1055.448094419715	1074
1	3261	1056.610345448278	1075
1	3262	1057.214804094365	1076
1	3265	1058.137775591279	1077
1	3266	1058.2925715465	1078
1	3271	1060.343764507639	1079
1	3272	1061.31012639231	1080
1	3273	1061.545322024909	1081
1	3278	1062.688923548281	1082
1	3281	1063.208089988386	1083
1	3282	1063.242671609163	1084
1	3283	1064.091829242675	1085
1	3284	1064.208745122613	1086
1	3287	1064.730946719533	1087
1	3288	1064.941443229687	1088
1	3289	1066.061845050094	1089
1	3290	1066.102556152751	1090
1	3291	1066.350398723938	1091
1	3296	1067.327633543753	1092
1	3307	1069.361439511809	1093
1	3312	1070.83475837624	1094
1	3313	1071.191744942017	1095
1	3314	1072.226209154868	1096
1	3317	1074.037565908148	1097
1	3318	1074.055449047373	1098
1	3321	1075.148695280136	1099
1	3322	1076.469149715121	1100
1	3323	1076.550693256832	1101
1	3324	1077.079471517815	1102
1	3327	1077.677357478262	1103
1	3328	1078.310020837127	1104
1	3331	1078.934523194119	1105
1	3332	1079.087752089542	1106
1	3333	1080.078613637908	1107
1	3336	1081.014140663198	1108
1	3337	1081.160066425542	1109
1	3346	1083.048569440841	1110
1	3353	1084.065800564854	1111
1	3354	1085.320432744749	1112
1	3355	1085.365061240756	1113
1	3356	1085.587991228703	1114
1	3357	1085.609203034246	1115
1	3360	1085.839842128169	1116
1	3361	1086.103697158355	1117
1	3364	1086.931731903749	1118
1	3365	1087.334952820013	1119
1	3370	1088.100265918273	1120
1	3375	1090.685358917041	1121
1	3376	1091.293750361024	1122
1	3383	1093.004209858543	1123
1	3386	1093.787762878141	1124
1	3387	1095.018146969311	1125
1	3390	1095.31766610712	1126
1	3393	1097.820346447118	1127
1	3394	1097.90250893067	1128
1	3395	1098.387766564331	1129
1	3398	1099.986357000787	1130
1	3399	1100.221276714637	1131
1	3402	1100.533631440964	1132
1	3405	1101.399157899286	1133
1	3410	1102.199353744683	1134
1	3411	1102.640922060947	1135
1	3412	1102.657893771994	1136
1	3413	1103.304351849245	1137
1	3414	1103.467431382754	1138
1	3419	1104.918966270106	1139
1	3426	1107.655787778894	1140
1	3427	1107.702187599294	1141
1	3428	1108.193955344428	1142
1	3429	1108.530666109357	1143
1	3432	1110.655171261886	1144
1	3439	1111.768887376446	1145
1	3440	1111.935938941123	1146
1	3441	1112.216425047348	1147
1	3448	1113.687649457206	1148
1	3449	1114.11169663446	1149
1	3452	1115.100239742417	1150
1	3455	1115.671192564249	1151
1	3456	1115.785243973064	1152
1	3459	1116.617764422464	1153
1	3466	1119.582965837694	1154
1	3469	1119.636494842095	1155
1	3478	1121.208253494824	1156
1	3487	1123.611682388176	1157
1	3488	1124.385766369971	1158
1	3489	1125.572004280823	1159
1	3490	1125.829720721985	1160
1	3491	1126.735728279354	1161
1	3494	1127.641955726762	1162
1	3495	1128.803389997619	1163
1	3502	1130.865763805296	1164
1	3503	1130.899805819768	1165
1	3504	1131.002774584017	1166
1	3507	1131.150947426783	1167
1	3508	1131.185779318529	1168
1	3509	1132.231467303092	1169
1	3512	1132.741672246576	1170
1	3521	1133.4769220478	1171
1	3526	1133.875291926046	1172
1	3527	1134.533057277371	1173
1	3528	1134.78583570501	1174
1	3531	1136.153773833288	1175
1	3532	1136.184544493589	1176
1	3537	1136.845917393867	1177
1	3540	1137.431271106432	1178
1	3543	1137.736207729292	1179
1	3544	1137.757510499667	1180
1	3547	1138.590038982616	1181
1	3550	1139.885514711896	1182
1	3553	1140.650435661955	1183
1	3556	1141.288371541124	1184
1	3563	1142.87740046093	1185
1	3566	1143.07683934762	1186
1	3573	1144.574476960756	1187
1	3578	1145.557967627795	1188
1	3579	1146.249128810129	1189
1	3580	1146.472491642949	1190
1	3581	1146.601210234047	1191
1	3584	1147.197017429774	1192
1	3585	1147.378335994975	1193
1	3586	1147.431029670597	1194
1	3595	1149.685928024036	1195
1	3598	1150.581127396824	1196
1	3599	1150.986539945202	1197
1	3604	1151.423864292895	1198
1	3609	1153.639394697339	1199
1	3610	1154.314813081976	1200
1	3611	1155.280732591822	1201
1	3612	1155.500243993627	1202
1	3613	1155.790462271991	1203
1	3616	1156.242762056334	1204
1	3617	1157.723114117796	1205
1	3620	1158.589482967105	1206
1	3621	1158.71898134904	1207
1	3630	1161.207667850224	1208
1	3635	1162.285099229394	1209
1	3638	1162.9561234947	1210
1	3641	1163.572207414737	1211
1	3642	1163.576251367687	1212
1	3643	1163.671539324646	1213
1	3644	1164.304050998258	1214
1	3645	1164.444026256832	1215
1	3648	1164.744946247999	1216
1	3651	1165.185921162189	1217
1	3654	1165.574250200963	1218
1	3657	1167.38304276771	1219
1	3660	1167.648973546962	1220
1	3669	1170.121954146957	1221
1	3670	1170.66447604204	1222
1	3673	1171.323988270943	1223
1	3674	1171.963640739081	1224
1	3675	1172.253904904316	1225
1	3678	1175.110408349477	1226
1	3687	1177.968683049068	1227
1	3688	1180.22623989652	1228
1	3689	1181.210991211862	1229
1	3690	1181.72510231932	1230
1	3697	1183.80449233448	1231
1	3698	1184.267971469407	1232
1	3701	1184.643638386122	1233
1	3702	1184.775276694345	1234
1	3707	1185.145108171668	1235
1	3708	1185.348979403587	1236
1	3717	1192.478919646239	1237
1	3718	1192.654657117669	1238
1	3727	1194.338824349821	1239
1	3728	1195.0758224616	1240
1	3729	1195.129644274556	1241
1	3730	1195.590967366559	1242
1	3731	1195.730165427296	1243
1	3732	1196.788805366828	1244
1	3737	1198.176678464421	1245
1	3738	1198.488366118513	1246
1	3741	1200.071596167517	1247
1	3746	1201.779118367496	1248
1	3747	1201.896796856471	1249
1	3752	1202.603409250545	1250
1	3753	1202.669937957232	1251
1	3758	1203.528714311998	1252
1	3763	1205.510606726861	1253
1	3764	1205.663311804303	1254
1	3765	1206.329665940409	1255
1	3768	1209.603450776502	1256
1	3771	1210.800650335746	1257
1	3774	1211.094848472656	1258
1	3777	1211.559615683938	1259
1	3784	1216.384627139292	1260
1	3785	1217.272293778581	1261
1	3788	1218.44067457298	1262
1	3791	1218.612986352087	1263
1	3792	1218.632668596629	1264
1	3797	1220.894683758101	1265
1	3798	1220.990084850018	1266
1	3801	1225.797391963519	1267
1	3808	1227.408932412719	1268
1	3815	1228.582873059489	1269
1	3816	1228.834236014929	1270
1	3821	1230.620754917994	1271
1	3822	1230.967726978684	1272
1	3823	1231.068907097247	1273
1	3824	1231.292284750132	1274
1	3827	1231.947356398378	1275
1	3830	1232.829126295816	1276
1	3831	1233.742082139019	1277
1	3834	1235.051335630729	1278
1	3837	1237.882804480337	1279
1	3844	1239.82677057364	1280
1	3845	1241.049969764407	1281
1	3848	1241.08477484595	1282
1	3849	1241.221766477852	1283
1	3854	1242.52327909963	1284
1	3861	1244.753910305112	1285
1	3862	1245.472469887945	1286
1	3869	1247.260488741696	1287
1	3870	1247.738762688642	1288
1	3871	1248.252137912047	1289
1	3874	1249.937375426406	1290
1	3877	1252.607844123303	1291
1	3880	1254.182898451344	1292
1	3885	1254.476220120415	1293
1	3886	1254.530515436707	1294
1	3887	1255.00950328431	1295
1	3888	1255.017911698257	1296
1	3893	1256.045292109736	1297
1	3896	1256.619272629534	1298
1	3897	1256.678169405712	1299
1	3900	1257.850858116835	1300
1	3905	1259.507435440382	1301
1	3906	1260.013469076948	1302
1	3911	1261.976726241026	1303
1	3912	1262.450388265267	1304
1	3915	1263.2667294191	1305
1	3920	1264.555131299006	1306
1	3931	1266.75712829426	1307
1	3934	1267.169470211843	1308
1	3937	1267.335214338688	1309
1	3938	1267.521243568318	1310
1	3941	1267.87233829607	1311
1	3942	1268.712486049641	1312
1	3945	1269.313662236158	1313
1	3950	1270.535579408381	1314
1	3953	1273.697294852379	1315
1	3954	1274.644708535281	1316
1	3957	1275.746018404748	1317
1	3958	1277.182908161289	1318
1	3961	1277.817782833198	1319
1	3966	1278.48980894517	1320
1	3967	1278.837799316371	1321
1	3970	1279.576304426957	1322
1	3971	1279.839359384473	1323
1	3972	1279.963678879522	1324
1	3975	1280.748225910043	1325
1	3982	1283.490102083581	1326
1	3983	1283.620298710072	1327
1	3994	1288.561794064652	1328
1	4003	1290.976901865649	1329
1	4004	1290.985939869335	1330
1	4005	1292.946559055691	1331
1	4006	1294.531083649858	1332
1	4009	1295.136196398626	1333
1	4010	1295.588220347213	1334
1	4011	1295.848111301444	1335
1	4014	1296.467287959137	1336
1	4015	1296.648117646006	1337
1	4018	1297.401112423765	1338
1	4021	1298.40880170567	1339
1	4024	1298.768280061725	1340
1	4025	1298.804194695637	1341
1	4028	1300.215822928734	1342
1	4029	1300.685780194882	1343
1	4034	1302.523092669338	1344
1	4037	1302.683583172842	1345
1	4038	1302.979148525624	1346
1	4053	1308.143832158851	1347
1	4060	1308.836353858112	1348
1	4061	1309.113019831978	1349
1	4070	1311.838072850348	1350
1	4075	1312.095795735541	1351
1	4076	1312.503541340636	1352
1	4077	1312.528978865961	1353
1	4078	1313.32803115991	1354
1	4079	1313.334058172144	1355
1	4084	1314.143721589724	1356
1	4085	1314.645568507134	1357
1	4086	1315.092907116878	1358
1	4087	1315.516175467626	1359
1	4088	1315.806138728719	1360
1	4089	1316.425654078538	1361
1	4090	1316.816817628313	1362
1	4093	1317.897405761372	1363
1	4094	1318.093331946482	1364
1	4099	1318.68897493518	1365
1	4102	1319.770124991119	1366
1	4107	1322.028115091668	1367
1	4114	1323.77470726926	1368
1	4121	1325.552829326868	1369
1	4124	1327.322558274578	1370
1	4125	1327.554064924091	1371
1	4126	1327.949140447656	1372
1	4127	1328.067848070318	1373
1	4138	1331.02222176972	1374
1	4139	1331.237626623752	1375
1	4144	1331.280862237256	1376
1	4145	1332.322625132929	1377
1	4148	1333.458083604269	1378
1	4149	1333.938659579587	1379
1	4152	1335.486827842155	1380
1	4155	1337.294887608232	1381
1	4156	1338.911639595528	1382
1	4163	1341.025475307811	1383
1	4164	1341.509419676638	1384
1	4165	1341.569442318743	1385
1	4166	1341.890932908792	1386
1	4173	1343.383455152983	1387
1	4178	1343.904899216433	1388
1	4181	1345.096743323156	1389
1	4186	1346.771631057746	1390
1	4189	1347.295776330065	1391
1	4194	1347.627406746762	1392
1	4197	1348.575514807607	1393
1	4198	1348.753635372585	1394
1	4201	1349.053424956368	1395
1	4202	1349.42322615375	1396
1	4205	1350.587923637228	1397
1	4206	1351.323822378207	1398
1	4207	1353.081271154841	1399
1	4214	1354.431763710421	1400
1	4217	1354.779186564395	1401
1	4218	1354.952356911134	1402
1	4219	1357.307787108981	1403
1	4220	1358.156203193167	1404
1	4221	1358.342484872506	1405
1	4224	1358.719372131372	1406
1	4225	1359.130107208839	1407
1	4228	1359.584427143969	1408
1	4229	1359.954354793131	1409
1	4230	1360.013502413704	1410
1	4233	1362.199427537405	1411
1	4240	1364.273026468167	1412
1	4243	1364.43900325979	1413
1	4244	1364.545215864804	1414
1	4245	1364.825155135769	1415
1	4248	1365.236867208349	1416
1	4251	1366.63717121031	1417
1	4256	1371.202773740034	1418
1	4257	1371.995366832405	1419
1	4260	1372.152788695373	1420
1	4263	1373.955561741214	1421
1	4268	1376.328392458825	1422
1	4273	1378.59606211533	1423
1	4274	1380.182376594784	1424
1	4277	1380.643595779306	1425
1	4290	1384.244369930947	1426
1	4291	1384.2805555491	1427
1	4292	1385.389963427186	1428
1	4297	1388.426743533526	1429
1	4298	1389.713381305437	1430
1	4301	1391.030043618875	1431
1	4302	1391.389370798413	1432
1	4305	1391.936866140059	1433
1	4306	1392.305057783783	1434
1	4307	1392.515468454898	1435
1	4310	1393.104594894554	1436
1	4315	1394.993260734629	1437
1	4322	1396.615996143858	1438
1	4323	1397.713392751602	1439
1	4326	1397.936727013335	1440
1	4327	1398.208963926545	1441
1	4328	1398.345131512335	1442
1	4329	1398.389191777407	1443
1	4332	1399.921170852835	1444
1	4337	1401.217782179763	1445
1	4340	1401.636453753009	1446
1	4343	1402.289955091562	1447
1	4344	1402.424556930578	1448
1	4347	1404.110967334582	1449
1	4352	1405.259871398521	1450
1	4357	1408.245340135429	1451
1	4358	1409.244108576069	1452
1	4363	1410.106360436614	1453
1	4366	1413.020465483084	1454
1	4367	1413.139018253408	1455
1	4376	1415.627774609559	1456
1	4379	1415.790006782768	1457
1	4380	1416.001370825214	1458
1	4381	1416.335989706167	1459
1	4384	1419.971537974137	1460
1	4385	1420.06338903861	1461
1	4386	1420.101528992881	1462
1	4389	1421.924158421438	1463
1	4392	1422.481123940817	1464
1	4395	1424.517602464406	1465
1	4398	1426.784439193047	1466
1	4401	1429.362782455256	1467
1	4404	1430.443257552903	1468
1	4407	1432.183567515271	1469
1	4412	1433.75475932966	1470
1	4415	1434.757839983669	1471
1	4416	1435.070188508788	1472
1	4421	1435.396473016669	1473
1	4424	1436.211777980877	1474
1	4427	1437.109440450381	1475
1	4432	1438.803519595021	1476
1	4433	1438.973741873325	1477
1	4436	1439.550269461577	1478
1	4437	1440.130893863225	1479
1	4442	1440.815865211753	1480
1	4453	1442.490059012287	1481
1	4454	1442.730225464496	1482
1	4457	1445.887485433184	1483
1	4458	1446.567678169612	1484
1	4459	1446.6842297361	1485
1	4460	1446.751728148398	1486
1	4461	1446.953106217	1487
1	4466	1448.11319093718	1488
1	4467	1449.787138687306	1489
1	4470	1450.20167457047	1490
1	4473	1451.561736995632	1491
1	4478	1454.572396571951	1492
1	4479	1455.423366913436	1493
1	4484	1457.2510306183	1494
1	4493	1461.387186739637	1495
1	4498	1462.035612783228	1496
1	4501	1462.115167401162	1497
1	4502	1462.202506768681	1498
1	4505	1463.271936081371	1499
1	4506	1463.480196372317	1500
1	4507	1463.999312657768	1501
1	4510	1464.631994678273	1502
1	4511	1464.782122804139	1503
1	4512	1465.066867631738	1504
1	4521	1467.066504828232	1505
1	4522	1467.091306575962	1506
1	4523	1468.135618114924	1507
1	4524	1468.417565600817	1508
1	4527	1469.666112351908	1509
1	4530	1470.145990647291	1510
1	4533	1471.090082110239	1511
1	4540	1471.869019096099	1512
1	4541	1472.42796395942	1513
1	4546	1472.962424590006	1514
1	4547	1473.077151833999	1515
1	4550	1473.487481433949	1516
1	4559	1477.2387135361	1517
1	4560	1477.414537024741	1518
1	4561	1477.549833163879	1519
1	4566	1478.791262596032	1520
1	4569	1479.765545845764	1521
1	4570	1480.242714709399	1522
1	4571	1480.28489599777	1523
1	4572	1480.782073239387	1524
1	4581	1486.97729587517	1525
1	4582	1487.486792706738	1526
1	4583	1489.37649508035	1527
1	4584	1489.703495760744	1528
1	4589	1491.913793443188	1529
1	4592	1494.711216379102	1530
1	4593	1494.82235075516	1531
1	4596	1496.934942124765	1532
1	4601	1499.918185872649	1533
1	4602	1499.944382811208	1534
1	4607	1501.275490744864	1535
1	4608	1501.400588484888	1536
1	4611	1502.604164898271	1537
1	4622	1505.347894330847	1538
1	4631	1506.901797482823	1539
1	4634	1507.487550884827	1540
1	4639	1510.129347273183	1541
1	4642	1512.273438599238	1542
1	4643	1514.420077566211	1543
1	4644	1514.535198657477	1544
1	4645	1514.886179478483	1545
1	4646	1515.783600297809	1546
1	4655	1518.640627188029	1547
1	4660	1520.287081364983	1548
1	4661	1520.582049926168	1549
1	4662	1521.920497642375	1550
1	4665	1522.484947963143	1551
1	4666	1522.805915203646	1552
1	4669	1524.23045607791	1553
1	4672	1525.619617318654	1554
1	4675	1526.14574905689	1555
1	4678	1527.017667882498	1556
1	4679	1527.433830895235	1557
1	4682	1528.156826548241	1558
1	4683	1528.910719604378	1559
1	4686	1529.013799571365	1560
1	4687	1529.033198546227	1561
1	4688	1529.348800334807	1562
1	4689	1529.50520332757	1563
1	4694	1531.931024893878	1564
1	4695	1532.39756860881	1565
1	4698	1533.504075271835	1566
1	4703	1534.727531719061	1567
1	4706	1536.537455849566	1568
1	4707	1536.550614202954	1569
1	4714	1543.622631755324	1570
1	4715	1543.635757401022	1571
1	4724	1545.449455087885	1572
1	4725	1546.345863860862	1573
1	4726	1548.415962695767	1574
1	4733	1550.005921739351	1575
1	4738	1551.098818939938	1576
1	4739	1551.210076886434	1577
1	4742	1552.476042674184	1578
1	4745	1552.851978428316	1579
1	4750	1554.956140455569	1580
1	4751	1555.499896993137	1581
1	4756	1556.742631594627	1582
1	4757	1557.256770648477	1583
1	4762	1558.516392975304	1584
1	4763	1559.457824843041	1585
1	4764	1559.822705836373	1586
1	4765	1560.530022508117	1587
1	4770	1561.512386033293	1588
1	4771	1561.724719690612	1589
1	4772	1561.85856369231	1590
1	4773	1562.157197236848	1591
1	4776	1563.723867659437	1592
1	4781	1564.89651391672	1593
1	4782	1566.178971684795	1594
1	4787	1567.14374741068	1595
1	4788	1567.559440922229	1596
1	4791	1568.502759497874	1597
1	4796	1569.412574153736	1598
1	4797	1569.936298825912	1599
1	4800	1570.897489955002	1600
1	4803	1571.752178539421	1601
1	4806	1574.536388769942	1602
1	4815	1576.163182662823	1603
1	4816	1576.197467093227	1604
1	4817	1576.404265605935	1605
1	4818	1576.491717645991	1606
1	4821	1578.521274583415	1607
1	4826	1580.766100647385	1608
1	4829	1581.048115748612	1609
1	4830	1581.26236231115	1610
1	4833	1583.287340921165	1611
1	4836	1585.292227036719	1612
1	4839	1586.389117048917	1613
1	4842	1587.479213353979	1614
1	4845	1591.835052339306	1615
1	4850	1592.816921755174	1616
1	4853	1593.019921802567	1617
1	4854	1593.262181374345	1618
1	4857	1593.510222057932	1619
1	4860	1594.925340871566	1620
1	4863	1595.240082908413	1621
1	4872	1596.377230623786	1622
1	4875	1597.462895173187	1623
1	4876	1597.715393493728	1624
1	4879	1598.945048288662	1625
1	4880	1598.976156123499	1626
1	4881	1599.286035288949	1627
1	4884	1599.718042629972	1628
1	4887	1604.114455738715	1629
1	4894	1605.292873980766	1630
1	4897	1606.339815866467	1631
1	4900	1607.081574723144	1632
1	4907	1608.63719456672	1633
1	4908	1609.436682859018	1634
1	4911	1609.660758372657	1635
1	4912	1610.901264906329	1636
1	4915	1611.405517953982	1637
1	4916	1613.495361165271	1638
1	4917	1615.300535463382	1639
1	4930	1620.51044539819	1640
1	4931	1621.219875444056	1641
1	4934	1621.415675906765	1642
1	4935	1621.467882853409	1643
1	4936	1622.926189961845	1644
1	4943	1624.779425503011	1645
1	4946	1626.69205608023	1646
1	4947	1626.878113967327	1647
1	4948	1627.003384224313	1648
1	4951	1628.1184692805	1649
1	4952	1629.600582897185	1650
1	4953	1630.129355232414	1651
1	4958	1630.949044803724	1652
1	4961	1631.289396920098	1653
1	4962	1631.465394401511	1654
1	4967	1633.293243873539	1655
1	4970	1634.543045287274	1656
1	4971	1634.739417672148	1657
1	4974	1635.747712665582	1658
1	4977	1636.9555579025	1659
1	4982	1638.794433374489	1660
1	4983	1638.982871174599	1661
1	4988	1640.571359329744	1662
1	4989	1641.161614703249	1663
1	4996	1643.735650605395	1664
1	4997	1644.596782411543	1665
1	4998	1644.823590467118	1666
1	5001	1645.471658055866	1667
1	5006	1647.876840886355	1668
1	5007	1648.254988616066	1669
1	5010	1648.504455104972	1670
1	5021	1651.960086600808	1671
1	5024	1652.281318895426	1672
1	5027	1652.457356588098	1673
1	5030	1653.012409435585	1674
1	5031	1653.689197417006	1675
1	5038	1657.841497295966	1676
1	5047	1660.012684550733	1677
1	5056	1661.5936493965	1678
1	5059	1662.231674145883	1679
1	5060	1662.243182348317	1680
1	5061	1662.682366924225	1681
1	5062	1662.771461435864	1682
1	5069	1664.870549060164	1683
1	5074	1665.408328652661	1684
1	5093	1671.800344213689	1685
1	5096	1672.287877649466	1686
1	5097	1672.696517870304	1687
1	5100	1672.974667582607	1688
1	5115	1675.812033037379	1689
1	5116	1675.846268243777	1690
1	5119	1676.476228276892	1691
1	5122	1677.175863339343	1692
1	5123	1677.921326776991	1693
1	5124	1678.281930560821	1694
1	5125	1678.474968307177	1695
1	5126	1678.509143401021	1696
1	5129	1679.403874227859	1697
1	5132	1679.568532565204	1698
1	5133	1679.657616562009	1699
1	5134	1680.003845380797	1700
1	5139	1680.200422128873	1701
1	5140	1680.406129942033	1702
1	5143	1681.90205199025	1703
1	5148	1682.798507013536	1704
1	5151	1684.188324577362	1705
1	5160	1684.444492857756	1706
1	5163	1684.864477826114	1707
1	5164	1685.053980488716	1708
1	5169	1687.161293185178	1709
1	5174	1689.695490461794	1710
1	5175	1689.789848801034	1711
1	5176	1689.987097742873	1712
1	5179	1690.96868860545	1713
1	5182	1691.771348087706	1714
1	5183	1692.648226718024	1715
1	5184	1693.276509642755	1716
1	5185	1693.786797558533	1717
1	5192	1694.745621842983	1718
1	5193	1695.618653762955	1719
1	5206	1698.479962937014	1720
1	5209	1699.044884223461	1721
1	5210	1699.365492023737	1722
1	5213	1700.501707660586	1723
1	5214	1700.735390743593	1724
1	5215	1700.765846342532	1725
1	5216	1700.873038478924	1726
1	5217	1700.89128213015	1727
1	5220	1701.313323613923	1728
1	5221	1701.313946314032	1729
1	5228	1702.002876413324	1730
1	5235	1704.632128531979	1731
1	5236	1704.827606431844	1732
1	5239	1705.143113769948	1733
1	5244	1706.010292287183	1734
1	5245	1706.610711847627	1735
1	5246	1706.612625864854	1736
1	5249	1707.563251890317	1737
1	5258	1709.097779886458	1738
1	5259	1710.174467344848	1739
1	5262	1710.988705922053	1740
1	5265	1711.923238394852	1741
1	5266	1712.432489849952	1742
1	5269	1714.493822093318	1743
1	5276	1716.014721859006	1744
1	5277	1716.425739030404	1745
1	5278	1716.563401305045	1746
1	5281	1717.080450820256	1747
1	5290	1718.228215439177	1748
1	5291	1719.267874358993	1749
1	5298	1720.353538731111	1750
1	5299	1720.999643557143	1751
1	5300	1722.327673768533	1752
1	5301	1722.934139942637	1753
1	5306	1724.357095900492	1754
1	5307	1724.36167908503	1755
1	5308	1724.55882515944	1756
1	5313	1725.743581408618	1757
1	5320	1730.441414011495	1758
1	5321	1730.849365118393	1759
1	5324	1732.313381340347	1760
1	5327	1732.442835465853	1761
1	5330	1733.470754965371	1762
1	5331	1733.50033267896	1763
1	5332	1734.029497020184	1764
1	5333	1734.062914209509	1765
1	5348	1738.054311043227	1766
1	5349	1738.197803357177	1767
1	5350	1739.101000087073	1768
1	5351	1739.401601204643	1769
1	5352	1739.943738417946	1770
1	5355	1740.634866801081	1771
1	5358	1740.984766474058	1772
1	5365	1742.166397438516	1773
1	5366	1742.797701987725	1774
1	5367	1742.86349933843	1775
1	5374	1744.749322131711	1776
1	5375	1744.958040758627	1777
1	5380	1745.539800187647	1778
1	5381	1745.612827238646	1779
1	5382	1745.758250482125	1780
1	5385	1745.864746705592	1781
1	5388	1747.372679371395	1782
1	5389	1748.074536771778	1783
1	5392	1748.363978896606	1784
1	5395	1748.784531885943	1785
1	5402	1751.59860975844	1786
1	5403	1751.671354428213	1787
1	5406	1752.65780479205	1788
1	5407	1753.226170701559	1789
1	5410	1755.982783973878	1790
1	5413	1757.843334697355	1791
1	5414	1758.492611981802	1792
1	5415	1758.944246990088	1793
1	5416	1759.864767797381	1794
1	5421	1761.150846440757	1795
1	5422	1762.551030295455	1796
1	5433	1766.585835392545	1797
1	5438	1768.206365506609	1798
1	5441	1768.568146037328	1799
1	5442	1768.927510902069	1800
1	5443	1769.061737759937	1801
1	5448	1769.398877527027	1802
1	5453	1770.684237106841	1803
1	5456	1771.564344364633	1804
1	5457	1771.935695075897	1805
1	5458	1772.144489841004	1806
1	5467	1772.866849316646	1807
1	5468	1772.945381633915	1808
1	5473	1774.590632081638	1809
1	5474	1774.655338937671	1810
1	5479	1775.575219089525	1811
1	5480	1775.974655636607	1812
1	5481	1776.51302585969	1813
1	5482	1777.035516115216	1814
1	5483	1777.039793303803	1815
1	5484	1777.162435224269	1816
1	5485	1777.24653043561	1817
1	5486	1777.689008745351	1818
1	5487	1777.829201419322	1819
1	5490	1778.786714843682	1820
1	5491	1779.536501123695	1821
1	5494	1780.657097276748	1822
1	5495	1781.842156578704	1823
1	5496	1781.917920882136	1824
1	5499	1782.653239357448	1825
1	5500	1783.140781580805	1826
1	5503	1784.09895828162	1827
1	5506	1786.211173442619	1828
1	5511	1787.691178266399	1829
1	5512	1787.727359564005	1830
1	5513	1787.79685402658	1831
1	5516	1788.518832098843	1832
1	5517	1789.286003911075	1833
1	5518	1789.689003558796	1834
1	5519	1790.208990281481	1835
1	5522	1791.656835696137	1836
1	5523	1792.016837467334	1837
1	5524	1792.727158640608	1838
1	5525	1792.776795557709	1839
1	5528	1793.517386977036	1840
1	5533	1794.275180908647	1841
1	5538	1795.483655463388	1842
1	5539	1795.524025994232	1843
1	5542	1796.137100227518	1844
1	5543	1797.291831372682	1845
1	5548	1799.678015601771	1846
1	5553	1800.501750076476	1847
1	5554	1800.531662050675	1848
1	5559	1801.076951114154	1849
1	5560	1801.227013335053	1850
1	5563	1801.442577269613	1851
1	5568	1802.81270193883	1852
1	5569	1802.890339695544	1853
1	5570	1803.725998178024	1854
1	5571	1804.46269808557	1855
1	5582	1805.652091310884	1856
1	5591	1807.349306225565	1857
1	5598	1808.276930730037	1858
1	5603	1809.984844741253	1859
1	5604	1809.986964662451	1860
1	5605	1810.094179527901	1861
1	5608	1811.364755878376	1862
1	5609	1812.53108147931	1863
1	5626	1815.87372688668	1864
1	5627	1815.896127078506	1865
1	5630	1816.455871418723	1866
1	5633	1816.983288682981	1867
1	5634	1817.077386842326	1868
1	5637	1818.62634709382	1869
1	5640	1819.329285707077	1870
1	5645	1820.317076188869	1871
1	5648	1820.966484841431	1872
1	5651	1821.494821808846	1873
1	5652	1821.677215199748	1874
1	5653	1822.310600102774	1875
1	5654	1822.780660255227	1876
1	5655	1823.058710850396	1877
1	5658	1823.810474275622	1878
1	5659	1823.973514618923	1879
1	5660	1824.20816792465	1880
1	5661	1824.402560372382	1881
1	5662	1824.664741337406	1882
1	5663	1824.895653299583	1883
1	5666	1825.988148735545	1884
1	5667	1826.39166420072	1885
1	5668	1827.338489599853	1886
1	5675	1830.584508306307	1887
1	5676	1830.997117969012	1888
1	5677	1831.347225075628	1889
1	5680	1831.686030725023	1890
1	5681	1832.236411090781	1891
1	5682	1832.373167702459	1892
1	5683	1833.436871651363	1893
1	5684	1833.79588843326	1894
1	5685	1833.894064692703	1895
1	5688	1835.055744894382	1896
1	5691	1836.415697428659	1897
1	5696	1837.218810535039	1898
1	5699	1838.542245756143	1899
1	5702	1839.067298044682	1900
1	5703	1839.334025734923	1901
1	5718	1843.084639495646	1902
1	5723	1843.646281709023	1903
1	5724	1843.983590775752	1904
1	5725	1844.457040601953	1905
1	5726	1846.385552930771	1906
1	5727	1846.506399076106	1907
1	5728	1846.527883223993	1908
1	5731	1847.95708905322	1909
1	5734	1848.316423629205	1910
1	5739	1849.780730144263	1911
1	5748	1851.212798383612	1912
1	5749	1851.242501735782	1913
1	5750	1851.318549423569	1914
1	5753	1851.924834170879	1915
1	5754	1852.253109307832	1916
1	5755	1853.029735297833	1917
1	5758	1854.056910467845	1918
1	5761	1856.685072764328	1919
1	5762	1856.719865396706	1920
1	5763	1857.825945740735	1921
1	5766	1858.349369484643	1922
1	5775	1861.188110622676	1923
1	5776	1862.094597089209	1924
1	5785	1864.090087850743	1925
1	5788	1865.0748053434	1926
1	5789	1865.726374874617	1927
1	5790	1866.050429054731	1928
1	5795	1867.026539317971	1929
1	5798	1870.100341421075	1930
1	5803	1871.985388914426	1931
1	5804	1872.182739779836	1932
1	5805	1872.210545101615	1933
1	5816	1874.580923882488	1934
1	5821	1875.361494813718	1935
1	5828	1878.2515950981	1936
1	5831	1879.410735433954	1937
1	5836	1880.868310052974	1938
1	5837	1880.974467473774	1939
1	5844	1882.519426868776	1940
1	5853	1885.583971393111	1941
1	5854	1885.741509441406	1942
1	5855	1885.776949189905	1943
1	5860	1888.564787531164	1944
1	5865	1889.341114067681	1945
1	5866	1889.683269033845	1946
1	5867	1890.123064602518	1947
1	5872	1892.71751628038	1948
1	5873	1893.100865014672	1949
1	5878	1894.539974772161	1950
1	5879	1894.650270446866	1951
1	5880	1895.770787744232	1952
1	5881	1896.204051827596	1953
1	5882	1896.542427474466	1954
1	5885	1896.992386863849	1955
1	5886	1897.260964705323	1956
1	5893	1900.150652780535	1957
1	5894	1901.12125055897	1958
1	5897	1901.804627861987	1959
1	5898	1901.829891458599	1960
1	5899	1901.98124886011	1961
1	5902	1904.887817159231	1962
1	5903	1904.974569356051	1963
1	5904	1905.122661118517	1964
1	5905	1905.828269005128	1965
1	5906	1906.981199308861	1966
1	5907	1907.720222602247	1967
1	5910	1908.925793055823	1968
1	5915	1909.772190211899	1969
1	5930	1913.385865975037	1970
1	5939	1917.868543769705	1971
1	5940	1918.630011507754	1972
1	5941	1918.852209378448	1973
1	5944	1920.657327907497	1974
1	5945	1920.783496917218	1975
1	5948	1921.41526869287	1976
1	5967	1925.155291392905	1977
1	5968	1925.273465112344	1978
1	5971	1927.291126210688	1979
1	5972	1927.339510300958	1980
1	5973	1927.688756275971	1981
1	5978	1929.694233274285	1982
1	5979	1929.882266954709	1983
1	5980	1930.060511744248	1984
1	5983	1930.430195201842	1985
1	5986	1931.651517157835	1986
1	5991	1934.126055489303	1987
1	5992	1934.168390257116	1988
1	5993	1934.59390878218	1989
1	5994	1934.672751490666	1990
1	5995	1935.623017757705	1991
1	5998	1936.511276802815	1992
1	6003	1937.711840235006	1993
1	6004	1938.161220014213	1994
1	6005	1939.112871621566	1995
1	6006	1939.51860537728	1996
1	6007	1940.038977668111	1997
1	6014	1941.719881867314	1998
1	6019	1944.596156258801	1999
1	6024	1946.154751942254	2000
1	6031	1948.172771767249	2001
1	6032	1948.179753718271	2002
1	6035	1948.503415655032	2003
1	6040	1948.820524086858	2004
1	6041	1948.831041608438	2005
1	6044	1949.605219852998	2006
1	6047	1950.004783385061	2007
1	6048	1950.942314259918	2008
1	6049	1951.016948366085	2009
1	6052	1951.387299483067	2010
1	6053	1951.455798968306	2011
1	6054	1951.932399189942	2012
1	6061	1953.09643554328	2013
1	6066	1954.983953727068	2014
1	6069	1958.319566337437	2015
1	6072	1958.75605388121	2016
1	6075	1959.023546534526	2017
1	6078	1959.898758477478	2018
1	6079	1960.205362051952	2019
1	6082	1960.808984463441	2020
1	6089	1962.752846053696	2021
1	6090	1963.204364394484	2022
1	6091	1963.285505492922	2023
1	6092	1963.321809826677	2024
1	6093	1963.403720714784	2025
1	6096	1964.756892255576	2026
1	6097	1965.346078414975	2027
1	6098	1965.642935185934	2028
1	6101	1965.763538994587	2029
1	6106	1967.021015448022	2030
1	6107	1967.210373070925	2031
1	6108	1967.873057659098	2032
1	6109	1968.260981922637	2033
1	6112	1968.525618874908	2034
1	6119	1971.293257127829	2035
1	6120	1971.472465888718	2036
1	6121	1971.935528528971	2037
1	6122	1972.09146093079	2038
1	6125	1973.308934675389	2039
1	6126	1973.316812211729	2040
1	6131	1974.124592390092	2041
1	6132	1974.20789585186	2042
1	6135	1974.854893546702	2043
1	6136	1974.869078423117	2044
1	6137	1975.496562676633	2045
1	6140	1976.74722205487	2046
1	6149	1977.791150625797	2047
1	6150	1978.760365811524	2048
1	6153	1979.436863875628	2049
1	6154	1979.471174272672	2050
1	6157	1980.546351338347	2051
1	6160	1981.594178043192	2052
1	6167	1984.208097965385	2053
1	6168	1984.361024205277	2054
1	6169	1985.231308914856	2055
1	6170	1985.351788412241	2056
1	6175	1986.077497425727	2057
1	6182	1988.246479580359	2058
1	6183	1989.042888358517	2059
1	6186	1990.416117043492	2060
1	6187	1991.283546025578	2061
1	6188	1991.388408398493	2062
1	6193	1991.85176845279	2063
1	6194	1992.114479830752	2064
1	6197	1992.770719145205	2065
1	6200	1993.823078033994	2066
1	6201	1995.528860338503	2067
1	6204	1996.58842669699	2068
1	6207	1997.811034173666	2069
1	6212	1998.689807930135	2070
1	6213	1999.343338594089	2071
2	0	0	0
3	2	1.303819630224	0
3	9	3.616868505871	2.221329345032
3	10	3.736807182632	1.420933590138
3	11	4.235850617536	0.65823550973
3	14	6.617940257851	0
3	17	8.359532376177	0
3	20	9.48906474481	0.975012598799
3	23	10.502144048239	0
3	26	12.14907165559	0
3	31	12.923316168829	0.678580764193
3	32	14.485866256579	1.789808287928
3	35	15.408044047468	0.167466863157
3	38	15.463472281042	0.016415908433
3	41	16.117257741682	0
3	44	16.901194309626	0.483977788825
3	49	17.995881691557	1.048665415202
3	50	18.79075539539	0.849928969192
3	53	19.57729346666	0
3	56	19.68770765264	0.077311363638
3	59	22.024375204028	0
3	62	24.966226821841	0
3	65	26.354850479952	0
3	68	28.701578161912	0
3	71	29.491379295566	0.741255464622
3	74	30.182453531723	0.63353272332
3	77	30.651307985431	0.206269667435
3	80	30.6644492009	0
3	89	33.312044610079	1.202350845286
3	90	34.058894589473	1.685192527337
3	95	35.87783271385	2.87883379862
3	100	36.854533244012	3.853165550498
3	101	37.029858740443	2.444044482462
3	104	37.4473100275	2.605240600348
3	107	38.172285596015	2.285304006166
3	108	38.252551860686	1.89501731254
3	113	38.934035397883	1.744530715668
3	116	40.860760632037	3.068417904379
3	123	41.837247225007	3.357309712111
3	126	42.731190676117	3.968785223688
3	133	44.85020878283	4.479133256775
3	138	46.251254486207	5.26375837727
3	139	46.293325436916	5.18468467805
3	140	46.511954489145	5.167076106226
3	141	46.627801237321	4.361785492231
3	148	48.196327602653	4.81895202156
3	149	48.295897497553	4.642424517753
3	154	48.47659991406	4.222068020738
3	157	48.839557450323	3.689556511652
3	166	49.87694572956	3.828776862421
3	171	51.178257099505	3.945224784339
3	172	51.54066640033	3.911606177189
3	179	54.352411617338	6.194505010504
3	184	55.090287394431	6.67879030973
3	187	55.414234701814	6.973514358108
3	188	56.156612620254	7.473033101532
3	189	56.677326518345	7.625393889094
3	196	57.298320745033	8.058026551568
3	199	57.456045526389	7.822698065316
3	200	58.31838798532	8.662100150555
3	203	60.180993337544	10.1110736643
3	204	60.685762184491	9.624103377185
3	205	61.839463898355	10.1991470126
3	206	62.584430908745	10.186080239629
3	207	62.761807093122	8.650993100163
3	208	63.458678272602	9.06895423845
3	209	63.822847427646	9.298180311442
3	210	64.581874999494	9.313129240807
3	213	65.306120567042	8.625167779556
3	214	65.668717354562	8.796328406688
3	215	65.701453511514	8.771548634763
3	216	66.258192121405	8.909834531153
3	225	67.650868741188	8.690917854136
3	226	67.990183247648	2.722241343238
3	231	68.808107553397	2.423060541137
3	232	69.087847620798	2.438266019069
3	233	69.103305616143	1.685457926635
3	234	69.192318618637	1.748725463435
3	235	70.504394560414	1.917190200443
3	240	72.624775711842	3.874189813751
3	241	73.039986482424	1.122453089317
3	242	74.473419764585	1.895817044629
3	245	74.767964542977	0
3	248	75.204552562845	0
3	251	75.705292507795	0.141645944903
3	254	76.584656981012	0
3	257	79.792965610861	0
3	260	82.129155573993	1.792474222754
3	267	82.742417332501	0.540231907516
3	270	83.901825874416	1.492604299128
3	271	86.110880269307	3.523851070973
3	274	87.654144700976	4.63361403869
3	279	89.327710093439	1.678057133243
3	280	90.02742391344	1.719524347534
3	289	91.143125043354	2.731702544096
3	294	93.244636138753	3.213678396403
3	297	93.745021243636	3.476418388366
3	298	94.393753182803	3.609607373473
3	299	95.367401384521	4.545053008146
3	306	96.290183799119	4.891594149515
3	307	96.32177656265	4.770654585797
3	308	96.488612718402	2.873595249997
3	311	97.399413695253	1.664361406007
3	314	97.47122978112	1.517473143599
3	315	97.905605338447	1.8041031835
3	316	98.546229871727	1.165612772932
3	333	100.411498817735	2.978120685425
3	334	100.679684295869	2.106371156252
3	339	103.002376351813	4.260527739136
3	342	104.730772630907	5.758978186697
3	351	107.750365687307	8.086829567018
3	352	108.610228695873	8.860030949888
3	357	109.305514643459	9.244076570067
3	358	109.544441137056	9.250687195259
3	371	112.507011795241	12.193020525492
3	372	112.794730816622	10.449370551233
3	375	113.502728998646	10.718318464475
3	376	114.077479156827	10.030932675166
3	377	114.399476370935	8.953393640252
3	378	114.72740351299	8.179792431338
3	379	115.243288146144	8.365593004582
3	382	116.395321411128	9.006336078956
3	383	116.863720926827	8.24135110863
3	384	117.62743094592	8.924605793839
3	389	118.675037478034	8.643864594455
3	392	119.119833877522	8.826121237282
3	393	119.914441104182	9.584824232624
3	394	120.085130178102	9.53079943857
3	399	121.675707989457	9.752629091784
3	400	121.693022643171	9.593063457864
3	401	122.020638637187	8.764621380691
3	408	123.792333894973	7.596299554437
3	411	124.731223745153	7.011624006058
3	412	125.553457682127	7.545316034646
3	415	125.987318695295	7.225552141558
3	416	126.565901502379	5.472611153372
3	417	126.749092534273	5.202160456652
3	418	126.961268330727	3.939984883702
3	419	126.993621294247	3.836864993465
3	426	127.555662471998	4.239967582461
3	427	128.283751734222	4.489953141442
3	432	129.124504923896	3.172824968234
3	437	131.374976148336	4.320921282452
3	440	131.800616339009	4.66853642381
3	445	134.494072662123	7.068730526062
3	446	134.645377209496	6.130098202122
3	449	136.112885448167	7.187325090292
3	452	136.537900310113	6.612206969541
3	455	138.615935266543	7.371028544972
3	458	139.05952573914	7.431575752059
3	459	139.761475432143	6.982013906265
3	460	140.00168226501	6.623082479707
3	461	140.421411678723	5.583096806347
3	462	140.912395027377	4.528180872843
3	467	143.714957743209	6.933672190739
3	468	143.870040931194	5.055579422526
3	469	143.929277044552	1.83407633064
3	472	144.550920180994	1.209910450498
3	475	145.481028787923	1.331083383569
3	476	145.818835608683	0.975757992339
3	479	146.709973928001	0
3	482	150.126696006766	0
3	487	151.342772851427	0.623753454018
3	488	151.490658552961	0.364292685318
3	491	152.023462741272	0
3	494	152.338149656364	0
3	497	153.068026332262	0
3	500	153.893329132909	0
3	503	155.569178757885	0
3	506	160.570580466737	0
3	509	161.901633363934	0
3	512	164.111089427303	0
3	521	166.998348059028	2.337339312712
3	522	167.458146833949	2.663823554169
3	523	168.71682390396	2.43377308446
3	524	168.774428359846	2.004440386705
3	527	172.706003458556	0
3	530	173.257587373212	0
3	533	174.013128409594	0
3	536	174.208841645828	0
3	539	175.471322618739	0
3	542	176.006358328872	0.523839133907
3	545	177.311530476026	0
3	548	178.788538307994	0
3	551	181.975755153654	0
3	554	184.995201536264	0
3	557	185.997080242382	0
3	562	187.48720980687	1.196521994209
3	563	188.121723387859	1.826657101706
3	566	189.529425660222	0
3	569	189.825599594928	0
3	572	191.311955373138	0
3	575	191.694760657236	0
3	578	193.494580185566	0
3	581	194.480041703272	0
3	586	196.525171023107	1.370797862607
3	587	197.165551357564	0.94648660036
3	592	199.656200913555	0.661867086271
3	595	200.074307411738	0.485873808119
3	598	201.061815472893	1.015457382373
3	601	201.415667350653	1.090648045806
3	612	203.01394092227	1.923196975073
3	613	203.501318127978	1.774693756682
3	614	203.960609599706	1.365055221705
3	619	204.715194696657	2.0901757712
3	628	205.237425221014	2.337930877358
3	629	205.462248617137	2.541695277125
3	630	205.510264575429	1.053266474734
3	633	206.490088318628	1.928578532085
3	634	206.852535812003	2.090703142984
3	635	208.017106402804	3.249596927739
3	638	208.340485965007	3.412635302761
3	641	208.582261550235	3.380155232153
3	642	209.263248542952	3.069943496637
3	643	210.603044117788	2.40662418226
3	648	211.398692073304	2.998984488174
3	649	212.335488206279	1.551030058068
3	650	212.640038629399	1.4861692237
3	653	214.370176538742	0
3	656	216.292331821053	0
3	661	217.190502547528	0.782700734562
3	664	218.191375468509	1.694764726193
3	665	218.343270996365	0.62933457533
3	670	219.346703916731	0.749511576891
3	671	219.858689916857	0.71942468394
3	674	220.058975746247	0
3	677	220.625493915272	0.426393763773
3	680	221.081382373992	0
3	683	221.998983966789	0.432189994859
3	686	222.890300364736	0.611746827666
3	689	224.909381185819	0
3	692	225.31910461453	0.09809619315
3	695	227.085175116465	0
3	704	229.813196245696	1.406589817693
3	705	230.395686749318	1.484236721833
3	706	230.793500217755	1.518040206186
3	707	230.858858212569	1.071170368329
3	712	232.157546103076	0.771604730751
3	713	232.659422238299	0.697775484213
3	716	234.440762198351	0
3	719	235.425358518682	0
3	722	236.011653716302	0
3	729	237.341934908631	1.01744063426
3	730	237.624668891375	1.124489526362
3	731	237.766843928152	1.058360555103
3	734	240.415973988947	1.446125143647
3	737	243.386469599578	1.839546064276
3	740	244.283275832026	0
3	743	247.044322687606	0
3	746	249.815773947288	0
3	749	250.891922370325	0
3	754	251.692191344935	0.725168211354
3	755	252.380043713739	0.951902059625
3	760	253.374925934379	0.309551858751
3	761	254.463967048888	1.135104674756
3	764	255.972226404691	0
3	769	256.906622377421	0.285601884142
3	770	257.522597358735	0.649597706458
3	779	258.346633661173	0.753009017896
3	782	258.808828758514	1.130340388896
3	785	259.333961739649	1.44686015441
3	786	259.349201585673	1.219988377811
3	787	260.712599578138	2.16099480513
3	788	260.769199577094	1.513656909239
3	791	261.318556588506	0
3	794	261.851211770338	0
3	797	264.689414116151	0
3	800	266.294502546887	0.254647826452
3	803	266.766049106744	0
3	806	268.462828983453	0
3	809	269.523502188403	0
3	816	270.852502265977	1.127865863906
3	817	270.888601511543	1.155377317683
3	818	271.206582734649	0.555802498886
3	821	272.513238965752	0
3	830	274.591945858607	1.567066001812
3	831	274.808826135494	1.297150664162
3	832	274.873323579345	0.931961199632
3	839	277.122835110082	2.994161937308
3	842	278.048811340053	2.297620394648
3	843	278.844969448241	2.674532244224
3	844	279.170353991724	2.601118837864
3	849	279.776351461232	1.858384589904
3	852	281.22458790832	1.788061608812
3	853	282.319083820008	2.869248102392
3	854	282.443127290496	2.49753466789
3	857	284.969754221174	1.231962833149
3	860	286.649024226098	0
3	863	287.983198487941	0
3	866	288.686223966865	0.052422737077
3	869	289.571599991662	0
3	872	290.498189571046	0.156273605298
3	879	291.877682416069	0.638922577293
3	882	293.43759410465	2.007468684227
3	883	293.598704731316	1.874192979446
3	886	294.713995724965	2.505465307086
3	887	295.249968900307	1.144411365648
3	890	297.587660481413	0
3	895	298.43575204902	0.65049502973
3	896	298.478016011326	0.673931096048
3	899	299.49357069642	0
3	902	301.395045507541	0
3	905	302.311227339626	0
3	908	302.950190155936	0
3	911	303.8185588082	0.493636607054
3	914	304.905971565148	0
3	927	308.058031582613	3.022340967525
3	930	308.968082519797	3.508895053733
3	931	309.105128509194	3.584448022767
3	934	309.802931936608	3.548279958879
3	935	310.121680215231	3.782465213286
3	938	310.920637154278	3.957233722558
3	941	311.946070673769	3.84504139049
3	946	313.256066623402	4.034179817111
3	951	314.030257633366	3.232943727924
3	952	314.037836777625	2.213632927854
3	953	315.218818624896	3.204413481998
3	958	315.937770424751	3.669063736713
3	963	316.970193114086	3.621582609641
3	966	317.016473392076	3.051504257202
3	967	317.551593673718	1.783983387727
3	968	317.753186728292	1.828846289462
3	969	318.065873170831	1.898451365383
3	970	318.133918086584	1.707569884782
3	971	318.362231487344	1.345855726471
3	974	319.450041083421	0
3	977	320.266172641649	0
3	980	322.10589293666	0
3	985	323.226284777856	0.358728608504
3	990	325.740253441883	2.534665455702
3	999	328.947786345337	4.659045567214
3	1002	330.260252737514	5.306812442996
3	1007	330.846814005604	5.031906214808
3	1008	331.018235974152	4.328906841011
3	1009	332.043709409969	4.482126049932
3	1010	332.47146215228	4.033550275628
3	1013	333.560559706874	4.374822756167
3	1016	334.334817147388	3.733089334894
3	1017	334.373445156398	3.63911174286
3	1020	335.317102551512	2.197579307115
3	1023	336.15934936401	2.309818210017
3	1026	337.151621650086	2.247235392058
3	1029	337.896469122794	1.990540451044
3	1032	338.434229120915	1.688365630229
3	1033	338.855265856955	1.108736242171
3	1034	338.881810636585	0.634693581248
3	1037	339.226825528041	0
3	1040	340.317739972068	0.702447087335
3	1043	342.891786002757	0
3	1046	345.424154377089	0
3	1049	346.028809639416	0
3	1052	346.864862122928	0.72862845985
3	1055	348.284438212739	0
3	1058	351.516974239184	2.610515716555
3	1061	352.193313788802	0
3	1064	353.852814313469	0
3	1067	359.351406431302	0
3	1070	360.53890422689	0
3	1073	361.30722589087	0
3	1076	364.518259124152	0
3	1079	366.381260667009	0
3	1086	367.210262658419	0.39079525852
3	1087	367.435455788087	0.602987870128
3	1092	368.377450048694	1.310664991364
3	1095	369.046467196426	1.090040789403
3	1096	369.956954685085	1.847593815184
3	1097	370.362325933549	1.802273978226
3	1100	372.106181238559	0
3	1103	372.578232495079	0
3	1106	377.921184490357	0
3	1109	378.309550953238	0.128885574096
3	1112	379.536964104563	0
3	1115	381.600692782695	0
3	1118	382.194687396306	0
3	1121	383.528527642573	0
3	1124	384.5570317033	0
3	1127	385.523631707934	0.77692441644
3	1136	388.158802140569	2.466028110522
3	1137	388.163255095203	1.724843233659
3	1140	388.905843632111	2.436649213671
3	1141	389.286448393035	2.248258957262
3	1142	389.744111479541	1.004729876907
3	1145	394.734357642079	0
3	1148	396.143831668528	0
3	1151	397.35678807116	0
3	1154	398.261747346891	0
3	1157	399.314357695119	0
3	1176	403.383164650504	3.916280474574
3	1179	405.77431335885	6.187682921917
3	1184	406.258129282173	6.169375130245
3	1187	407.628471163059	7.498689979198
3	1188	408.087697207161	7.043248542421
3	1189	408.203069457729	6.912580129972
3	1192	409.15907748395	7.530480821984
3	1193	409.233887193016	7.555405527708
3	1198	410.70156690705	7.478246742012
3	1201	411.172708728081	5.568335014951
3	1212	412.993561659858	6.993577501941
3	1215	413.876148299244	7.786888935326
3	1218	413.966572656025	7.375134610477
3	1219	413.985886989308	4.95258839223
3	1220	413.995846766271	4.115783723934
3	1229	416.126832505339	5.730566850775
3	1234	417.302059417199	6.176980113757
3	1237	417.391532624089	6.200042585463
3	1238	417.477874598707	6.267943282034
3	1239	417.748920618209	5.95788636405
3	1240	418.877317600096	6.774251747417
3	1243	418.907481184931	6.583254794587
3	1244	419.945424332791	6.713041100823
3	1245	420.337346857883	6.45507729364
3	1248	421.224680919708	7.064854088624
3	1249	421.519176808621	6.527559866509
3	1254	421.890810742277	6.815183688039
3	1261	422.878885199675	7.187018416087
3	1262	423.92445785627	7.426444197228
3	1263	424.419643387112	7.52617720077
3	1266	425.172343981188	7.849980509424
3	1269	426.44270584181	7.560586044253
3	1270	427.138246219716	6.136083752809
3	1275	427.992404436182	6.338983167985
3	1278	428.333120929303	6.556795684259
3	1279	428.555943436034	6.357171287559
3	1280	429.656664272763	7.407190301092
3	1285	431.137116729342	8.631509238428
3	1286	431.226581275114	6.615185459272
3	1287	431.727458350294	5.9444963877
3	1288	432.233205405445	4.958908357391
3	1289	432.345017360671	4.895558150182
3	1292	433.093322933398	4.763152664941
3	1297	435.517399788304	5.046768491228
3	1298	435.88769466816	4.786840411854
3	1305	436.345647114358	3.925251643488
3	1310	437.815648084997	3.359460828109
3	1313	438.476377516613	3.906623027812
3	1316	438.889571938903	2.985466092602
3	1319	441.109102913858	4.969127362057
3	1322	441.752189190278	5.520256205999
3	1325	442.33507578856	5.286670142204
3	1326	444.398796905416	6.988870338581
3	1327	444.768346337341	6.383476863012
3	1328	444.821367713971	6.316970769899
3	1329	445.199145972139	4.249802971977
3	1332	446.383394603227	5.191425168688
3	1333	446.826187932915	4.602977876582
3	1338	448.001313428126	2.548239864202
3	1341	449.064287572547	1.874279192886
3	1342	449.086436973352	1.681020663719
3	1347	449.870863561329	1.540392494551
3	1348	450.095536176614	0.886794659987
3	1351	450.34232468358	1.113160414489
3	1352	450.655905538468	0.534063042392
3	1355	454.546172511716	0
3	1362	455.695134110921	1.009044766252
3	1369	456.842685051745	1.971194408092
3	1370	456.916070981312	1.546796291524
3	1371	457.040347000465	0.446805505437
3	1372	457.294351913816	0.513881560697
3	1373	457.522128224702	0.715513281396
3	1376	458.732138524844	1.116575887858
3	1389	462.392855361749	3.575919796456
3	1390	462.620254783963	2.306720540448
3	1393	462.892057535397	2.145876050676
3	1394	463.73284916823	2.591008498536
3	1397	464.228417112338	2.703628277264
3	1398	464.272602665396	2.086716434011
3	1413	466.68539160084	3.878221940788
3	1414	467.393754851799	3.5680951045
3	1415	467.94360202195	3.441350558628
3	1416	468.094473207896	3.566771234712
3	1417	468.671741745235	4.090069233352
3	1418	468.699537410959	3.949084420734
3	1423	470.698321933618	5.739491803068
3	1424	470.808668265591	5.496043669119
3	1425	471.17252228909	5.847870302496
3	1426	472.162889999609	3.253116251171
3	1435	474.023948526471	4.020499697073
3	1440	476.93658154979	4.419321277743
3	1443	477.108543976233	4.531258977789
3	1446	477.281711286035	4.344018829023
3	1447	477.340183726689	3.805199941168
3	1448	478.187964299456	1.66602423365
3	1449	478.585200353611	1.824537996349
3	1450	479.988479172496	3.050204752504
3	1465	485.719811276033	8.508143961281
3	1466	486.064925398776	6.054563248368
3	1467	486.160831708556	5.968673343753
3	1468	486.229751416374	4.954769186286
3	1469	486.372438832607	3.376354522885
3	1470	486.886023543573	3.499834982869
3	1471	486.997556026804	3.186480288367
3	1474	487.690461382287	2.550550180316
3	1475	488.944709731709	1.853811178524
3	1478	489.60071898112	0
3	1487	491.282625726504	1.494313152547
3	1488	491.583210247665	1.381244660879
3	1489	493.34791188901	2.869036263651
3	1490	493.350238111101	2.29163749142
3	1493	494.495564462582	0
3	1496	496.153174958227	0
3	1499	496.583925525944	0.094294413045
3	1502	496.887475933442	0
3	1505	497.157187146864	0
3	1508	497.48777753278	0
3	1511	499.162883048874	0.13849029681
3	1514	499.438849369717	0
3	1517	500.347367192519	0
3	1520	502.35760340143	0
3	1523	504.107249206376	1.539906733542
3	1526	506.355754888156	0.679615136485
3	1529	508.098471457088	0
3	1532	510.3625055719	0
3	1535	510.46935694021	0
3	1538	512.717831954907	0
3	1541	513.212305953568	0.389911773547
3	1544	514.330557775733	0
3	1547	516.822519543127	0
3	1550	518.280414425758	0
3	1553	518.550149996746	0
3	1556	519.189656942718	0.055217726667
3	1559	519.55324174324	0.244547990992
3	1562	520.359326978905	0.519141518586
3	1565	520.685257423322	0
3	1568	522.300419428176	0
3	1575	523.613037560007	1.309961896156
3	1576	524.556419871011	2.065390391908
3	1579	525.19979430998	2.664278631839
3	1580	525.206464565446	0.500725034764
3	1583	525.751803677174	0
3	1586	527.563106461022	0
3	1589	527.895274592869	0
3	1592	528.216698888298	0
3	1595	528.510025220715	0
3	1598	529.769995675674	0
3	1601	531.055837440173	0
3	1610	534.095248155063	2.321895860589
3	1613	535.625571902013	2.931592633841
3	1614	536.548632311809	3.205498061385
3	1615	536.714580395848	2.805486895623
3	1620	538.315991489122	2.98815443631
3	1621	538.564671393784	0.85827822362
3	1622	538.620856378715	0.623691707286
3	1625	539.599732538401	0
3	1628	540.255323853425	0
3	1631	543.927015112955	0
3	1634	544.463363576147	0.096007638425
3	1641	546.513484086575	1.927971807184
3	1642	546.954005580702	1.758210703123
3	1643	547.557209962141	1.533584005299
3	1646	548.459893542764	0.683281422295
3	1651	549.68220582944	1.052098395807
3	1652	549.724416490611	0.91749549376
3	1657	550.615702980265	0.621549932816
3	1662	551.0886640641	0.605703680026
3	1663	551.331048769597	0.539995451058
3	1668	553.314514551762	2.294169914101
[...]
4	4738	1551.098818939938	6.012998341479
4	4739	1551.210076886434	2.375824040591
4	4742	1552.476042674184	3.583192438105
4	4745	1552.851978428316	3.054121831689
4	4750	1554.956140455569	4.501766372781
4	4751	1555.499896993137	4.833061997323
4	4756	1556.742631594627	5.129541649581
4	4757	1557.256770648477	4.536137969052
4	4762	1558.516392975304	4.74425783953
4	4763	1559.457824843041	4.74066813199
4	4764	1559.822705836373	4.302442193753
4	4765	1560.530022508117	4.401101326342
4	4770	1561.512386033293	4.178324626987
4	4771	1561.724719690612	3.417210962449
4	4772	1561.85856369231	1.239317953595
4	4773	1562.157197236848	1.302575566379
4	4776	1563.723867659437	0.191384890055
4	4781	1564.89651391672	0.627439485713
4	4782	1566.178971684795	1.541072277137
4	4787	1567.14374741068	0.831756784185
4	4788	1567.559440922229	0.722813309813
4	4791	1568.502759497874	0.310783739839
4	4796	1569.412574153736	0.482140771833
4	4797	1569.936298825912	0.543722422889
4	4800	1570.897489955002	0.764959814766
4	4803	1571.752178539421	0.664920547007
4	4806	1574.536388769942	0.882746237039
4	4815	1576.163182662823	0.858119454079
4	4816	1576.197467093227	0.70693351367
4	4817	1576.404265605935	0.545791565215
4	4818	1576.491717645991	0.567786506213
4	4821	1578.521274583415	1.442917102261
4	4826	1580.766100647385	1.151955237797
4	4829	1581.048115748612	0.711142353845
4	4830	1581.26236231115	0.482710794573
4	4833	1583.287340921165	0.30886891741
4	4836	1585.292227036719	1.267883957716
4	4839	1586.389117048917	1.001269001799
4	4842	1587.479213353979	0.788892471646
4	4845	1591.835052339306	1.3260628634
4	4850	1592.816921755174	0.737170362532
4	4853	1593.019921802567	0.535807806193
4	4854	1593.262181374345	0.362768317381
4	4857	1593.510222057932	0.016751507904
4	4860	1594.925340871566	0.336270057162
4	4863	1595.240082908413	0.052051760469
4	4872	1596.377230623786	0.771212823965
4	4875	1597.462895173187	1.805493220363
4	4876	1597.715393493728	1.823795386786
4	4879	1598.945048288662	2.740238434255
4	4880	1598.976156123499	1.553920851995
4	4881	1599.286035288949	1.118106267037
4	4884	1599.718042629972	0.386007066988
4	4887	1604.114455738715	1.274624554317
4	4894	1605.292873980766	0.929233539217
4	4897	1606.339815866467	1.532171524844
4	4900	1607.081574723144	1.933620933527
4	4907	1608.63719456672	2.928440090601
4	4908	1609.436682859018	2.940348213965
4	4911	1609.660758372657	2.396340639592
4	4912	1610.901264906329	3.505391268418
4	4915	1611.405517953982	3.121889368375
4	4916	1613.495361165271	3.877563759866
4	4917	1615.300535463382	3.916247857537
4	4930	1620.51044539819	3.512195777173
4	4931	1621.219875444056	4.19782843516
4	4934	1621.415675906765	4.086865903881
4	4935	1621.467882853409	3.149018251401
4	4936	1622.926189961845	3.704306726965
4	4943	1624.779425503011	4.303028340893
4	4946	1626.69205608023	5.415604390183
4	4947	1626.878113967327	3.512767477912
4	4948	1627.003384224313	3.424549409012
4	4951	1628.1184692805	3.756807810293
4	4952	1629.600582897185	3.772151334333
4	4953	1630.129355232414	2.969495870578
4	4958	1630.949044803724	0.149068162914
4	4961	1631.289396920098	0.390211430155
4	4962	1631.465394401511	0.427871677255
4	4967	1633.293243873539	1.396365875446
4	4970	1634.543045287274	1.850612901601
4	4971	1634.739417672148	0.707339747264
4	4974	1635.747712665582	0.264950065334
4	4977	1636.9555579025	0.173804660693
4	4982	1638.794433374489	0.294285026448
4	4983	1638.982871174599	0.308623148379
4	4988	1640.571359329744	1.116121231879
4	4989	1641.161614703249	1.152840302476
4	4996	1643.735650605395	1.078818406582
4	4997	1644.596782411543	1.414667699242
4	4998	1644.823590467118	1.18317365003
4	5001	1645.471658055866	0.59098762942
4	5006	1647.876840886355	1.696619545726
4	5007	1648.254988616066	0.644438816365
4	5010	1648.504455104972	0.048563752892
4	5021	1651.960086600808	2.425193848937
4	5024	1652.281318895426	1.843765884964
4	5027	1652.457356588098	1.763113005866
4	5030	1653.012409435585	1.330929961357
4	5031	1653.689197417006	1.949655318928
4	5038	1657.841497295966	5.727375217738
4	5047	1660.012684550733	7.558023420071
4	5056	1661.5936493965	8.910248734973
4	5059	1662.231674145883	6.865301678948
4	5060	1662.243182348317	6.296991748364
4	5061	1662.682366924225	5.29345478001
4	5062	1662.771461435864	4.908180144574
4	5069	1664.870549060164	6.677230230072
4	5074	1665.408328652661	6.764923211825
4	5093	1671.800344213689	12.576009585719
4	5096	1672.287877649466	12.246347199722
4	5097	1672.696517870304	12.470011288806
4	5100	1672.974667582607	12.066465499102
4	5115	1675.812033037379	14.415045988359
4	5116	1675.846268243777	13.638165312744
4	5119	1676.476228276892	12.828235024669
4	5122	1677.175863339343	13.286005790637
4	5123	1677.921326776991	13.404681040273
4	5124	1678.281930560821	13.348923111966
4	5125	1678.474968307177	13.208735632823
4	5126	1678.509143401021	12.049512440449
4	5129	1679.403874227859	12.112493075913
4	5132	1679.568532565204	11.991813438468
4	5133	1679.657616562009	11.988163464426
4	5134	1680.003845380797	11.61020703571
4	5139	1680.200422128873	10.752273339096
4	5140	1680.406129942033	9.544156748869
4	5143	1681.90205199025	10.49074383212
4	5148	1682.798507013536	11.197133568386
4	5151	1684.188324577362	11.986331088803
4	5160	1684.444492857756	11.530698505856
4	5163	1684.864477826114	11.528523702164
4	5164	1685.053980488716	11.705355256691
4	5169	1687.161293185178	13.418036739437
4	5174	1689.695490461794	15.582887886192
4	5175	1689.789848801034	14.529725252597
4	5176	1689.987097742873	14.698732577
4	5179	1690.96868860545	15.261195384504
4	5182	1691.771348087706	15.884178281264
4	5183	1692.648226718024	15.797578590729
4	5184	1693.276509642755	14.493011367968
4	5185	1693.786797558533	14.249312442498
4	5192	1694.745621842983	14.556907876773
4	5193	1695.618653762955	15.418494257222
4	5206	1698.479962937014	17.627664454867
4	5209	1699.044884223461	17.045359721729
4	5210	1699.365492023737	16.730006586852
4	5213	1700.501707660586	16.669762792696
4	5214	1700.735390743593	16.530831012531
4	5215	1700.765846342532	16.474578075379
4	5216	1700.873038478924	16.555775097797
4	5217	1700.89128213015	16.545486045846
4	5220	1701.313323613923	16.59920347636
4	5221	1701.313946314032	15.632249000625
4	5228	1702.002876413324	15.387063423944
4	5235	1704.632128531979	16.391595707457
4	5236	1704.827606431844	15.923485376641
4	5239	1705.143113769948	14.853522147148
4	5244	1706.010292287183	14.274418427186
4	5245	1706.610711847627	12.158145241523
4	5246	1706.612625864854	12.100442237814
4	5249	1707.563251890317	12.844724952167
4	5258	1709.097779886458	12.821299311848
4	5259	1710.174467344848	13.893586028145
4	5262	1710.988705922053	13.782983539293
4	5265	1711.923238394852	14.564390516916
4	5266	1712.432489849952	14.947517504548
4	5269	1714.493822093318	16.489679785656
4	5276	1716.014721859006	17.345309338751
4	5277	1716.425739030404	16.449212064713
4	5278	1716.563401305045	15.374312868229
4	5281	1717.080450820256	15.556261819822
4	5290	1718.228215439177	16.685408607453
4	5291	1719.267874358993	17.266271436483
4	5298	1720.353538731111	18.089442905428
4	5299	1720.999643557143	18.30847846382
4	5300	1722.327673768533	19.400865646603
4	5301	1722.934139942637	17.884768086681
4	5306	1724.357095900492	18.834314551696
4	5307	1724.36167908503	18.734624113489
4	5308	1724.55882515944	17.82822634865
4	5313	1725.743581408618	17.704173511306
4	5320	1730.441414011495	22.180078937466
4	5321	1730.849365118393	22.427811769057
4	5324	1732.313381340347	23.262039815616
4	5327	1732.442835465853	21.544847264436
4	5330	1733.470754965371	22.082843504898
4	5331	1733.50033267896	19.358352739251
4	5332	1734.029497020184	19.095876425566
4	5333	1734.062914209509	18.283409305361
4	5348	1738.054311043227	22.261197407096
4	5349	1738.197803357177	21.369230458283
4	5350	1739.101000087073	21.87578063115
4	5351	1739.401601204643	22.157316312165
4	5352	1739.943738417946	21.918025295839
4	5355	1740.634866801081	22.480091149927
4	5358	1740.984766474058	21.594524249518
4	5365	1742.166397438516	22.581087348314
4	5366	1742.797701987725	22.962184788439
4	5367	1742.86349933843	19.545727930024
4	5374	1744.749322131711	20.402319785978
4	5375	1744.958040758627	19.590281807075
4	5380	1745.539800187647	20.079832713328
4	5381	1745.612827238646	19.410900575328
4	5382	1745.758250482125	18.381388912419
4	5385	1745.864746705592	17.867046783581
4	5388	1747.372679371395	16.225161414995
4	5389	1748.074536771778	15.707254452713
4	5392	1748.363978896606	15.103462675894
4	5395	1748.784531885943	14.334762565061
4	5402	1751.59860975844	16.27049217515
4	5403	1751.671354428213	15.419799117387
4	5406	1752.65780479205	16.384357328024
4	5407	1753.226170701559	16.502254295731
4	5410	1755.982783973878	18.21909678478
4	5413	1757.843334697355	20.071404942875
4	5414	1758.492611981802	17.885472659956
4	5415	1758.944246990088	18.17746053841
4	5416	1759.864767797381	18.771490017148
4	5421	1761.150846440757	19.805903752465
4	5422	1762.551030295455	20.558725646757
4	5433	1766.585835392545	23.501596171711
4	5438	1768.206365506609	24.724524959971
4	5441	1768.568146037328	24.507366538409
4	5442	1768.927510902069	23.63916846024
4	5443	1769.061737759937	23.750483000079
4	5448	1769.398877527027	23.554623587432
4	5453	1770.684237106841	24.488850411237
4	5456	1771.564344364633	23.398715104206
4	5457	1771.935695075897	23.175523335064
4	5458	1772.144489841004	22.954151371272
4	5467	1772.866849316646	22.401352776266
4	5468	1772.945381633915	22.09107379228
4	5473	1774.590632081638	22.615122051236
4	5474	1774.655338937671	20.809157247435
4	5479	1775.575219089525	18.375230693335
4	5480	1775.974655636607	15.791365690009
4	5481	1776.51302585969	15.802130790799
4	5482	1777.035516115216	13.427601567949
4	5483	1777.039793303803	13.313577057885
4	5484	1777.162435224269	12.7859852175
4	5485	1777.24653043561	12.6389146876
4	5486	1777.689008745351	12.874407276972
4	5487	1777.829201419322	10.704415789439
4	5490	1778.786714843682	11.517702977919
4	5491	1779.536501123695	10.988553282082
4	5494	1780.657097276748	11.357536788157
4	5495	1781.842156578704	12.486699857709
4	5496	1781.917920882136	12.269236071679
4	5499	1782.653239357448	12.846874559193
4	5500	1783.140781580805	11.856624842074
4	5503	1784.09895828162	11.791286603688
4	5506	1786.211173442619	13.883943989314
4	5511	1787.691178266399	15.133478720997
4	5512	1787.727359564005	14.890356303655
4	5513	1787.79685402658	13.926532576167
4	5516	1788.518832098843	13.989772232806
4	5517	1789.286003911075	14.256929237231
4	5518	1789.689003558796	14.266319129672
4	5519	1790.208990281481	12.272003225396
4	5522	1791.656835696137	11.183534962374
4	5523	1792.016837467334	9.988064586405
4	5524	1792.727158640608	9.232658094204
4	5525	1792.776795557709	6.939703508713
4	5528	1793.517386977036	7.096332044879
4	5533	1794.275180908647	7.729944755359
4	5538	1795.483655463388	7.361234452698
4	5539	1795.524025994232	4.897049994067
4	5542	1796.137100227518	3.116649500353
4	5543	1797.291831372682	3.363061406697
4	5548	1799.678015601771	5.537698267189
4	5553	1800.501750076476	5.302982801169
4	5554	1800.531662050675	5.074497112797
4	5559	1801.076951114154	5.058506855703
4	5560	1801.227013335053	3.69804157968
4	5563	1801.442577269613	1.848382339172
4	5568	1802.81270193883	2.84595222417
4	5569	1802.890339695544	2.8827529844
4	5570	1803.725998178024	3.139027212602
4	5571	1804.46269808557	3.746714291206
4	5582	1805.652091310884	4.348060668132
4	5591	1807.349306225565	5.740611449486
4	5598	1808.276930730037	6.232019824642
4	5603	1809.984844741253	5.128545923278
4	5604	1809.986964662451	4.961224906545
4	5605	1810.094179527901	4.884698320922
4	5608	1811.364755878376	6.126538336315
4	5609	1812.53108147931	7.137276319438
4	5626	1815.87372688668	9.93547657561
4	5627	1815.896127078506	9.920767099446
4	5630	1816.455871418723	10.017782829068
4	5633	1816.983288682981	10.174403328372
4	5634	1817.077386842326	9.441675302315
4	5637	1818.62634709382	10.624649815616
4	5640	1819.329285707077	11.097844352969
4	5645	1820.317076188869	11.990411706615
4	5648	1820.966484841431	11.717875622185
4	5651	1821.494821808846	10.35533340746
4	5652	1821.677215199748	8.551720826025
4	5653	1822.310600102774	8.802921817515
4	5654	1822.780660255227	8.730301953894
4	5655	1823.058710850396	8.896166128696
4	5658	1823.810474275622	9.220664299425
4	5659	1823.973514618923	9.181366317821
4	5660	1824.20816792465	9.334245654722
4	5661	1824.402560372382	8.59302216666
4	5662	1824.664741337406	8.439403386722
4	5663	1824.895653299583	8.161421130919
4	5666	1825.988148735545	7.621226305694
4	5667	1826.39166420072	7.561652849292
4	5668	1827.338489599853	7.521386047351
4	5675	1830.584508306307	10.458498730945
4	5676	1830.997117969012	10.673755042461
4	5677	1831.347225075628	10.075194800039
4	5680	1831.686030725023	8.127694921092
4	5681	1832.236411090781	7.133398167201
4	5682	1832.373167702459	4.06791832324
4	5683	1833.436871651363	3.935755967098
4	5684	1833.79588843326	3.219493596435
4	5685	1833.894064692703	2.366881984952
4	5688	1835.055744894382	0.388251541146
4	5691	1836.415697428659	1.003116215596
4	5696	1837.218810535039	0.57523604738
4	5699	1838.542245756143	1.643587966097
4	5702	1839.067298044682	0.822334385257
4	5703	1839.334025734923	0.386028934112
4	5718	1843.084639495646	2.083792884602
4	5723	1843.646281709023	2.582205416274
4	5724	1843.983590775752	2.850594307182
4	5725	1844.457040601953	2.786198317625
4	5726	1846.385552930771	4.233274570624
4	5727	1846.506399076106	4.194390230415
4	5728	1846.527883223993	3.500549404137
4	5731	1847.95708905322	4.722973121611
4	5734	1848.316423629205	4.828803228195
4	5739	1849.780730144263	2.721737762706
4	5748	1851.212798383612	2.962217489724
4	5749	1851.242501735782	2.492240088489
4	5750	1851.318549423569	2.186385696428
4	5753	1851.924834170879	1.691095100695
4	5754	1852.253109307832	1.574442520238
4	5755	1853.029735297833	2.106947202597
4	5758	1854.056910467845	3.055968381543
4	5761	1856.685072764328	5.151561383491
4	5762	1856.719865396706	3.165452255552
4	5763	1857.825945740735	1.835916445871
4	5766	1858.349369484643	0.168931242298
4	5775	1861.188110622676	2.004442566028
4	5776	1862.094597089209	2.652550557904
4	5785	1864.090087850743	3.312781060172
4	5788	1865.0748053434	3.991738080437
4	5789	1865.726374874617	3.104449940503
4	5790	1866.050429054731	3.30085693134
4	5795	1867.026539317971	4.113061634602
4	5798	1870.100341421075	6.254124033658
4	5803	1871.985388914426	7.848331575811
4	5804	1872.182739779836	5.96101290333
4	5805	1872.210545101615	5.50180734604
4	5816	1874.580923882488	6.184033085395
4	5821	1875.361494813718	3.702797949503
4	5828	1878.2515950981	6.388194075997
4	5831	1879.410735433954	6.80616157379
4	5836	1880.868310052974	7.732185055911
4	5837	1880.974467473774	6.805377116706
4	5844	1882.519426868776	8.303791348606
4	5853	1885.583971393111	11.16624250202
4	5854	1885.741509441406	10.768808681414
4	5855	1885.776949189905	10.431008353683
4	5860	1888.564787531164	12.808136798253
4	5865	1889.341114067681	12.6359124716
4	5866	1889.683269033845	12.911311937041
4	5867	1890.123064602518	10.885873730175
4	5872	1892.71751628038	13.135003084776
4	5873	1893.100865014672	13.305218113833
4	5878	1894.539974772161	13.50120186382
4	5879	1894.650270446866	13.1928165255
4	5880	1895.770787744232	13.89860765167
4	5881	1896.204051827596	12.550612223062
4	5882	1896.542427474466	12.550492218015
4	5885	1896.992386863849	12.874942480692
4	5886	1897.260964705323	12.509904389251
4	5893	1900.150652780535	13.011358472689
4	5894	1901.12125055897	12.591931071912
4	5897	1901.804627861987	12.753157224523
4	5898	1901.829891458599	12.61516338135
4	5899	1901.98124886011	10.684450922692
4	5902	1904.887817159231	12.401341497687
4	5903	1904.974569356051	11.499502583991
4	5904	1905.122661118517	11.331599650234
4	5905	1905.828269005128	9.046617588717
4	5906	1906.981199308861	9.391909689811
4	5907	1907.720222602247	9.478968748697
4	5910	1908.925793055823	9.477843381927
4	5915	1909.772190211899	8.607073736184
4	5930	1913.385865975037	11.329389375981
4	5939	1917.868543769705	9.113464532525
4	5940	1918.630011507754	9.029147583704
4	5941	1918.852209378448	9.246616689697
4	5944	1920.657327907497	10.483169736983
4	5945	1920.783496917218	10.294160555254
4	5948	1921.41526869287	10.788993725962
4	5967	1925.155291392905	14.030925190265
4	5968	1925.273465112344	13.80076976251
4	5971	1927.291126210688	15.618854818876
4	5972	1927.339510300958	14.453167074888
4	5973	1927.688756275971	13.952003722812
4	5978	1929.694233274285	14.914720202742
4	5979	1929.882266954709	14.469193160888
4	5980	1930.060511744248	12.448948997079
4	5983	1930.430195201842	10.018911891586
4	5986	1931.651517157835	10.744368295456
4	5991	1934.126055489303	12.481176771762
4	5992	1934.168390257116	12.1399303038
4	5993	1934.59390878218	12.083561021037
4	5994	1934.672751490666	12.115947908358
4	5995	1935.623017757705	12.599592255756
4	5998	1936.511276802815	12.542632195107
4	6003	1937.711840235006	13.33587968779
4	6004	1938.161220014213	13.408990945244
4	6005	1939.112871621566	14.271898257322
4	6006	1939.51860537728	12.750998957411
4	6007	1940.038977668111	11.397498030739
4	6014	1941.719881867314	12.132084960817
4	6019	1944.596156258801	14.295270255363
4	6024	1946.154751942254	15.670065817466
4	6031	1948.172771767249	16.080688597335
4	6032	1948.179753718271	15.926720666258
4	6035	1948.503415655032	12.353194300781
4	6040	1948.820524086858	12.009340094354
4	6041	1948.831041608438	11.465871367701
4	6044	1949.605219852998	8.629149142671
4	6047	1950.004783385061	8.644477880207
4	6048	1950.942314259918	9.349179425269
4	6049	1951.016948366085	7.027506966868
4	6052	1951.387299483067	7.171128690696
4	6053	1951.455798968306	5.804267942929
4	6054	1951.932399189942	6.078439751456
4	6061	1953.09643554328	6.773656520169
4	6066	1954.983953727068	7.271139755064
4	6069	1958.319566337437	10.520890879756
4	6072	1958.75605388121	10.381552223066
4	6075	1959.023546534526	10.481852895142
4	6078	1959.898758477478	11.157543194504
4	6079	1960.205362051952	11.232171313838
4	6082	1960.808984463441	10.975230416836
4	6089	1962.752846053696	11.548039210221
4	6090	1963.204364394484	11.056377169923
4	6091	1963.285505492922	10.558786293952
4	6092	1963.321809826677	10.315218909705
4	6093	1963.403720714784	9.387004529617
4	6096	1964.756892255576	9.792411349133
4	6097	1965.346078414975	7.879683770908
4	6098	1965.642935185934	7.18846869639
4	6101	1965.763538994587	6.931196243954
4	6106	1967.021015448022	7.38005087063
4	6107	1967.210373070925	6.670036382349
4	6108	1967.873057659098	6.557674737999
4	6109	1968.260981922637	6.357778601747
4	6112	1968.525618874908	6.546629045459
4	6119	1971.293257127829	6.752947955828
4	6120	1971.472465888718	5.729399529561
4	6121	1971.935528528971	5.503102723164
4	6122	1972.09146093079	5.575137978808
4	6125	1973.308934675389	4.99356781223
4	6126	1973.316812211729	4.511553683456
4	6131	1974.124592390092	4.204650103975
4	6132	1974.20789585186	3.622675290863
4	6135	1974.854893546702	2.122155047105
4	6136	1974.869078423117	0.979644940684
4	6137	1975.496562676633	1.455572343167
4	6140	1976.74722205487	2.435155427822
4	6149	1977.791150625797	1.547453391016
4	6150	1978.760365811524	1.80290777904
4	6153	1979.436863875628	2.386322286253
4	6154	1979.471174272672	1.888682389569
4	6157	1980.546351338347	2.907339473556
4	6160	1981.594178043192	2.661548739431
4	6167	1984.208097965385	4.679645243407
4	6168	1984.361024205277	3.352387548411
4	6169	1985.231308914856	3.339429677587
4	6170	1985.351788412241	1.562198259917
4	6175	1986.077497425727	2.189363589761
4	6182	1988.246479580359	2.442443716754
4	6183	1989.042888358517	3.05010281367
4	6186	1990.416117043492	4.211894174196
4	6187	1991.283546025578	4.327317969518
4	6188	1991.388408398493	3.785599332303
4	6193	1991.85176845279	1.938460469474
4	6194	1992.114479830752	0.586057147923
4	6197	1992.770719145205	1.224983385576
4	6200	1993.823078033994	1.520100345009
4	6201	1995.528860338503	2.096035686317
4	6204	1996.58842669699	0.745659279503
4	6207	1997.811034173666	0.558800284468
4	6212	1998.689807930135	0.386622250485
4	6213	1999.343338594089	0.72928333496
5	6214	2000	1.0355
6	6214	2000	0

