version 2
run analysis_2kr_hard_game_mode-92-20230304-18:48:43-29459
attr configname analysis_2kr_hard_game_mode
attr datetime 20230304-18:48:43
attr experiment analysis_2kr_hard_game_mode
attr inifile omnetpp.ini
attr iterationvars "$0=30, $1=7.5, $2=10, $3=7, $4=0"
attr iterationvarsf 30,7.5,10,7,0-
attr measurement "$0=30, $1=7.5, $2=10, $3=7, $4=0"
attr network Network
attr processid 29459
attr repetition 2
attr replication #2
attr resultdir results
attr runnumber 92
attr seedset 2
param *.boss.arrival_mean 30
param *.boss.service_mean 7.5
param *.minion.arrival_mean 10
param *.minion.service_mean 7
param *.player.recover_rate_x 0
param **.minion.arrival_distribution 0
param **.minion.service_distribution 0
param **.boss.arrival_distribution 0
param **.boss.service_distribution 0

vector 0 Network.player minion_defeated_stat:vector ETV
attr source signal_minion_defeated
vector 1 Network.player minion_jobs_queue_number_stat:vector ETV
attr source signal_minion_jobs_queue_number
vector 2 Network.player minion_response_time_stat:vector ETV
attr source signal_minion_response_time
vector 3 Network.player minion_waiting_time_stat:vector ETV
attr source signal_minion_waiting_time
vector 4 Network.player boss_jobs_number_stat:vector ETV
attr source signal_boss_jobs_number
vector 5 Network.player boss_jobs_queue_number_stat:vector ETV
attr source signal_boss_jobs_queue_number
vector 6 Network.player minion_recovered_stat:vector ETV
attr source signal_minion_recovered
vector 7 Network.player boss_waiting_time_stat:vector ETV
attr source signal_boss_waiting_time
vector 8 Network.player minion_jobs_number_stat:vector ETV
attr source signal_minion_jobs_number
vector 9 Network.player boss_defeated_stat:vector ETV
attr source signal_boss_defeated
vector 10 Network.player boss_response_time_stat:vector ETV
attr source signal_boss_response_time
vector 11 Network.player minion_throughput:vector ETV
attr source signal_minion_throughput
vector 12 Network.player boss_throughput:vector ETV
attr source signal_boss_throughput
0	139	351.554767970451	29
0	140	357.507630585933	30
0	141	358.526252318027	31
0	181	446.65223479746	32
0	188	456.337638354442	33
0	206	482.571069166704	34
0	207	503.655119296405	35
0	208	509.211119247196	36
0	211	514.84836814609	37
0	212	523.333047903488	38
0	217	543.423768044118	39
0	220	546.843532613842	40
0	226	562.600197329774	41
0	227	568.424965698517	42
0	228	580.620571196027	43
0	229	587.763739574428	44
0	230	592.150911127302	45
0	237	602.288647359969	46
0	264	656.14889887037	47
0	265	667.547095480567	48
0	270	680.129953950043	49
0	286	712.120064260976	50
0	287	713.421304319248	51
0	288	713.999773151677	52
0	289	719.153394023554	53
0	290	719.510599834846	54
0	291	720.001075696538	55
0	300	740.370195027056	56
0	303	745.097066283352	57
0	306	752.436636517461	58
0	307	754.081970151479	59
0	324	789.731079661913	60
0	340	830.911516300091	61
0	341	833.385496055221	62
0	346	841.138303266764	63
0	347	843.088117183123	64
0	348	849.189872018803	65
0	349	863.6569776936	66
0	350	874.726926632643	67
0	355	891.298829296233	68
0	356	891.633608954404	69
0	377	923.682993373542	70
0	380	929.759835578695	71
0	381	932.742031680556	72
0	382	933.284065077353	73
0	387	937.643339099497	74
0	388	938.864396469719	75
0	400	979.225106759053	76
0	403	996.088548315757	77
0	408	1000.888715182979	78
0	411	1009.422472888872	79
0	412	1015.72822312451	80
0	418	1020.545757412559	81
0	419	1024.549149416679	82
0	429	1075.749182173103	83
0	436	1086.189440553906	84
0	437	1087.64169836774	85
0	463	1156.654767721554	86
0	466	1165.890986340442	87
0	472	1177.520664188845	88
0	488	1191.016849542576	89
0	491	1191.298629325129	90
0	503	1220.355430332684	91
0	504	1220.662008680969	92
0	505	1227.775830238357	93
0	506	1229.081099990404	94
0	507	1233.41644434633	95
0	508	1237.194114771876	96
0	509	1239.490997651086	97
0	510	1239.872630219058	98
0	511	1243.488388832571	99
0	512	1243.763730169274	100
0	518	1249.304073116106	101
0	526	1256.527986909592	102
0	529	1267.60578310729	103
0	533	1270.158063425081	104
0	534	1271.400287972584	105
0	535	1272.361909512046	106
0	538	1284.811723343039	107
0	541	1308.822328250289	108
0	542	1309.867829601969	109
0	543	1310.376468474215	110
0	544	1313.423432885381	111
0	545	1314.360409465343	112
0	563	1357.11192510057	113
0	566	1365.487115332869	114
0	567	1368.548476510904	115
0	580	1391.845388069327	116
0	581	1394.017500792335	117
0	598	1430.637068775491	118
0	599	1435.170203383017	119
0	600	1435.33213060218	120
0	604	1436.518938107635	121
0	619	1471.342190530967	122
0	622	1481.497369276072	123
0	623	1492.913503068109	124
0	624	1495.851927069354	125
0	625	1502.331045884352	126
0	626	1502.36306592882	127
0	627	1502.410148644684	128
0	630	1506.520471514132	129
0	633	1508.238889842192	130
0	637	1509.035720351126	131
0	642	1518.189786784911	132
0	643	1521.934973449331	133
0	644	1522.218836966974	134
0	647	1524.915955594232	135
0	648	1526.60382493579	136
0	649	1527.29320152089	137
0	650	1529.247745638984	138
0	653	1534.819722659417	139
0	654	1536.528860563394	140
0	655	1536.791117391523	141
0	656	1546.234963463885	142
0	659	1548.085522174802	143
0	672	1571.187752458193	144
0	680	1599.176111990407	145
0	683	1601.758393260959	146
0	684	1605.522398507339	147
0	692	1618.857898274528	148
0	693	1631.528149008391	149
0	694	1641.777921404084	150
0	695	1644.27313648667	151
0	700	1649.04632496688	152
0	701	1649.103573738567	153
0	702	1653.038981075493	154
0	703	1655.916514355321	155
0	704	1656.169959503858	156
0	707	1665.459954402176	157
0	712	1671.443992813743	158
0	715	1677.130921785084	159
0	723	1690.634086372048	160
0	736	1717.346714478362	161
0	740	1729.298254154217	162
0	741	1731.081078461592	163
0	745	1739.763166087787	164
0	746	1740.808914971808	165
0	752	1749.160921903979	166
0	792	1836.88633322379	167
0	795	1839.201135911304	168
0	796	1845.080472923997	169
0	797	1846.496594898346	170
0	798	1857.352282133856	171
0	799	1858.162598018535	172
0	808	1899.04607749634	173
0	809	1899.329129171938	174
0	810	1901.010127700952	175
0	811	1903.40065477405	176
0	815	1910.522712797568	177
0	816	1911.284030497318	178
0	817	1919.711394364708	179
0	820	1924.433067642198	180
0	829	1956.253163710165	181
0	830	1957.384533675596	182
0	834	1964.768332305014	183
0	837	1971.767782911061	184
0	838	1983.484961835223	185
0	839	1983.755923679418	186
0	840	1983.968229915472	187
0	841	1988.821771193548	188
0	846	2001.498268089106	189
0	847	2002.108952317328	190
0	853	2013.411493146241	191
0	854	2019.693102879258	192
0	855	2021.601432853828	193
0	860	2031.534197916919	194
0	861	2031.585384911107	195
0	862	2033.714657077036	196
0	865	2045.392085268634	197
0	866	2050.698804453958	198
0	867	2050.997581593163	199
0	868	2051.741786302252	200
0	884	2082.558814748907	201
0	885	2083.771168050043	202
0	886	2088.872011675272	203
0	887	2091.931399529245	204
0	895	2114.118579242514	205
0	896	2130.257676776908	206
0	897	2131.093444159172	207
0	900	2149.017513968952	208
0	901	2151.137733385284	209
0	904	2161.26324118231	210
0	905	2161.763293809804	211
0	911	2178.666149810721	212
0	912	2184.194908834971	213
0	913	2188.447700811281	214
0	918	2199.694243993077	215
0	919	2201.811602531705	216
0	924	2211.81263483714	217
0	929	2219.898499520747	218
0	939	2229.439546142963	219
0	940	2232.076185846384	220
0	947	2247.424666761994	221
0	948	2252.180629303226	222
0	949	2257.992819595451	223
0	952	2275.844127484196	224
0	958	2294.441249567312	225
0	961	2305.002093238944	226
0	962	2305.406047920749	227
0	965	2310.548382821421	228
0	966	2310.846324665418	229
0	985	2361.025648242579	230
0	990	2376.019547674894	231
0	991	2378.031498342147	232
0	1001	2400.32772992821	233
0	1004	2405.487237670217	234
0	1005	2405.58731929697	235
0	1006	2410.520254866132	236
0	1007	2416.434783434399	237
0	1014	2428.173986146581	238
0	1019	2441.221740998725	239
0	1020	2441.753819779618	240
0	1021	2443.97637599426	241
0	1022	2444.532189379124	242
0	1040	2478.781928649033	243
0	1043	2490.197833414201	244
1	139	351.554767970451	5
1	140	357.507630585933	4
1	141	358.526252318027	3
1	145	361.253872248248	3
1	152	382.033569988247	4
1	157	386.094833956454	5
1	159	386.647961139654	6
1	163	389.11721552314	7
1	167	392.226410515015	8
1	169	392.907147651836	9
1	171	396.36227194133	10
1	179	437.031828547986	11
1	181	446.65223479746	11
1	183	448.318011895377	11
1	185	449.686015902366	12
1	187	453.261598126964	13
1	188	456.337638354442	13
1	190	457.149607354789	13
1	192	459.167132141822	14
1	194	459.902982320572	15
1	198	465.705246785592	16
1	200	468.251201226019	17
1	203	475.822507308272	18
1	205	480.825237471622	19
1	206	482.571069166704	19
1	207	503.655119296405	18
1	208	509.211119247196	17
1	210	509.866602764496	17
1	211	514.84836814609	17
1	212	523.333047903488	16
1	214	532.51419919372	16
1	216	539.722009720888	17
1	217	543.423768044118	17
1	219	543.960260144784	17
1	220	546.843532613842	17
1	225	555.155696511461	17
1	226	562.600197329774	17
1	227	568.424965698517	16
1	228	580.620571196027	15
1	229	587.763739574428	14
1	230	592.150911127302	13
1	232	596.98708789577	13
1	234	598.284845066716	14
1	236	598.576374058973	15
1	237	602.288647359969	15
1	239	602.620604624623	15
1	245	606.95438653281	16
1	248	610.162704550092	17
1	250	614.958540455523	18
1	254	623.406264846895	19
1	257	637.852286977402	20
1	262	648.643934406955	21
1	264	656.14889887037	21
1	265	667.547095480567	20
1	267	676.580654484565	20
1	269	679.89463627924	21
1	270	680.129953950043	21
1	272	683.746700318794	21
1	274	685.331815749873	22
1	276	690.996536964801	23
1	278	692.204779726722	24
1	280	695.353883843244	25
1	284	706.298540363435	26
1	286	712.120064260976	26
1	287	713.421304319248	25
1	288	713.999773151677	24
1	289	719.153394023554	23
1	290	719.510599834846	22
1	291	720.001075696538	21
1	293	722.445853962356	21
1	295	723.104634167044	22
1	297	733.272343944783	23
1	299	739.797730469372	24
1	300	740.370195027056	24
1	302	740.509362681322	24
1	303	745.097066283352	24
1	305	750.972521332418	24
1	306	752.436636517461	24
1	307	754.081970151479	23
1	312	760.22695815373	23
1	316	761.712095157267	24
1	319	777.587614563966	25
1	321	789.201234791078	26
1	323	789.526551019467	27
1	324	789.731079661913	27
1	326	789.861488633681	27
1	332	795.939403761245	28
1	336	819.542236411746	29
1	340	830.911516300091	29
1	341	833.385496055221	28
1	343	835.156933545261	28
1	345	837.724076214384	29
1	346	841.138303266764	29
1	347	843.088117183123	28
1	348	849.189872018803	27
1	349	863.6569776936	26
1	350	874.726926632643	25
1	352	882.462444236032	25
1	354	890.900647318088	26
1	355	891.298829296233	26
1	356	891.633608954404	25
1	360	899.670495225509	25
1	364	902.698546084606	26
1	366	903.095442213722	27
1	368	905.089861502072	28
1	370	911.003404036779	29
1	372	915.690760576577	30
1	374	917.775434736723	31
1	377	923.682993373542	31
1	379	924.213556890148	31
1	380	929.759835578695	31
1	381	932.742031680556	30
1	382	933.284065077353	29
1	384	934.076817536199	29
1	386	936.960064299383	30
1	387	937.643339099497	30
1	388	938.864396469719	29
1	390	939.38482909942	29
1	394	957.912134853835	30
1	396	959.548743667564	31
1	399	978.23760579542	32
1	400	979.225106759053	32
1	402	985.919423558647	32
1	403	996.088548315757	32
1	405	998.744812864239	32
1	407	999.8027166863	33
1	408	1000.888715182979	33
1	410	1005.637083893272	33
1	411	1009.422472888872	33
1	412	1015.72822312451	32
1	416	1018.773414308077	32
1	418	1020.545757412559	32
1	419	1024.549149416679	31
1	421	1026.72492787685	31
1	426	1054.801043001804	32
1	428	1064.652973912992	33
1	429	1075.749182173103	33
1	436	1086.189440553906	32
1	437	1087.64169836774	31
1	439	1093.355992575201	31
1	441	1100.282182876396	32
1	443	1104.978036121906	33
1	448	1118.356984565768	34
1	454	1127.414208507312	35
1	456	1133.514281915121	36
1	459	1144.360864369609	37
1	462	1153.951718723298	38
1	463	1156.654767721554	38
1	465	1161.097070572118	38
1	466	1165.890986340442	38
1	470	1172.04226562065	38
1	472	1177.520664188845	38
1	474	1178.407903726891	38
1	476	1184.211304218178	39
1	478	1184.300423029734	40
1	480	1184.435390764814	41
1	482	1185.138503952723	42
1	486	1185.401070630046	43
1	488	1191.016849542576	43
1	490	1191.107114039485	43
1	491	1191.298629325129	43
1	493	1194.270322303708	43
1	495	1199.917749928224	44
1	500	1215.207056702361	45
1	502	1217.263576943163	46
1	503	1220.355430332684	46
1	504	1220.662008680969	45
1	505	1227.775830238357	44
1	506	1229.081099990404	43
1	507	1233.41644434633	42
1	508	1237.194114771876	41
1	509	1239.490997651086	40
1	510	1239.872630219058	39
1	511	1243.488388832571	38
1	512	1243.763730169274	37
1	516	1245.863388766485	37
1	518	1249.304073116106	37
1	523	1253.407346792082	37
1	525	1254.654480348304	38
1	526	1256.527986909592	38
1	528	1263.794569950446	38
1	529	1267.60578310729	38
1	533	1270.158063425081	37
1	534	1271.400287972584	36
1	535	1272.361909512046	35
1	537	1277.485357624897	35
1	538	1284.811723343039	35
1	540	1290.248085656458	35
1	541	1308.822328250289	35
1	542	1309.867829601969	34
1	543	1310.376468474215	33
1	544	1313.423432885381	32
1	545	1314.360409465343	31
1	549	1328.607576263913	31
1	551	1332.266115075993	32
1	560	1345.999171837684	33
1	562	1351.180955470854	34
1	563	1357.11192510057	34
1	565	1358.024277942655	34
1	566	1365.487115332869	34
1	567	1368.548476510904	33
1	571	1375.328048318735	33
1	573	1376.578224452794	34
1	578	1385.424457924955	35
1	580	1391.845388069327	35
1	581	1394.017500792335	34
1	583	1400.686626234377	34
1	590	1412.945932439393	35
1	592	1413.277010384735	36
1	595	1420.422398902746	37
1	597	1421.552048863122	38
1	598	1430.637068775491	38
1	599	1435.170203383017	37
1	600	1435.33213060218	36
1	604	1436.518938107635	35
1	608	1439.27524498052	35
1	610	1441.998615398113	36
1	613	1454.752516381548	37
1	615	1458.614725343514	38
1	619	1471.342190530967	38
1	621	1478.733427612972	38
1	622	1481.497369276072	38
1	623	1492.913503068109	37
1	624	1495.851927069354	36
1	625	1502.331045884352	35
1	626	1502.36306592882	34
1	627	1502.410148644684	33
1	629	1505.301943959205	33
1	630	1506.520471514132	33
1	632	1507.576092677335	33
1	633	1508.238889842192	33
1	637	1509.035720351126	32
1	639	1513.948258337622	32
1	641	1517.494098948675	33
1	642	1518.189786784911	33
1	643	1521.934973449331	32
1	644	1522.218836966974	31
1	646	1523.807210772095	31
1	647	1524.915955594232	31
1	648	1526.60382493579	30
1	649	1527.29320152089	29
1	650	1529.247745638984	28
1	652	1530.266107318484	28
1	653	1534.819722659417	28
1	654	1536.528860563394	27
1	655	1536.791117391523	26
1	656	1546.234963463885	25
1	658	1547.121827412251	25
1	659	1548.085522174802	25
1	661	1553.926200376688	25
1	663	1556.691645862258	26
1	670	1566.048321592974	27
1	672	1571.187752458193	27
1	674	1575.850548390337	27
1	678	1592.939572376582	28
1	680	1599.176111990407	28
1	682	1600.440615470523	28
1	683	1601.758393260959	28
1	684	1605.522398507339	27
1	686	1607.942529139216	27
1	691	1617.209974063659	28
1	692	1618.857898274528	28
1	693	1631.528149008391	27
1	694	1641.777921404084	26
1	695	1644.27313648667	25
1	697	1645.212310001142	25
1	699	1648.295608035408	26
1	700	1649.04632496688	26
1	701	1649.103573738567	25
1	702	1653.038981075493	24
1	703	1655.916514355321	23
1	704	1656.169959503858	22
1	706	1661.146836982142	22
1	707	1665.459954402176	22
1	709	1666.811507272016	22
1	711	1668.780869812961	23
1	712	1671.443992813743	23
1	714	1675.853363345013	23
1	715	1677.130921785084	23
1	719	1685.52198025974	23
1	722	1690.619515589583	24
1	723	1690.634086372048	24
1	727	1698.881351353874	24
1	729	1702.270853690546	25
1	735	1716.684891854079	26
1	736	1717.346714478362	26
1	740	1729.298254154217	25
1	741	1731.081078461592	24
1	745	1739.763166087787	23
1	746	1740.808914971808	22
1	748	1742.107707459114	22
1	752	1749.160921903979	22
1	756	1758.540050622779	22
1	758	1763.847708067724	23
1	760	1767.394836815643	24
1	762	1769.754296063747	25
1	766	1771.243760096415	26
1	774	1797.197225012532	27
1	776	1807.286711899146	28
1	778	1812.682840100208	29
1	780	1812.766270975972	30
1	783	1814.271161976253	31
1	788	1829.810402453992	32
1	790	1830.86100559469	33
1	792	1836.88633322379	33
1	794	1837.834111699134	33
1	795	1839.201135911304	33
1	796	1845.080472923997	32
1	797	1846.496594898346	31
1	798	1857.352282133856	30
1	799	1858.162598018535	29
1	801	1863.053869228857	29
1	808	1899.04607749634	29
1	809	1899.329129171938	28
1	810	1901.010127700952	27
1	811	1903.40065477405	26
1	815	1910.522712797568	25
1	816	1911.284030497318	24
1	817	1919.711394364708	23
1	819	1921.548888446662	23
1	820	1924.433067642198	23
1	822	1925.084728108583	23
1	829	1956.253163710165	23
1	830	1957.384533675596	22
1	834	1964.768332305014	21
1	836	1966.461828507534	21
1	837	1971.767782911061	21
1	838	1983.484961835223	20
1	839	1983.755923679418	19
1	840	1983.968229915472	18
1	841	1988.821771193548	17
1	843	1996.442726234962	17
1	845	1999.018505728651	18
1	846	2001.498268089106	18
1	847	2002.108952317328	17
1	852	2003.133855187522	17
1	853	2013.411493146241	17
1	854	2019.693102879258	16
1	855	2021.601432853828	15
1	857	2022.102208161922	15
1	859	2026.984715526444	16
1	860	2031.534197916919	16
1	861	2031.585384911107	15
1	862	2033.714657077036	14
1	864	2043.741429300996	14
1	865	2045.392085268634	14
1	866	2050.698804453958	13
1	867	2050.997581593163	12
1	868	2051.741786302252	11
1	879	2068.035895002599	11
1	881	2070.729528780533	12
1	883	2082.060564272508	13
1	884	2082.558814748907	13
1	885	2083.771168050043	12
1	886	2088.872011675272	11
1	887	2091.931399529245	10
1	889	2092.756536328325	10
1	891	2107.788762825608	11
1	895	2114.118579242514	11
1	896	2130.257676776908	10
1	897	2131.093444159172	9
1	899	2145.586000304457	9
1	900	2149.017513968952	9
1	901	2151.137733385284	8
1	903	2157.470008204503	8
1	904	2161.26324118231	8
1	905	2161.763293809804	7
1	910	2170.621603874021	7
1	911	2178.666149810721	7
1	912	2184.194908834971	6
1	913	2188.447700811281	5
1	915	2197.669224470044	5
1	917	2198.674373501187	6
1	918	2199.694243993077	6
1	919	2201.811602531705	5
1	921	2203.554715304965	5
1	923	2210.498316660967	6
1	924	2211.81263483714	6
1	926	2212.274921811409	6
1	928	2218.480584148708	7
1	929	2219.898499520747	7
1	934	2221.48183917862	7
1	936	2221.489280892939	8
1	938	2223.125972974633	9
1	939	2229.439546142963	9
1	940	2232.076185846384	8
1	947	2247.424666761994	7
1	948	2252.180629303226	6
1	949	2257.992819595451	5
1	951	2268.169216379668	5
1	952	2275.844127484196	5
1	954	2280.874800280286	5
1	958	2294.441249567312	5
1	960	2301.881038404028	5
1	961	2305.002093238944	5
1	962	2305.406047920749	4
1	964	2309.910991732672	4
1	965	2310.548382821421	4
1	966	2310.846324665418	3
1	968	2312.359914615875	3
1	972	2318.170158082466	4
1	976	2327.468414806708	5
1	979	2343.996904793849	6
1	982	2350.382606851478	7
1	984	2358.611579696822	8
1	985	2361.025648242579	8
1	987	2363.060537216027	8
1	989	2373.50460996526	9
1	990	2376.019547674894	9
1	991	2378.031498342147	8
1	993	2381.039792987798	8
1	997	2386.087771682966	9
1	999	2394.407798511697	10
1	1001	2400.32772992821	10
1	1003	2404.565149470387	10
1	1004	2405.487237670217	10
1	1005	2405.58731929697	9
1	1006	2410.520254866132	8
1	1007	2416.434783434399	7
1	1009	2422.495692925158	7
1	1011	2423.823415495132	8
1	1013	2424.472143381992	9
1	1014	2428.173986146581	9
1	1016	2430.129653405028	9
1	1018	2439.453006626528	10
1	1019	2441.221740998725	10
1	1020	2441.753819779618	9
1	1021	2443.97637599426	8
1	1022	2444.532189379124	7
1	1024	2446.289358719912	7
1	1028	2453.293347744151	8
1	1030	2458.70246381101	9
1	1032	2460.449554175474	10
1	1034	2464.794619718189	11
1	1036	2466.366369433583	12
1	1039	2477.751206080727	13
1	1040	2478.781928649033	13
1	1042	2487.907921574443	13
1	1043	2490.197833414201	13
1	1045	2491.854625862879	13
2	139	351.554767970451	46.638082476063
2	140	357.507630585933	47.038087296752
2	141	358.526252318027	43.705524569288
2	181	446.65223479746	121.83942729511
2	188	456.337638354442	95.773860403883
2	206	482.571069166704	112.74763167012
2	207	503.655119296405	121.62154930816
2	208	509.211119247196	123.11628529074
2	211	514.84836814609	128.20040700644
2	212	523.333047903488	134.21583238035
2	217	543.423768044118	151.1973575291
2	220	546.843532613842	153.93638496201
2	226	562.600197329774	125.56836878179
2	227	568.424965698517	120.10695380314
2	228	580.620571196027	130.93455529366
2	229	587.763739574428	134.50214144746
2	230	592.150911127302	135.00130377251
2	237	602.288647359969	143.12151521815
2	264	656.14889887037	190.44365208478
2	265	667.547095480567	199.29589425455
2	270	680.129953950043	204.30744664177
2	286	712.120064260976	202.25346149648
2	287	713.421304319248	180.90710512553
2	288	713.999773151677	174.27776343079
2	289	719.153394023554	175.19313387877
2	290	719.510599834846	166.07299607587
2	291	720.001075696538	164.84537918508
2	300	740.370195027056	143.38310713129
2	303	745.097066283352	146.81222121664
2	306	752.436636517461	153.86026245849
2	307	754.081970151479	151.46136552686
2	324	789.731079661913	179.56837511182
2	340	830.911516300091	193.05922932269
2	341	833.385496055221	195.12389176295
2	346	841.138303266764	192.49436885981
2	347	843.088117183123	166.50746269856
2	348	849.189872018803	169.29523573956
2	349	863.6569776936	179.91027737481
2	350	874.726926632643	189.39511088277
2	355	891.298829296233	200.30229233143
2	356	891.633608954404	199.42882922768
2	377	923.682993373542	218.97962100014
2	380	929.759835578695	223.46129521526
2	381	932.742031680556	210.2961777182
2	382	933.284065077353	210.17943091031
2	387	937.643339099497	204.37099515471
2	388	938.864396469719	199.06666600035
2	400	979.225106759053	228.25258542663
2	403	996.088548315757	241.14652265159
2	408	1000.888715182979	240.66175702925
2	411	1009.422472888872	247.85649009218
2	412	1015.72822312451	254.01612796724
2	418	1020.545757412559	231.34452262148
2	419	1024.549149416679	235.02259839721
2	429	1075.749182173103	285.73999780261
2	436	1086.189440553906	256.86977080994
2	437	1087.64169836774	252.48476482248
2	463	1156.654767721554	265.75412040347
2	466	1165.890986340442	273.5538276711
2	472	1177.520664188845	274.82211810424
2	488	1191.016849542576	285.9269880405
2	491	1191.298629325129	280.29522528835
2	503	1220.355430332684	302.57999559596
2	504	1220.662008680969	296.44845179082
2	505	1227.775830238357	293.69901270216
2	506	1229.081099990404	292.12103569102
2	507	1233.41644434633	294.03161524691
2	508	1237.194114771876	295.50647046242
2	509	1239.490997651086	281.57886279725
2	510	1239.872630219058	280.32388655149
2	511	1243.488388832571	265.25078303715
2	512	1243.763730169274	257.84430661063
2	518	1249.304073116106	249.50135642981
2	526	1256.527986909592	239.89178600088
2	529	1267.60578310729	248.83236879921
2	533	1270.158063425081	230.16849172214
2	534	1271.400287972584	216.59924497078
2	535	1272.361909512046	207.70893559905
2	538	1284.811723343039	207.20878964207
2	541	1308.822328250289	226.99120932774
2	542	1309.867829601969	216.51183702677
2	543	1310.376468474215	210.09428559782
2	544	1313.423432885381	208.44539676348
2	545	1314.360409465343	209.06702919956
2	563	1357.11192510057	223.59764318545
2	566	1365.487115332869	221.12625096326
2	567	1368.548476510904	214.59675778761
2	580	1391.845388069327	219.80312244868
2	581	1394.017500792335	215.60959706544
2	598	1430.637068775491	246.33664574576
2	599	1435.170203383017	250.7348126182
2	600	1435.33213060218	250.19362664946
2	604	1436.518938107635	251.11786747759
2	619	1471.342190530967	271.42444060274
2	622	1481.497369276072	270.0109198519
2	623	1492.913503068109	277.70644636575
2	624	1495.851927069354	278.58835012619
2	625	1502.331045884352	257.20656079992
2	626	1502.36306592882	256.49967716233
2	627	1502.410148644684	251.23570840007
2	630	1506.520471514132	253.11312472205
2	633	1508.238889842192	253.58440949389
2	637	1509.035720351126	240.36835834043
2	642	1518.189786784911	240.70442916001
2	643	1521.934973449331	231.68688779287
2	644	1522.218836966974	201.07629111802
2	647	1524.915955594232	196.30837933032
2	648	1526.60382493579	194.3377098598
2	649	1527.29320152089	189.07507783682
2	650	1529.247745638984	187.68820297672
2	653	1534.819722659417	188.82055082173
2	654	1536.528860563394	185.34790509254
2	655	1536.791117391523	178.76683944887
2	656	1546.234963463885	175.82367483059
2	659	1548.085522174802	172.75747385607
2	672	1571.187752458193	190.77194207026
2	680	1599.176111990407	198.48948575603
2	683	1601.758393260959	199.74933099139
2	684	1605.522398507339	192.57646606795
2	692	1618.857898274528	198.43549937178
2	693	1631.528149008391	209.97610014527
2	694	1641.777921404084	206.20579087885
2	695	1644.27313648667	206.95801305468
2	700	1649.04632496688	209.77107998636
2	701	1649.103573738567	207.10495834045
2	702	1653.038981075493	198.28646469394
2	703	1655.916514355321	197.30178901181
2	704	1656.169959503858	191.28809143996
2	707	1665.459954402176	186.7265267892
2	712	1671.443992813743	166.14204885454
2	715	1677.130921785084	169.55482910775
2	723	1690.634086372048	176.68582803443
2	736	1717.346714478362	193.53950370627
2	740	1729.298254154217	182.17642674197
2	741	1731.081078461592	177.1548780849
2	745	1739.763166087787	182.30092906001
2	746	1740.808914971808	174.76059337883
2	752	1749.160921903979	169.22074362799
2	792	1836.88633322379	228.94380408457
2	795	1839.201135911304	230.86284030203
2	796	1845.080472923997	227.87049886034
2	797	1846.496594898346	201.2842848972
2	798	1857.352282133856	209.05667409845
2	799	1858.162598018535	197.01576103639
2	808	1899.04607749634	230.26520768338
2	809	1899.329129171938	223.47576582692
2	810	1901.010127700952	220.8804884263
2	811	1903.40065477405	217.87867451431
2	815	1910.522712797568	218.29434781494
2	816	1911.284030497318	212.40267914344
2	817	1919.711394364708	217.44054067416
2	820	1924.433067642198	207.74817578812
2	829	1956.253163710165	225.03868850672
2	830	1957.384533675596	215.27682621648
2	834	1964.768332305014	210.56199516086
2	837	1971.767782911061	213.22773228828
2	838	1983.484961835223	219.6372537675
2	839	1983.755923679418	216.36108686378
2	840	1983.968229915472	214.21393385172
2	841	1988.821771193548	217.57801109713
2	846	2001.498268089106	204.30104307657
2	847	2002.108952317328	194.82224041818
2	853	2013.411493146241	200.64522217027
2	854	2019.693102879258	205.42194090301
2	855	2021.601432853828	192.54932257684
2	860	2031.534197916919	201.72379546293
2	861	2031.585384911107	200.72437931642
2	862	2033.714657077036	195.8805453779
2	865	2045.392085268634	182.33821603978
2	866	2050.698804453958	164.11823785659
2	867	2050.997581593163	145.58218470087
2	868	2051.741786302252	130.19289785559
2	884	2082.558814748907	116.09698624137
2	885	2083.771168050043	87.328441815081
2	886	2088.872011675272	89.853505946621
2	887	2091.931399529245	89.818187003878
2	895	2114.118579242514	92.016371080592
2	896	2130.257676776908	103.27296125046
2	897	2131.093444159172	87.352014858176
2	900	2149.017513968952	95.578947083327
2	901	2151.137733385284	93.216921958359
2	904	2161.26324118231	96.68756454438
2	905	2161.763293809804	93.727398807205
2	911	2178.666149810721	96.605585538213
2	912	2184.194908834971	91.438372506646
2	913	2188.447700811281	80.658937985673
2	918	2199.694243993077	91.432503385084
2	919	2201.811602531705	56.225602227248
2	924	2211.81263483714	54.342626632637
2	929	2219.898499520747	53.320829158481
2	939	2229.439546142963	31.770321672919
2	940	2232.076185846384	33.401812345197
2	947	2247.424666761994	35.149744950585
2	948	2252.180629303226	33.700045154518
2	949	2257.992819595451	37.90323767256
2	952	2275.844127484196	54.362288305576
2	958	2294.441249567312	71.315276592679
2	961	2305.002093238944	71.912651067604
2	962	2305.406047920749	61.194343530998
2	965	2310.548382821421	42.379166441753
2	966	2310.846324665418	29.971524385132
2	985	2361.025648242579	59.144609838551
2	990	2376.019547674894	66.108555942222
2	991	2378.031498342147	65.671583726272
2	1001	2400.32772992821	82.157571845744
2	1004	2405.487237670217	78.018822863509
2	1005	2405.58731929697	61.590414503121
2	1006	2410.520254866132	60.137648014654
2	1007	2416.434783434399	57.823203737577
2	1014	2428.173986146581	65.113448930554
2	1019	2441.221740998725	67.717131033465
2	1020	2441.753819779618	60.71402679182
2	1021	2443.97637599426	58.013378613393
2	1022	2444.532189379124	58.444417696158
2	1040	2478.781928649033	74.216779178646
2	1043	2490.197833414201	67.702140489043
3	139	351.554767970451	41.08522468127
3	140	357.507630585933	42.686902837194
3	141	358.526252318027	40.842377503092
3	146	365.575308492821	47.342696938527
3	180	445.628900680959	120.81609317861
3	181	446.65223479746	86.088456846901
3	188	456.337638354442	95.083766106194
3	201	470.839232010003	101.01579451342
3	206	482.571069166704	100.53749917846
3	207	503.655119296405	117.56028533995
3	208	509.211119247196	122.56315810754
3	211	514.84836814609	125.73115262295
3	212	523.333047903488	131.10663738847
3	217	543.423768044118	150.51662039228
3	220	546.843532613842	150.48126067251
3	223	554.300963848064	117.26913530008
3	226	562.600197329774	114.2821854344
3	227	568.424965698517	118.73894979615
3	228	580.620571196027	127.35897306906
3	229	587.763739574428	130.61413221964
3	230	592.150911127302	132.98377898548
3	237	602.288647359969	142.3856650394
3	258	638.160026031934	176.7027796304
3	263	652.856528432178	187.15128164659
3	264	656.14889887037	187.89769764435
3	265	667.547095480567	191.7245881723
3	270	680.129953950043	199.30471647842
3	285	711.347781484527	201.48117872003
3	286	712.120064260976	179.60586506726
3	287	713.421304319248	173.69929459836
3	288	713.999773151677	170.03951300689
3	289	719.153394023554	165.71579026457
3	290	719.510599834846	164.35490332339
3	291	720.001075696538	123.01398780077
3	300	740.370195027056	142.08534996034
3	303	745.097066283352	146.52069222438
3	306	752.436636517461	149.81603189284
3	307	754.081970151479	149.761494469
3	310	756.29523035537	149.34084382256
3	317	771.578322893829	161.41561834374
3	324	789.731079661913	174.77253920639
3	334	805.885776125406	182.47951127851
3	339	829.474892068113	191.62260509071
3	340	830.911516300091	192.64991200782
3	341	833.385496055221	184.74156164827
3	346	841.138303266764	164.5576487822
3	347	843.088117183123	163.19348090388
3	348	849.189872018803	165.44317170001
3	349	863.6569776936	178.32516194373
3	350	874.726926632643	183.73038966784
3	355	891.298829296233	199.09404956951
3	356	891.633608954404	196.27972511116
3	376	919.585106190569	214.88173381716
3	377	923.682993373542	217.38445301011
3	380	929.759835578695	207.31398161634
3	381	932.742031680556	209.63739751351
3	382	933.284065077353	200.01172113257
3	387	937.643339099497	197.84560863012
3	388	938.864396469719	198.3550337884
3	397	975.229978357007	224.25745702459
3	400	979.225106759053	224.28308109489
3	403	996.088548315757	235.86159016203
3	408	1000.888715182979	239.32273238628
3	411	1009.422472888872	247.71037773161
3	412	1015.72822312451	238.14060856054
3	417	1019.488709704807	230.28747491373
3	418	1020.545757412559	231.01920639309
3	419	1024.549149416679	234.687660783
3	424	1051.281143205457	261.27195883496
3	429	1075.749182173103	279.80977841186
3	432	1078.891967146533	259.34973073479
3	435	1082.022150807964	252.702481064
3	436	1086.189440553906	251.03250700864
3	437	1087.64169836774	249.91762215336
3	446	1115.964932657168	233.50248842114
3	460	1153.162705943319	262.26205862523
3	463	1156.654767721554	264.31760905221
3	466	1165.890986340442	266.22049111493
3	471	1175.129741466176	272.43119538157
3	472	1177.520664188845	274.42522197512
3	487	1188.350562856406	283.26070135433
3	488	1191.016849542576	280.0134455058
3	491	1191.298629325129	275.60786874855
3	498	1213.064104941359	295.28867020464
3	503	1220.355430332684	296.14187344254
3	504	1220.662008680969	286.58519114477
3	505	1227.775830238357	290.81576593897
3	506	1229.081099990404	289.69627089098
3	507	1233.41644434633	291.72880003687
3	508	1237.194114771876	279.28197991804
3	509	1239.490997651086	279.94225398352
3	510	1239.872630219058	261.63502442364
3	511	1243.488388832571	257.56896527392
3	512	1243.763730169274	245.01891730503
3	517	1248.003716861722	248.20100017542
3	518	1249.304073116106	243.66698922283
3	521	1252.885699313903	236.24949840519
3	526	1256.527986909592	237.75457260152
3	529	1267.60578310729	240.88085523044
3	532	1269.555377825303	229.56580612236
3	533	1270.158063425081	215.35702042328
3	534	1271.400287972584	206.74731405959
3	535	1272.361909512046	194.75897581108
3	538	1284.811723343039	202.98060442049
3	541	1308.822328250289	215.46633567509
3	542	1309.867829601969	209.58564672557
3	543	1310.376468474215	205.39843235231
3	544	1313.423432885381	208.13005261959
3	545	1314.360409465343	196.00342489958
3	552	1336.106032504705	214.79661116694
3	555	1338.875781941359	211.46157343405
3	558	1342.823968581529	209.30968666641
3	563	1357.11192510057	212.75106073096
3	566	1365.487115332869	211.53539660957
3	567	1368.548476510904	207.45140593879
3	574	1379.766178042445	208.60528790501
3	579	1391.597577848688	219.55531222804
3	580	1391.845388069327	213.43748434244
3	581	1394.017500792335	209.80619657416
3	593	1413.822070654162	229.52164762443
3	598	1430.637068775491	246.20167801068
3	599	1435.170203383017	250.03169943029
3	600	1435.33213060218	250.15066963684
3	603	1436.001756712854	250.60068608281
3	604	1436.518938107635	245.41182406815
3	611	1448.784752349957	254.51443004625
3	618	1469.783393339029	269.8656434108
3	619	1471.342190530967	259.85574110679
3	622	1481.497369276072	266.29031257371
3	623	1492.913503068109	275.64992612495
3	624	1495.851927069354	250.72744198492
3	625	1502.331045884352	256.46765711787
3	626	1502.36306592882	251.1886256842
3	627	1502.410148644684	249.0028018526
3	630	1506.520471514132	251.86599116583
3	633	1508.238889842192	244.44431989175
3	636	1508.72978908629	240.06242707559
3	637	1509.035720351126	231.55036272623
3	642	1518.189786784911	227.94170112845
3	643	1521.934973449331	200.79242760038
3	644	1522.218836966974	193.61126070306
3	647	1524.915955594232	192.64984051824
3	648	1526.60382493579	188.38570125172
3	649	1527.29320152089	185.73365885863
3	650	1529.247745638984	183.2485738013
3	653	1534.819722659417	183.63876718856
3	654	1536.528860563394	178.50458262074
3	655	1536.791117391523	166.37982875823
3	656	1546.234963463885	170.90691514515
3	659	1548.085522174802	171.50729772201
3	671	1568.596643309898	188.18083292197
3	672	1571.187752458193	185.76329453324
3	679	1594.068202921793	193.38157668742
3	680	1599.176111990407	197.16704972083
3	683	1601.758393260959	188.81246082157
3	684	1605.522398507339	192.2453881226
3	689	1612.720121330637	192.29772242789
3	692	1618.857898274528	197.30584941141
3	693	1631.528149008391	195.95601848315
3	694	1641.777921404084	204.46279797209
3	695	1644.27313648667	204.99789150615
3	700	1649.04632496688	207.04770956877
3	701	1649.103573738567	194.35105735702
3	702	1653.038981075493	194.42425573198
3	703	1655.916514355321	191.03464629142
3	704	1656.169959503858	177.43653189089
3	707	1665.459954402176	160.15801044297
3	712	1671.443992813743	163.86790013641
3	715	1677.130921785084	168.74571482202
3	720	1689.619490671656	175.67123233403
3	723	1690.634086372048	173.13998742337
3	733	1716.235482001241	192.42827122915
3	736	1717.346714478362	187.08060715988
3	739	1728.906975241383	181.78514782913
3	740	1729.298254154217	175.37205377753
3	741	1731.081078461592	174.38943259933
3	744	1737.243118932161	179.78088190438
3	745	1739.763166087787	173.71484449481
3	746	1740.808914971808	164.95836658147
3	751	1748.77168056617	168.83150229018
3	752	1749.160921903979	156.2213495274
3	784	1822.135823548755	221.69520807823
3	791	1832.146395573693	224.20386643448
3	792	1836.88633322379	228.54803761452
3	795	1839.201135911304	221.99116184765
3	796	1845.080472923997	199.86816292285
3	797	1846.496594898346	198.20098686294
3	798	1857.352282133856	196.20544515171
3	799	1858.162598018535	191.35109074652
3	807	1893.616832370911	224.83596255795
3	808	1899.04607749634	223.19271415133
3	809	1899.329129171938	219.19948989729
3	810	1901.010127700952	215.48814744121
3	811	1903.40065477405	212.78113918447
3	814	1909.593910802826	217.3655458202
3	815	1910.522712797568	211.64136144369
3	816	1911.284030497318	209.01317680677
3	817	1919.711394364708	203.02650251063
3	820	1924.433067642198	196.06306006152
3	828	1950.690813928057	219.47633872461
3	829	1956.253163710165	214.14545625105
3	830	1957.384533675596	213.90846231769
3	833	1963.133391629717	208.92705448556
3	834	1964.768332305014	206.22828168224
3	837	1971.767782911061	207.92007484334
3	838	1983.484961835223	216.09012501958
3	839	1983.755923679418	214.00162761567
3	840	1983.968229915472	212.72446981906
3	841	1988.821771193548	191.62454618102
3	846	2001.498268089106	194.21155618996
3	847	2002.108952317328	189.42611221712
3	850	2002.442879386675	189.6766084107
3	853	2013.411493146241	199.14033116999
3	854	2019.693102879258	190.64099260226
3	855	2021.601432853828	191.79103039984
3	860	2031.534197916919	200.67319232223
3	861	2031.585384911107	193.75127321197
3	862	2033.714657077036	170.66078784818
3	865	2045.392085268634	158.81151867126
3	866	2050.698804453958	145.28340756166
3	867	2050.997581593163	129.4486931465
3	868	2051.741786302252	126.65705819367
3	871	2056.840005750444	121.89658214472
3	874	2059.558733156093	96.918877924882
3	877	2065.120140711217	98.658312203683
3	884	2082.558814748907	86.116088513945
3	885	2083.771168050043	84.752662321392
3	886	2088.872011675272	86.758799149905
3	887	2091.931399529245	88.797544341723
3	894	2113.115206572037	91.012998410115
3	895	2114.118579242514	87.13386371607
3	896	2130.257676776908	86.516247475912
3	897	2131.093444159172	77.654877273547
3	900	2149.017513968952	91.096702542027
3	901	2151.137733385284	86.562056747354
3	904	2161.26324118231	93.227346179711
3	905	2161.763293809804	91.033765029271
3	908	2169.463168429915	87.402604157407
3	911	2178.666149810721	85.909613482396
3	912	2184.194908834971	76.406146009363
3	913	2188.447700811281	80.185960203288
3	918	2199.694243993077	54.10824368862
3	919	2201.811602531705	44.341594327202
3	924	2211.81263483714	45.234964474874
3	929	2219.898499520747	49.276895646726
3	932	2220.371899915305	22.702675445261
3	939	2229.439546142963	30.765172641776
3	940	2232.076185846384	28.521470541419
3	943	2233.636808480302	23.138491819335
3	946	2244.256837545136	31.981915733727
3	947	2247.424666761994	28.944082613286
3	948	2252.180629303226	32.091047380335
3	949	2257.992819595451	36.510980416831
3	952	2275.844127484196	54.354846591257
3	957	2288.934970773982	65.808997799349
3	958	2294.441249567312	61.351807395972
3	961	2305.002093238944	60.790388849193
3	962	2305.406047920749	37.236831541081
3	965	2310.548382821421	29.673582541135
3	966	2310.846324665418	24.482816908674
3	980	2344.692779951999	42.811741547971
3	985	2361.025648242579	51.114656509907
3	990	2376.019547674894	63.659633059019
3	991	2378.031498342147	64.360050908707
3	1000	2394.451104558786	76.28094647632
3	1001	2400.32772992821	72.859315121502
3	1004	2405.487237670217	61.490332876368
3	1005	2405.58731929697	55.204712445492
3	1006	2410.520254866132	51.90867516931
3	1007	2416.434783434399	53.374246218372
3	1014	2428.173986146581	54.669376181321
3	1019	2441.221740998725	60.181948010927
3	1020	2441.753819779618	55.790822398751
3	1021	2443.97637599426	57.888604311294
3	1022	2444.532189379124	50.124390867427
3	1037	2468.257283412499	63.692133942112
3	1040	2478.781928649033	56.286235723875
3	1043	2490.197833414201	66.374417919069
4	143	360.563777950559	1
4	148	369.823437496583	1
4	150	375.381203536285	2
4	155	384.560774436847	2
4	161	387.335413309351	3
4	165	392.224320651685	4
4	176	426.914087462371	2
4	196	461.457246401535	1
4	222	553.437603758979	1
4	241	604.320475682479	1
4	243	604.439158151511	2
4	252	616.726586392182	2
4	260	638.261604292271	1
4	282	704.703372373406	1
4	309	754.942025664163	1
4	314	761.565982796694	1
4	328	790.009184370493	1
4	330	790.942038269855	2
4	338	829.319669743967	1
4	358	892.337158669343	1
4	362	902.691243247334	2
4	392	941.687644309456	1
4	414	1016.63620090871	1
4	423	1039.989571702946	1
4	431	1077.602933700969	1
4	434	1081.831118922544	1
4	445	1105.293380265788	1
4	450	1121.309421337766	1
4	452	1125.909903032852	2
4	468	1171.160890137435	1
4	484	1185.181460965343	1
4	497	1211.486449424174	1
4	514	1245.12448508443	1
4	520	1251.174440244616	1
4	531	1268.667362010699	1
4	547	1321.142545848953	1
4	554	1338.21812368407	1
4	557	1341.559542662263	1
4	569	1370.411288633291	1
4	576	1380.415810387932	1
4	585	1402.009062269573	1
4	587	1404.043402969798	2
4	602	1435.572130525238	1
4	606	1437.315123431991	1
4	617	1464.8818680639	1
4	635	1508.385206963064	1
4	665	1557.46223702778	1
4	667	1557.817978894505	2
4	676	1579.940178275986	1
4	688	1608.338295609274	1
4	717	1680.129639274647	1
4	725	1692.228364982624	1
4	731	1703.764556429293	2
4	738	1728.370007580682	1
4	743	1731.214475203443	1
4	750	1743.476071357903	1
4	754	1754.206337144157	1
4	764	1770.095509420512	2
4	768	1773.726129804286	3
4	770	1776.125214902578	4
4	786	1829.052110276993	1
4	803	1886.580566597369	1
4	805	1888.021514216396	2
4	813	1905.415396892295	1
4	824	1934.943423605723	1
4	826	1938.845117563528	2
4	832	1962.639855231211	1
4	849	2002.113212525367	1
4	870	2053.438566885625	1
4	873	2057.920811426925	1
4	876	2064.57567663793	1
4	893	2108.261740607993	1
4	907	2166.577670362266	1
4	931	2220.089581922891	1
4	942	2233.08944217134	1
4	945	2244.211704389751	1
4	956	2286.363507756744	1
4	970	2313.67144743344	1
4	974	2324.199123195525	2
4	995	2385.962997380867	1
4	1026	2450.57152504087	1
5	143	360.563777950559	0
5	146	365.575308492821	0
5	148	369.823437496583	0
5	150	375.381203536285	1
5	153	382.946508293654	1
5	155	384.560774436847	1
5	161	387.335413309351	2
5	165	392.224320651685	3
5	172	404.276389946108	3
5	173	405.006935791054	2
5	174	419.275195688762	1
5	176	426.914087462371	1
5	177	435.809887776295	1
5	180	445.628900680959	0
5	196	461.457246401535	0
5	201	470.839232010003	0
5	222	553.437603758979	0
5	223	554.300963848064	0
5	241	604.320475682479	0
5	243	604.439158151511	1
5	246	609.792480695606	1
5	252	616.726586392182	1
5	255	626.618074491789	1
5	258	638.160026031934	0
5	260	638.261604292271	0
5	263	652.856528432178	0
5	282	704.703372373406	0
5	285	711.347781484527	0
5	309	754.942025664163	0
5	310	756.29523035537	0
5	314	761.565982796694	0
5	317	771.578322893829	0
5	328	790.009184370493	0
5	330	790.942038269855	1
5	333	797.513537390766	1
5	334	805.885776125406	0
5	338	829.319669743967	0
5	339	829.474892068113	0
5	358	892.337158669343	0
5	362	902.691243247334	1
5	375	918.654111906292	1
5	376	919.585106190569	0
5	392	941.687644309456	0
5	397	975.229978357007	0
5	414	1016.63620090871	0
5	417	1019.488709704807	0
5	423	1039.989571702946	0
5	424	1051.281143205457	0
5	431	1077.602933700969	0
5	432	1078.891967146533	0
5	434	1081.831118922544	0
5	435	1082.022150807964	0
5	445	1105.293380265788	0
5	446	1115.964932657168	0
5	450	1121.309421337766	0
5	452	1125.909903032852	1
5	457	1140.373235873107	1
5	460	1153.162705943319	0
5	468	1171.160890137435	0
5	471	1175.129741466176	0
5	484	1185.181460965343	0
5	487	1188.350562856406	0
5	497	1211.486449424174	0
5	498	1213.064104941359	0
5	514	1245.12448508443	0
5	517	1248.003716861722	0
5	520	1251.174440244616	0
5	521	1252.885699313903	0
5	531	1268.667362010699	0
5	532	1269.555377825303	0
5	547	1321.142545848953	0
5	552	1336.106032504705	0
5	554	1338.21812368407	0
5	555	1338.875781941359	0
5	557	1341.559542662263	0
5	558	1342.823968581529	0
5	569	1370.411288633291	0
5	574	1379.766178042445	0
5	576	1380.415810387932	0
5	579	1391.597577848688	0
5	585	1402.009062269573	0
5	587	1404.043402969798	1
5	588	1408.87268628427	1
5	593	1413.822070654162	0
5	602	1435.572130525238	0
5	603	1436.001756712854	0
5	606	1437.315123431991	0
5	611	1448.784752349957	0
5	617	1464.8818680639	0
5	618	1469.783393339029	0
5	635	1508.385206963064	0
5	636	1508.72978908629	0
5	665	1557.46223702778	0
5	667	1557.817978894505	1
5	668	1561.314414566287	1
5	671	1568.596643309898	0
5	676	1579.940178275986	0
5	679	1594.068202921793	0
5	688	1608.338295609274	0
5	689	1612.720121330637	0
5	717	1680.129639274647	0
5	720	1689.619490671656	0
5	725	1692.228364982624	0
5	731	1703.764556429293	1
5	732	1709.324500286195	1
5	733	1716.235482001241	0
5	738	1728.370007580682	0
5	739	1728.906975241383	0
5	743	1731.214475203443	0
5	744	1737.243118932161	0
5	750	1743.476071357903	0
5	751	1748.77168056617	0
5	754	1754.206337144157	0
5	764	1770.095509420512	1
5	768	1773.726129804286	2
5	770	1776.125214902578	3
5	771	1776.54088315925	3
5	772	1781.230729617264	2
5	781	1813.615637933973	1
5	784	1822.135823548755	0
5	786	1829.052110276993	0
5	791	1832.146395573693	0
5	803	1886.580566597369	0
5	805	1888.021514216396	1
5	806	1891.559792659094	1
5	807	1893.616832370911	0
5	813	1905.415396892295	0
5	814	1909.593910802826	0
5	824	1934.943423605723	0
5	826	1938.845117563528	1
5	827	1946.881725636694	1
5	828	1950.690813928057	0
5	832	1962.639855231211	0
5	833	1963.133391629717	0
5	849	2002.113212525367	0
5	850	2002.442879386675	0
5	870	2053.438566885625	0
5	871	2056.840005750444	0
5	873	2057.920811426925	0
5	874	2059.558733156093	0
5	876	2064.57567663793	0
5	877	2065.120140711217	0
5	893	2108.261740607993	0
5	894	2113.115206572037	0
5	907	2166.577670362266	0
5	908	2169.463168429915	0
5	931	2220.089581922891	0
5	932	2220.371899915305	0
5	942	2233.08944217134	0
5	943	2233.636808480302	0
5	945	2244.211704389751	0
5	946	2244.256837545136	0
5	956	2286.363507756744	0
5	957	2288.934970773982	0
5	970	2313.67144743344	0
5	974	2324.199123195525	1
5	977	2332.984309474556	1
5	980	2344.692779951999	0
5	995	2385.962997380867	0
5	1000	2394.451104558786	0
5	1026	2450.57152504087	0
5	1037	2468.257283412499	0
6	143	360.563777950559	8
6	148	369.823437496583	9
6	196	461.457246401535	10
6	222	553.437603758979	11
6	241	604.320475682479	12
6	260	638.261604292271	13
6	282	704.703372373406	14
6	309	754.942025664163	15
6	314	761.565982796694	16
6	328	790.009184370493	17
6	338	829.319669743967	18
6	358	892.337158669343	19
6	392	941.687644309456	20
6	414	1016.63620090871	21
6	423	1039.989571702946	22
6	431	1077.602933700969	23
6	434	1081.831118922544	24
6	445	1105.293380265788	25
6	450	1121.309421337766	26
6	468	1171.160890137435	27
6	484	1185.181460965343	28
6	497	1211.486449424174	29
6	514	1245.12448508443	30
6	520	1251.174440244616	31
6	531	1268.667362010699	32
6	547	1321.142545848953	33
6	554	1338.21812368407	34
6	557	1341.559542662263	35
6	569	1370.411288633291	36
6	576	1380.415810387932	37
6	585	1402.009062269573	38
6	602	1435.572130525238	39
6	606	1437.315123431991	40
6	617	1464.8818680639	41
6	635	1508.385206963064	42
6	665	1557.46223702778	43
6	676	1579.940178275986	44
6	688	1608.338295609274	45
6	717	1680.129639274647	46
6	725	1692.228364982624	47
6	738	1728.370007580682	48
6	743	1731.214475203443	49
6	750	1743.476071357903	50
6	754	1754.206337144157	51
6	786	1829.052110276993	52
6	803	1886.580566597369	53
6	813	1905.415396892295	54
6	824	1934.943423605723	55
6	832	1962.639855231211	56
6	849	2002.113212525367	57
6	870	2053.438566885625	58
6	873	2057.920811426925	59
6	876	2064.57567663793	60
6	893	2108.261740607993	61
6	907	2166.577670362266	62
6	931	2220.089581922891	63
6	942	2233.08944217134	64
6	945	2244.211704389751	65
6	956	2286.363507756744	66
6	970	2313.67144743344	67
6	995	2385.962997380867	68
6	1026	2450.57152504087	69
7	143	360.563777950559	0
7	148	369.823437496583	0
7	153	382.946508293654	7.565304757369
7	172	404.276389946108	19.715615509261
7	173	405.006935791054	17.671522481703
7	174	419.275195688762	27.050875037077
7	177	435.809887776295	8.895800313924
7	196	461.457246401535	0
7	222	553.437603758979	0
7	241	604.320475682479	0
7	246	609.792480695606	5.353322544095
7	255	626.618074491789	9.891488099607
7	260	638.261604292271	0
7	282	704.703372373406	0
7	309	754.942025664163	0
7	314	761.565982796694	0
7	328	790.009184370493	0
7	333	797.513537390766	6.571499120911
7	338	829.319669743967	0
7	358	892.337158669343	0
7	375	918.654111906292	15.962868658958
7	392	941.687644309456	0
7	414	1016.63620090871	0
7	423	1039.989571702946	0
7	431	1077.602933700969	0
7	434	1081.831118922544	0
7	445	1105.293380265788	0
7	450	1121.309421337766	0
7	457	1140.373235873107	14.463332840255
7	468	1171.160890137435	0
7	484	1185.181460965343	0
7	497	1211.486449424174	0
7	514	1245.12448508443	0
7	520	1251.174440244616	0
7	531	1268.667362010699	0
7	547	1321.142545848953	0
7	554	1338.21812368407	0
7	557	1341.559542662263	0
7	569	1370.411288633291	0
7	576	1380.415810387932	0
7	585	1402.009062269573	0
7	588	1408.87268628427	4.829283314472
7	602	1435.572130525238	0
7	606	1437.315123431991	0
7	617	1464.8818680639	0
7	635	1508.385206963064	0
7	665	1557.46223702778	0
7	668	1561.314414566287	3.496435671782
7	676	1579.940178275986	0
7	688	1608.338295609274	0
7	717	1680.129639274647	0
7	725	1692.228364982624	0
7	732	1709.324500286195	5.559943856902
7	738	1728.370007580682	0
7	743	1731.214475203443	0
7	750	1743.476071357903	0
7	754	1754.206337144157	0
7	771	1776.54088315925	6.445373738738
7	772	1781.230729617264	7.504599812978
7	781	1813.615637933973	37.490423031395
7	786	1829.052110276993	0
7	803	1886.580566597369	0
7	806	1891.559792659094	3.538278442698
7	813	1905.415396892295	0
7	824	1934.943423605723	0
7	827	1946.881725636694	8.036608073166
7	832	1962.639855231211	0
7	849	2002.113212525367	0
7	870	2053.438566885625	0
7	873	2057.920811426925	0
7	876	2064.57567663793	0
7	893	2108.261740607993	0
7	907	2166.577670362266	0
7	931	2220.089581922891	0
7	942	2233.08944217134	0
7	945	2244.211704389751	0
7	956	2286.363507756744	0
7	970	2313.67144743344	0
7	977	2332.984309474556	8.785186279031
7	995	2385.962997380867	0
7	1026	2450.57152504087	0
8	145	361.253872248248	4
8	152	382.033569988247	5
8	157	386.094833956454	6
8	159	386.647961139654	7
8	163	389.11721552314	8
8	167	392.226410515015	9
8	169	392.907147651836	10
8	171	396.36227194133	11
8	179	437.031828547986	12
8	183	448.318011895377	12
8	185	449.686015902366	13
8	187	453.261598126964	14
8	190	457.149607354789	14
8	192	459.167132141822	15
8	194	459.902982320572	16
8	198	465.705246785592	17
8	200	468.251201226019	18
8	203	475.822507308272	19
8	205	480.825237471622	20
8	210	509.866602764496	18
8	214	532.51419919372	17
8	216	539.722009720888	18
8	219	543.960260144784	18
8	225	555.155696511461	18
8	232	596.98708789577	14
8	234	598.284845066716	15
8	236	598.576374058973	16
8	239	602.620604624623	16
8	245	606.95438653281	17
8	248	610.162704550092	18
8	250	614.958540455523	19
8	254	623.406264846895	20
8	257	637.852286977402	21
8	262	648.643934406955	22
8	267	676.580654484565	21
8	269	679.89463627924	22
8	272	683.746700318794	22
8	274	685.331815749873	23
8	276	690.996536964801	24
8	278	692.204779726722	25
8	280	695.353883843244	26
8	284	706.298540363435	27
8	293	722.445853962356	22
8	295	723.104634167044	23
8	297	733.272343944783	24
8	299	739.797730469372	25
8	302	740.509362681322	25
8	305	750.972521332418	25
8	312	760.22695815373	24
8	316	761.712095157267	25
8	319	777.587614563966	26
8	321	789.201234791078	27
8	323	789.526551019467	28
8	326	789.861488633681	28
8	332	795.939403761245	29
8	336	819.542236411746	30
8	343	835.156933545261	29
8	345	837.724076214384	30
8	352	882.462444236032	26
8	354	890.900647318088	27
8	360	899.670495225509	26
8	364	902.698546084606	27
8	366	903.095442213722	28
8	368	905.089861502072	29
8	370	911.003404036779	30
8	372	915.690760576577	31
8	374	917.775434736723	32
8	379	924.213556890148	32
8	384	934.076817536199	30
8	386	936.960064299383	31
8	390	939.38482909942	30
8	394	957.912134853835	31
8	396	959.548743667564	32
8	399	978.23760579542	33
8	402	985.919423558647	33
8	405	998.744812864239	33
8	407	999.8027166863	34
8	410	1005.637083893272	34
8	416	1018.773414308077	33
8	421	1026.72492787685	32
8	426	1054.801043001804	33
8	428	1064.652973912992	34
8	439	1093.355992575201	32
8	441	1100.282182876396	33
8	443	1104.978036121906	34
8	448	1118.356984565768	35
8	454	1127.414208507312	36
8	456	1133.514281915121	37
8	459	1144.360864369609	38
8	462	1153.951718723298	39
8	465	1161.097070572118	39
8	470	1172.04226562065	39
8	474	1178.407903726891	39
8	476	1184.211304218178	40
8	478	1184.300423029734	41
8	480	1184.435390764814	42
8	482	1185.138503952723	43
8	486	1185.401070630046	44
8	490	1191.107114039485	44
8	493	1194.270322303708	44
8	495	1199.917749928224	45
8	500	1215.207056702361	46
8	502	1217.263576943163	47
8	516	1245.863388766485	38
8	523	1253.407346792082	38
8	525	1254.654480348304	39
8	528	1263.794569950446	39
8	537	1277.485357624897	36
8	540	1290.248085656458	36
8	549	1328.607576263913	32
8	551	1332.266115075993	33
8	560	1345.999171837684	34
8	562	1351.180955470854	35
8	565	1358.024277942655	35
8	571	1375.328048318735	34
8	573	1376.578224452794	35
8	578	1385.424457924955	36
8	583	1400.686626234377	35
8	590	1412.945932439393	36
8	592	1413.277010384735	37
8	595	1420.422398902746	38
8	597	1421.552048863122	39
8	608	1439.27524498052	36
8	610	1441.998615398113	37
8	613	1454.752516381548	38
8	615	1458.614725343514	39
8	621	1478.733427612972	39
8	629	1505.301943959205	34
8	632	1507.576092677335	34
8	639	1513.948258337622	33
8	641	1517.494098948675	34
8	646	1523.807210772095	32
8	652	1530.266107318484	29
8	658	1547.121827412251	26
8	661	1553.926200376688	26
8	663	1556.691645862258	27
8	670	1566.048321592974	28
8	674	1575.850548390337	28
8	678	1592.939572376582	29
8	682	1600.440615470523	29
8	686	1607.942529139216	28
8	691	1617.209974063659	29
8	697	1645.212310001142	26
8	699	1648.295608035408	27
8	706	1661.146836982142	23
8	709	1666.811507272016	23
8	711	1668.780869812961	24
8	714	1675.853363345013	24
8	719	1685.52198025974	24
8	722	1690.619515589583	25
8	727	1698.881351353874	25
8	729	1702.270853690546	26
8	735	1716.684891854079	27
8	748	1742.107707459114	23
8	756	1758.540050622779	23
8	758	1763.847708067724	24
8	760	1767.394836815643	25
8	762	1769.754296063747	26
8	766	1771.243760096415	27
8	774	1797.197225012532	28
8	776	1807.286711899146	29
8	778	1812.682840100208	30
8	780	1812.766270975972	31
8	783	1814.271161976253	32
8	788	1829.810402453992	33
8	790	1830.86100559469	34
8	794	1837.834111699134	34
8	801	1863.053869228857	30
8	819	1921.548888446662	24
8	822	1925.084728108583	24
8	836	1966.461828507534	22
8	843	1996.442726234962	18
8	845	1999.018505728651	19
8	852	2003.133855187522	18
8	857	2022.102208161922	16
8	859	2026.984715526444	17
8	864	2043.741429300996	15
8	879	2068.035895002599	12
8	881	2070.729528780533	13
8	883	2082.060564272508	14
8	889	2092.756536328325	11
8	891	2107.788762825608	12
8	899	2145.586000304457	10
8	903	2157.470008204503	9
8	910	2170.621603874021	8
8	915	2197.669224470044	6
8	917	2198.674373501187	7
8	921	2203.554715304965	6
8	923	2210.498316660967	7
8	926	2212.274921811409	7
8	928	2218.480584148708	8
8	934	2221.48183917862	8
8	936	2221.489280892939	9
8	938	2223.125972974633	10
8	951	2268.169216379668	6
8	954	2280.874800280286	6
8	960	2301.881038404028	6
8	964	2309.910991732672	5
8	968	2312.359914615875	4
8	972	2318.170158082466	5
8	976	2327.468414806708	6
8	979	2343.996904793849	7
8	982	2350.382606851478	8
8	984	2358.611579696822	9
8	987	2363.060537216027	9
8	989	2373.50460996526	10
8	993	2381.039792987798	9
8	997	2386.087771682966	10
8	999	2394.407798511697	11
8	1003	2404.565149470387	11
8	1009	2422.495692925158	8
8	1011	2423.823415495132	9
8	1013	2424.472143381992	10
8	1016	2430.129653405028	10
8	1018	2439.453006626528	11
8	1024	2446.289358719912	8
8	1028	2453.293347744151	9
8	1030	2458.70246381101	10
8	1032	2460.449554175474	11
8	1034	2464.794619718189	12
8	1036	2466.366369433583	13
8	1039	2477.751206080727	14
8	1042	2487.907921574443	14
8	1045	2491.854625862879	14
9	146	365.575308492821	15
9	153	382.946508293654	16
9	172	404.276389946108	17
9	173	405.006935791054	18
9	174	419.275195688762	19
9	177	435.809887776295	20
9	180	445.628900680959	21
9	201	470.839232010003	22
9	223	554.300963848064	23
9	246	609.792480695606	24
9	255	626.618074491789	25
9	258	638.160026031934	26
9	263	652.856528432178	27
9	285	711.347781484527	28
9	310	756.29523035537	29
9	317	771.578322893829	30
9	333	797.513537390766	31
9	334	805.885776125406	32
9	339	829.474892068113	33
9	375	918.654111906292	34
9	376	919.585106190569	35
9	397	975.229978357007	36
9	417	1019.488709704807	37
9	424	1051.281143205457	38
9	432	1078.891967146533	39
9	435	1082.022150807964	40
9	446	1115.964932657168	41
9	457	1140.373235873107	42
9	460	1153.162705943319	43
9	471	1175.129741466176	44
9	487	1188.350562856406	45
9	498	1213.064104941359	46
9	517	1248.003716861722	47
9	521	1252.885699313903	48
9	532	1269.555377825303	49
9	552	1336.106032504705	50
9	555	1338.875781941359	51
9	558	1342.823968581529	52
9	574	1379.766178042445	53
9	579	1391.597577848688	54
9	588	1408.87268628427	55
9	593	1413.822070654162	56
9	603	1436.001756712854	57
9	611	1448.784752349957	58
9	618	1469.783393339029	59
9	636	1508.72978908629	60
9	668	1561.314414566287	61
9	671	1568.596643309898	62
9	679	1594.068202921793	63
9	689	1612.720121330637	64
9	720	1689.619490671656	65
9	732	1709.324500286195	66
9	733	1716.235482001241	67
9	739	1728.906975241383	68
9	744	1737.243118932161	69
9	751	1748.77168056617	70
9	771	1776.54088315925	71
9	772	1781.230729617264	72
9	781	1813.615637933973	73
9	784	1822.135823548755	74
9	791	1832.146395573693	75
9	806	1891.559792659094	76
9	807	1893.616832370911	77
9	814	1909.593910802826	78
9	827	1946.881725636694	79
9	828	1950.690813928057	80
9	833	1963.133391629717	81
9	850	2002.442879386675	82
9	871	2056.840005750444	83
9	874	2059.558733156093	84
9	877	2065.120140711217	85
9	894	2113.115206572037	86
9	908	2169.463168429915	87
9	932	2220.371899915305	88
9	943	2233.636808480302	89
9	946	2244.256837545136	90
9	957	2288.934970773982	91
9	977	2332.984309474556	92
9	980	2344.692779951999	93
9	1000	2394.451104558786	94
9	1037	2468.257283412499	95
10	146	365.575308492821	5.011530542262
10	153	382.946508293654	13.123070797071
10	172	404.276389946108	28.895186409823
10	173	405.006935791054	20.446161354207
10	174	419.275195688762	31.939782379411
10	177	435.809887776295	43.58556712461
10	180	445.628900680959	18.714813218588
10	201	470.839232010003	9.381985608468
10	223	554.300963848064	0.863360089085
10	246	609.792480695606	5.472005013127
10	255	626.618074491789	22.178916340278
10	258	638.160026031934	21.433439639752
10	263	652.856528432178	14.594924139907
10	285	711.347781484527	6.644409111121
10	310	756.29523035537	1.353204691207
10	317	771.578322893829	10.012340097135
10	333	797.513537390766	7.504353020273
10	334	805.885776125406	14.943737855551
10	339	829.474892068113	0.155222324146
10	375	918.654111906292	26.316953236949
10	376	919.585106190569	16.893862943235
10	397	975.229978357007	33.542334047551
10	417	1019.488709704807	2.852508796097
10	424	1051.281143205457	11.291571502511
10	432	1078.891967146533	1.289033445564
10	435	1082.022150807964	0.19103188542
10	446	1115.964932657168	10.67155239138
10	457	1140.373235873107	19.063814535341
10	460	1153.162705943319	27.252802910467
10	471	1175.129741466176	3.968851328741
10	487	1188.350562856406	3.169101891063
10	498	1213.064104941359	1.577655517185
10	517	1248.003716861722	2.879231777292
10	521	1252.885699313903	1.711259069287
10	532	1269.555377825303	0.888015814604
10	552	1336.106032504705	14.963486655752
10	555	1338.875781941359	0.657658257289
10	558	1342.823968581529	1.264425919266
10	574	1379.766178042445	9.354889409154
10	579	1391.597577848688	11.181767460756
10	588	1408.87268628427	6.863624014697
10	593	1413.822070654162	9.778667684364
10	603	1436.001756712854	0.429626187616
10	611	1448.784752349957	11.469628917966
10	618	1469.783393339029	4.901525275129
10	636	1508.72978908629	0.344582123226
10	668	1561.314414566287	3.852177538507
10	671	1568.596643309898	10.778664415393
10	679	1594.068202921793	14.128024645807
10	689	1612.720121330637	4.381825721363
10	720	1689.619490671656	9.489851397009
10	732	1709.324500286195	17.096135303571
10	733	1716.235482001241	12.470925571948
10	739	1728.906975241383	0.536967660701
10	744	1737.243118932161	6.028643728718
10	751	1748.77168056617	5.295609208267
10	771	1776.54088315925	22.334546015093
10	772	1781.230729617264	11.135220196752
10	781	1813.615637933973	39.889508129687
10	784	1822.135823548755	46.010608646177
10	791	1832.146395573693	3.0942852967
10	806	1891.559792659094	4.979226061725
10	807	1893.616832370911	5.595318154515
10	814	1909.593910802826	4.178513910531
10	827	1946.881725636694	11.938302030971
10	828	1950.690813928057	11.845696364529
10	833	1963.133391629717	0.493536398506
10	850	2002.442879386675	0.329666861308
10	871	2056.840005750444	3.401438864819
10	874	2059.558733156093	1.637921729168
10	877	2065.120140711217	0.544464073287
10	894	2113.115206572037	4.853465964044
10	908	2169.463168429915	2.885498067649
10	932	2220.371899915305	0.282317992414
10	943	2233.636808480302	0.547366308962
10	946	2244.256837545136	0.045133155385
10	957	2288.934970773982	2.571463017238
10	977	2332.984309474556	19.312862041116
10	980	2344.692779951999	20.493656756474
10	1000	2394.451104558786	8.488107177919
10	1037	2468.257283412499	17.685758371629
11	1046	2500	0.0976
12	1046	2500	0.038

