version 2
run factors_calibration_minions-164-20230303-19:02:32-26678
attr configname factors_calibration_minions
attr datetime 20230303-19:02:32
attr experiment factors_calibration_minions
attr inifile omnetpp.ini
attr iterationvars $0=10
attr iterationvarsf 10-
attr measurement $0=10
attr network Network
attr processid 26678
attr repetition 14
attr replication #14
attr resultdir results
attr runnumber 164
attr seedset 14
param *.minion.arrival_mean 20
param *.minion.service_mean 10
param *.boss.arrival_mean 20
param *.boss.service_mean 3
param *.player.recover_rate_x 100
param **.minion.arrival_distribution 0
param **.minion.service_distribution 0
param **.boss.arrival_distribution 0
param **.boss.service_distribution 0

vector 0 Network.player boss_defeated_stat:vector ETV
attr source signal_boss_defeated
vector 1 Network.player boss_jobs_queue_number_stat:vector ETV
attr source signal_boss_jobs_queue_number
vector 2 Network.player boss_response_time_stat:vector ETV
attr source signal_boss_response_time
vector 3 Network.player minion_waiting_time_stat:vector ETV
attr source signal_minion_waiting_time
vector 4 Network.player minion_defeated_stat:vector ETV
attr source signal_minion_defeated
vector 5 Network.player minion_jobs_queue_number_stat:vector ETV
attr source signal_minion_jobs_queue_number
vector 6 Network.player minion_response_time_stat:vector ETV
attr source signal_minion_response_time
vector 7 Network.player boss_jobs_number_stat:vector ETV
attr source signal_boss_jobs_number
vector 8 Network.player minion_recovered_stat:vector ETV
attr source signal_minion_recovered
vector 9 Network.player boss_waiting_time_stat:vector ETV
attr source signal_boss_waiting_time
vector 10 Network.player minion_jobs_number_stat:vector ETV
attr source signal_minion_jobs_number
vector 11 Network.player minion_throughput:vector ETV
attr source signal_minion_throughput
vector 12 Network.player boss_throughput:vector ETV
attr source signal_boss_throughput
0	90	351.09088309507	15
0	94	359.46869569496	16
0	104	391.792029025686	17
0	107	401.452279929001	18
0	127	468.414958357562	19
0	130	475.558121873326	20
0	142	509.464378639723	21
0	156	556.032664092207	22
0	161	563.350590847717	23
0	168	618.289582320411	24
0	171	620.44548998602	25
0	177	666.408087544769	26
0	180	676.690444738156	27
0	185	684.504398402374	28
0	194	713.276535530066	29
0	204	759.039237347662	30
0	207	766.139760323998	31
0	213	785.314511306014	32
0	219	806.469763336852	33
0	222	818.458800116194	34
0	227	823.548035335893	35
0	234	832.732688415701	36
0	235	833.095287192112	37
0	240	854.799655407006	38
0	255	912.49460217295	39
0	258	920.270074696147	40
0	263	925.849966766713	41
0	270	937.466864675697	42
0	275	943.424582079696	43
0	287	999.986724974722	44
0	294	1016.389126612058	45
0	299	1024.989948152926	46
0	302	1042.939809994533	47
0	312	1129.423602126833	48
0	315	1131.865624599067	49
0	318	1136.160834414981	50
0	323	1146.895306503116	51
0	326	1147.95143294783	52
0	333	1171.496717248489	53
0	336	1213.447178981466	54
0	339	1216.085384184372	55
0	345	1228.743657890555	56
0	350	1238.671787518301	57
0	357	1251.449830364726	58
0	358	1252.205748694071	59
0	363	1279.721800403477	60
0	368	1288.546936307771	61
0	371	1310.196460562426	62
0	374	1313.834040611234	63
0	378	1355.098642421072	64
0	385	1375.120690844899	65
0	388	1376.159781569958	66
0	393	1386.762927322915	67
0	399	1400.890195579732	68
0	405	1410.266579099464	69
0	411	1423.0687697568	70
0	414	1430.991559644632	71
0	417	1435.937213689538	72
0	422	1458.926215768175	73
0	425	1474.196078137635	74
0	429	1494.125236414568	75
0	441	1540.27987981509	76
0	444	1556.201755699704	77
0	447	1564.054868404419	78
0	450	1597.438521938071	79
0	455	1607.237269368217	80
0	460	1611.139647975362	81
0	485	1709.061250697969	82
0	486	1717.278911930796	83
0	491	1723.489843122702	84
0	495	1746.23608609542	85
0	498	1753.91494743977	86
0	501	1767.324979360839	87
0	504	1774.353964510022	88
0	512	1806.666741735366	89
0	517	1817.955111988025	90
0	521	1825.931232032872	91
0	525	1847.881501807889	92
0	528	1869.43670732295	93
0	534	1888.76286044719	94
0	548	1933.412195008058	95
0	549	1935.947855673689	96
0	557	1960.215397220159	97
0	558	1962.051395878913	98
0	570	2017.027831502012	99
0	581	2062.826485264768	100
0	601	2131.524114647873	101
0	607	2163.773655274191	102
0	612	2170.773842855526	103
0	617	2173.932273272674	104
0	638	2264.487175235999	105
0	646	2303.330781606265	106
0	651	2310.110432681704	107
0	672	2339.227863556751	108
0	679	2354.86783866137	109
0	684	2366.951015995857	110
0	685	2368.202203746524	111
0	699	2414.229122638375	112
0	707	2442.150238994815	113
0	715	2465.745802194706	114
1	90	351.09088309507	0
1	93	357.206506079018	0
1	94	359.46869569496	0
1	103	391.047324288703	0
1	104	391.792029025686	0
1	106	395.908292557247	0
1	107	401.452279929001	0
1	126	465.277290456284	0
1	127	468.414958357562	0
1	129	475.393105182559	0
1	130	475.558121873326	0
1	141	506.499791779649	0
1	142	509.464378639723	0
1	155	552.180011467169	0
1	156	556.032664092207	0
1	160	561.762733894234	0
1	161	563.350590847717	0
1	167	615.348425057337	0
1	168	618.289582320411	0
1	170	618.900269317537	0
1	171	620.44548998602	0
1	176	659.041663215175	0
1	177	666.408087544769	0
1	179	674.896049565265	0
1	180	676.690444738156	0
1	182	682.19995766715	0
1	185	684.504398402374	0
1	193	712.477119971921	0
1	194	713.276535530066	0
1	203	758.572252174628	0
1	204	759.039237347662	0
1	206	765.706999917469	0
1	207	766.139760323998	0
1	212	784.978755077148	0
1	213	785.314511306014	0
1	218	806.137931290683	0
1	219	806.469763336852	0
1	221	814.592706334832	0
1	222	818.458800116194	0
1	224	821.626426792798	0
1	227	823.548035335893	0
1	229	824.836198466085	0
1	231	825.499667755023	1
1	234	832.732688415701	1
1	235	833.095287192112	0
1	239	852.060948218651	0
1	240	854.799655407006	0
1	254	911.483787810045	0
1	255	912.49460217295	0
1	257	917.070564889174	0
1	258	920.270074696147	0
1	260	920.385567146477	0
1	263	925.849966766713	0
1	267	935.754445185036	0
1	270	937.466864675697	0
1	274	942.293628006038	0
1	275	943.424582079696	0
1	286	999.060599541854	0
1	287	999.986724974722	0
1	293	1016.150775054257	0
1	294	1016.389126612058	0
1	298	1022.394637542636	0
1	299	1024.989948152926	0
1	301	1038.538246586789	0
1	302	1042.939809994533	0
1	311	1129.314636342715	0
1	312	1129.423602126833	0
1	314	1130.970527845427	0
1	315	1131.865624599067	0
1	317	1135.120469468102	0
1	318	1136.160834414981	0
1	320	1138.721968208374	0
1	322	1140.538363023018	1
1	323	1146.895306503116	1
1	326	1147.95143294783	0
1	332	1166.545317567146	0
1	333	1171.496717248489	0
1	335	1212.235030563073	0
1	336	1213.447178981466	0
1	338	1214.859992130296	0
1	339	1216.085384184372	0
1	344	1227.485883194672	0
1	345	1228.743657890555	0
1	349	1236.643816917823	0
1	350	1238.671787518301	0
1	352	1245.185824588694	0
1	354	1245.473148778668	1
1	357	1251.449830364726	1
1	358	1252.205748694071	0
1	362	1272.319734415131	0
1	363	1279.721800403477	0
1	367	1286.83813706964	0
1	368	1288.546936307771	0
1	370	1305.235701771402	0
1	371	1310.196460562426	0
1	373	1310.732245537385	0
1	374	1313.834040611234	0
1	377	1351.241493944332	0
1	378	1355.098642421072	0
1	380	1365.328541869756	0
1	385	1375.120690844899	0
1	387	1375.741575967684	0
1	388	1376.159781569958	0
1	392	1385.026190838092	0
1	393	1386.762927322915	0
1	398	1399.267833290923	0
1	399	1400.890195579732	0
1	404	1408.531804252156	0
1	405	1410.266579099464	0
1	410	1416.866283432641	0
1	411	1423.0687697568	0
1	413	1427.924704791414	0
1	414	1430.991559644632	0
1	416	1434.313057492983	0
1	417	1435.937213689538	0
1	421	1451.59723784495	0
1	422	1458.926215768175	0
1	424	1473.378666856534	0
1	425	1474.196078137635	0
1	428	1491.689037357241	0
1	429	1494.125236414568	0
1	440	1538.272590616996	0
1	441	1540.27987981509	0
1	443	1553.901690264833	0
1	444	1556.201755699704	0
1	446	1558.54260141757	0
1	447	1564.054868404419	0
1	449	1595.681554309851	0
1	450	1597.438521938071	0
1	454	1603.998637226888	0
1	455	1607.237269368217	0
1	459	1610.690213821691	0
1	460	1611.139647975362	0
1	482	1706.356756001619	0
1	484	1708.08451424638	1
1	485	1709.061250697969	1
1	486	1717.278911930796	0
1	490	1721.710537312419	0
1	491	1723.489843122702	0
1	494	1743.189173685306	0
1	495	1746.23608609542	0
1	497	1753.349503705846	0
1	498	1753.91494743977	0
1	500	1758.340419657439	0
1	501	1767.324979360839	0
1	503	1770.084095394452	0
1	504	1774.353964510022	0
1	511	1804.85575399758	0
1	512	1806.666741735366	0
1	516	1814.320946502234	0
1	517	1817.955111988025	0
1	520	1824.452226560445	0
1	521	1825.931232032872	0
1	524	1844.071205200833	0
1	525	1847.881501807889	0
1	527	1866.574068671975	0
1	528	1869.43670732295	0
1	533	1882.268336137148	0
1	534	1888.76286044719	0
1	545	1930.068896973113	0
1	547	1932.893391889637	1
1	548	1933.412195008058	1
1	549	1935.947855673689	0
1	554	1955.889998953772	0
1	556	1959.222495235312	1
1	557	1960.215397220159	1
1	558	1962.051395878913	0
1	569	2015.913112375529	0
1	570	2017.027831502012	0
1	578	2059.313257916285	0
1	581	2062.826485264768	0
1	600	2130.479222310669	0
1	601	2131.524114647873	0
1	606	2152.854575283436	0
1	607	2163.773655274191	0
1	611	2170.102954966602	0
1	612	2170.773842855526	0
1	616	2172.239960610976	0
1	617	2173.932273272674	0
1	637	2263.481900039759	0
1	638	2264.487175235999	0
1	645	2300.279199629124	0
1	646	2303.330781606265	0
1	648	2306.50332956852	0
1	651	2310.110432681704	0
1	665	2330.823323660804	0
1	672	2339.227863556751	0
1	678	2347.179264871828	0
1	679	2354.86783866137	0
1	681	2366.470211685635	0
1	683	2366.72911705343	1
1	684	2366.951015995857	1
1	685	2368.202203746524	0
1	698	2410.9013658636	0
1	699	2414.229122638375	0
1	706	2438.53470917593	0
1	707	2442.150238994815	0
1	714	2464.141668652333	0
1	715	2465.745802194706	0
2	90	351.09088309507	2.490204323503
2	94	359.46869569496	2.262189615942
2	104	391.792029025686	0.744704736983
2	107	401.452279929001	5.543987371754
2	127	468.414958357562	3.137667901278
2	130	475.558121873326	0.165016690767
2	142	509.464378639723	2.964586860074
2	156	556.032664092207	3.852652625038
2	161	563.350590847717	1.587856953483
2	168	618.289582320411	2.941157263074
2	171	620.44548998602	1.545220668483
2	177	666.408087544769	7.366424329594
2	180	676.690444738156	1.794395172891
2	185	684.504398402374	2.304440735224
2	194	713.276535530066	0.799415558145
2	204	759.039237347662	0.466985173034
2	207	766.139760323998	0.432760406529
2	213	785.314511306014	0.335756228866
2	219	806.469763336852	0.331832046169
2	222	818.458800116194	3.866093781362
2	227	823.548035335893	1.921608543095
2	234	832.732688415701	7.896489949616
2	235	833.095287192112	7.595619437089
2	240	854.799655407006	2.738707188355
2	255	912.49460217295	1.010814362905
2	258	920.270074696147	3.199509806973
2	263	925.849966766713	5.464399620236
2	270	937.466864675697	1.712419490661
2	275	943.424582079696	1.130954073658
2	287	999.986724974722	0.926125432868
2	294	1016.389126612058	0.238351557801
2	299	1024.989948152926	2.59531061029
2	302	1042.939809994533	4.401563407744
2	312	1129.423602126833	0.108965784118
2	315	1131.865624599067	0.89509675364
2	318	1136.160834414981	1.040364946879
2	323	1146.895306503116	8.173338294742
2	326	1147.95143294783	7.413069924812
2	333	1171.496717248489	4.951399681343
2	336	1213.447178981466	1.212148418393
2	339	1216.085384184372	1.225392054076
2	345	1228.743657890555	1.257774695883
2	350	1238.671787518301	2.027970600478
2	357	1251.449830364726	6.264005776032
2	358	1252.205748694071	6.732599915403
2	363	1279.721800403477	7.402065988346
2	368	1288.546936307771	1.708799238131
2	371	1310.196460562426	4.960758791024
2	374	1313.834040611234	3.101795073849
2	378	1355.098642421072	3.85714847674
2	385	1375.120690844899	9.792148975143
2	388	1376.159781569958	0.418205602274
2	393	1386.762927322915	1.736736484823
2	399	1400.890195579732	1.622362288809
2	405	1410.266579099464	1.734774847308
2	411	1423.0687697568	6.202486324159
2	414	1430.991559644632	3.066854853218
2	417	1435.937213689538	1.624156196555
2	422	1458.926215768175	7.328977923225
2	425	1474.196078137635	0.817411281101
2	429	1494.125236414568	2.436199057327
2	441	1540.27987981509	2.007289198094
2	444	1556.201755699704	2.300065434871
2	447	1564.054868404419	5.512266986849
2	450	1597.438521938071	1.75696762822
2	455	1607.237269368217	3.238632141329
2	460	1611.139647975362	0.449434153671
2	485	1709.061250697969	2.70449469635
2	486	1717.278911930796	9.194397684416
2	491	1723.489843122702	1.779305810283
2	495	1746.23608609542	3.046912410114
2	498	1753.91494743977	0.565443733924
2	501	1767.324979360839	8.9845597034
2	504	1774.353964510022	4.26986911557
2	512	1806.666741735366	1.810987737786
2	517	1817.955111988025	3.634165485791
2	521	1825.931232032872	1.479005472427
2	525	1847.881501807889	3.810296607056
2	528	1869.43670732295	2.862638650975
2	534	1888.76286044719	6.494524310042
2	548	1933.412195008058	3.343298034945
2	549	1935.947855673689	3.054463784052
2	557	1960.215397220159	4.325398266387
2	558	1962.051395878913	2.828900643601
2	570	2017.027831502012	1.114719126483
2	581	2062.826485264768	3.513227348483
2	601	2131.524114647873	1.044892337204
2	607	2163.773655274191	10.919079990755
2	612	2170.773842855526	0.670887888924
2	617	2173.932273272674	1.692312661698
2	638	2264.487175235999	1.00527519624
2	646	2303.330781606265	3.051581977141
2	651	2310.110432681704	3.607103113184
2	672	2339.227863556751	8.404539895947
2	679	2354.86783866137	7.688573789542
2	684	2366.951015995857	0.480804310222
2	685	2368.202203746524	1.473086693094
2	699	2414.229122638375	3.327756774775
2	707	2442.150238994815	3.615529818885
2	715	2465.745802194706	1.604133542373
3	90	351.09088309507	30.60270615528
3	91	357.091108137089	17.886539736749
3	94	359.46869569496	10.868016923393
3	99	384.328902543293	27.122396464275
3	104	391.792029025686	29.343361952677
3	107	401.452279929001	22.377967941474
3	108	412.137609225335	23.122920987818
3	109	417.666024227467	26.618699938764
3	112	425.93506947035	30.026776913103
3	115	431.023569382701	8.808384048161
3	116	435.089392891249	4.979744884485
3	119	454.477005576202	0
3	124	464.72321947969	8.357909813631
3	127	468.414958357562	12.033071680998
3	130	475.558121873326	10.280831417042
3	139	498.424511178787	23.031405996228
3	142	509.464378639723	17.140889651755
3	143	514.920513364726	21.527971291461
3	146	518.861248496445	23.445505873632
3	147	527.588049793807	31.716085017394
3	148	530.429377194559	23.92958541491
3	149	539.630013451322	22.901397808571
3	152	542.039951940941	1.452628555452
3	158	556.535444312645	0
3	161	563.350590847717	1.587856953483
3	164	593.900074769587	0
3	173	631.807909890945	0
3	185	684.504398402374	1.663550988571
3	188	702.708189135878	13.701009751738
3	191	710.067891071385	0
3	194	713.276535530066	0.799415558145
3	197	721.695296528894	0
3	200	747.907770069661	16.26971427095
3	209	774.191437484025	0
3	215	796.176116146961	0
3	227	823.548035335893	0.708678435611
3	235	833.095287192112	8.259088726027
3	240	854.799655407006	28.612800635952
3	241	874.261488115511	23.134241195525
3	242	874.797184368266	22.736236149615
3	247	878.087574225924	2.754655987008
3	248	882.001217879969	5.94182451128
3	255	912.49460217295	16.864445926956
3	258	920.270074696147	24.241348722987
3	263	925.849966766713	14.366178956668
3	270	937.466864675697	20.396299786523
3	271	939.295870601142	18.910303454665
3	272	940.394826003768	18.955876388001
3	275	943.424582079696	14.041738305721
3	276	948.566057645443	12.811612460407
3	281	976.145621709762	39.51811431682
3	282	989.122034163257	46.828406157219
3	287	999.986724974722	46.802014630836
3	288	1000.732199345081	38.732275130358
3	289	1002.060883893719	12.674806691943
3	290	1002.254680033622	3.194080491768
3	296	1021.182658138459	0
3	299	1024.989948152926	2.59531061029
3	302	1042.939809994533	4.401563407744
3	307	1060.285006646396	12.947664511591
3	308	1073.061707497866	17.865119310375
3	326	1147.95143294783	0.265493157112
3	329	1156.910875055942	0
3	341	1223.110827368838	0
3	347	1231.878705429919	0
3	350	1238.671787518301	2.027970600478
3	358	1252.205748694071	7.019924105377
3	359	1252.877253564735	5.019711041741
3	365	1281.347950758922	0
3	368	1288.546936307771	1.708799238131
3	371	1310.196460562426	4.960758791024
3	374	1313.834040611234	3.101795073849
3	385	1375.120690844899	4.87481908795
3	388	1376.159781569958	1.937858761452
3	389	1376.197425594086	0.455849626402
3	395	1388.458519845585	0
3	401	1402.889517554051	0
3	407	1411.498175062876	0
3	419	1450.443387813601	0
3	422	1458.926215768175	7.328977923225
3	425	1474.196078137635	0.817411281101
3	431	1504.009250218594	0
3	434	1510.971870146877	0
3	437	1515.539569262029	0
3	452	1600.288169990751	0
3	455	1607.237269368217	3.238632141329
3	460	1611.139647975362	0.596044148267
3	463	1622.318940647958	11.628726826267
3	470	1655.274930533345	39.634731543164
3	471	1663.613286283403	35.192457975005
3	474	1679.557099546071	46.270306105708
3	477	1703.227744650295	66.974955890635
3	480	1704.102080147249	35.468411626279
3	486	1717.278911930796	22.810810978613
3	491	1723.489843122702	19.916921498344
3	492	1727.15543354093	20.798677539311
3	495	1746.23608609542	25.038092451833
3	498	1753.91494743977	32.204410127351
3	501	1767.324979360839	24.135805675533
3	504	1774.353964510022	21.004460804176
3	505	1786.529924293042	28.189504635603
3	512	1806.666741735366	36.582646340914
3	513	1807.751260907279	17.855258096488
3	514	1813.76797012857	20.467450184675
3	517	1817.955111988025	13.099357990445
3	518	1822.519637700254	8.19869119802
3	521	1825.931232032872	1.479005472427
3	530	1869.639918126218	0
3	536	1900.482609796129	0
3	539	1919.634020409066	3.508754753662
3	542	1920.723854506991	0.984016046844
3	551	1953.551655045027	0
3	560	1980.829601205623	0
3	563	2004.919794299681	0
3	570	2017.027831502012	6.106093622588
3	571	2024.765100696241	11.862928269105
3	572	2033.019438883131	17.106326507602
3	575	2040.808317553348	0
3	581	2062.826485264768	1.082217210382
3	594	2101.339331532057	36.83453835076
3	595	2104.587731687026	38.481156650804
3	596	2111.601400657045	44.979832193856
3	597	2122.642199584087	55.420998407714
3	598	2127.600576711045	56.493569803814
3	601	2131.524114647873	49.04401684704
3	602	2142.559392759509	12.08017044884
3	607	2163.773655274191	12.786096415728
3	612	2170.773842855526	17.91926757209
3	617	2173.932273272674	9.702245189478
3	618	2178.040289154605	7.937334188003
3	621	2186.445066781526	15.580582434856
3	622	2195.589597371482	23.349636760506
3	623	2199.100939264701	15.07240924864
3	626	2219.828340233889	0.791218393251
3	629	2229.377875980709	0
3	638	2264.487175235999	25.800001074601
3	639	2275.25298378974	26.623425146058
3	646	2303.330781606265	42.042056663046
3	651	2310.110432681704	46.628532641945
3	660	2323.537752588941	35.97443135717
3	661	2325.611646982435	33.87365619763
3	662	2330.222021649194	29.94282202007
3	663	2330.258373515714	23.755043947194
3	672	2339.227863556751	31.766898947208
3	673	2340.61275076074	29.83693741582
3	674	2343.964459770788	22.496061170077
3	679	2354.86783866137	33.366564213414
3	685	2368.202203746524	45.409705577356
3	690	2380.585765394582	49.762441733778
3	691	2381.21759716985	46.152392324446
3	692	2396.157358895974	60.9612531952
3	693	2396.901242877635	60.91341189278
3	696	2407.154362403003	60.751490873237
3	699	2414.229122638375	67.049857766547
3	700	2427.913556801245	61.44334511561
3	707	2442.150238994815	69.312743859817
3	708	2445.519842457465	65.625386094281
3	709	2445.597635745915	42.957953741971
3	712	2456.525987310369	45.624621446769
3	715	2465.745802194706	32.704462319442
3	718	2470.533921122683	34.333910451545
3	719	2471.979189477738	33.444480301808
3	722	2487.66870012259	34.262442999654
3	723	2493.226161297952	29.084492645619
4	91	357.091108137089	14
4	99	384.328902543293	15
4	108	412.137609225335	16
4	109	417.666024227467	17
4	112	425.93506947035	18
4	115	431.023569382701	19
4	116	435.089392891249	20
4	117	435.834515971148	21
4	124	464.72321947969	22
4	139	498.424511178787	23
4	143	514.920513364726	24
4	146	518.861248496445	25
4	147	527.588049793807	26
4	148	530.429377194559	27
4	149	539.630013451322	28
4	152	542.039951940941	29
4	153	542.327752116068	30
4	162	564.677642366687	31
4	165	596.817238034395	32
4	174	638.116468043471	33
4	188	702.708189135878	34
4	189	703.76887632941	35
4	195	720.692255203785	36
4	200	747.907770069661	37
4	201	753.746313554881	38
4	210	775.946726398949	39
4	216	802.822574975054	40
4	241	874.261488115511	41
4	242	874.797184368266	42
4	247	878.087574225924	43
4	248	882.001217879969	44
4	271	939.295870601142	45
4	272	940.394826003768	46
4	276	948.566057645443	47
4	281	976.145621709762	48
4	282	989.122034163257	49
4	288	1000.732199345081	50
4	289	1002.060883893719	51
4	290	1002.254680033622	52
4	291	1014.760678858613	53
4	307	1060.285006646396	54
4	308	1073.061707497866	55
4	309	1107.559468015894	56
4	327	1148.374934045451	57
4	330	1159.320263869294	58
4	342	1223.299093839578	59
4	359	1252.877253564735	60
4	360	1253.743052643781	61
4	375	1320.586984388488	62
4	389	1376.197425594086	63
4	390	1379.378135157888	64
4	396	1394.064662674804	65
4	402	1402.975161363931	66
4	408	1411.697450903187	67
4	426	1491.114284006911	68
4	432	1510.202046487208	69
4	435	1513.216553486797	70
4	438	1526.613675300597	71
4	463	1622.318940647958	72
4	470	1655.274930533345	73
4	471	1663.613286283403	74
4	474	1679.557099546071	75
4	477	1703.227744650295	76
4	480	1704.102080147249	77
4	492	1727.15543354093	78
4	505	1786.529924293042	79
4	513	1807.751260907279	80
4	514	1813.76797012857	81
4	518	1822.519637700254	82
4	522	1836.467046893492	83
4	531	1876.094108998228	84
4	539	1919.634020409066	85
4	542	1920.723854506991	86
4	543	1928.584990280559	87
4	552	1955.015846640286	88
4	561	1983.029479132492	89
4	571	2024.765100696241	90
4	572	2033.019438883131	91
4	573	2034.879500027927	92
4	576	2047.88666241906	93
4	594	2101.339331532057	94
4	595	2104.587731687026	95
4	596	2111.601400657045	96
4	597	2122.642199584087	97
4	598	2127.600576711045	98
4	602	2142.559392759509	99
4	618	2178.040289154605	100
4	621	2186.445066781526	101
4	622	2195.589597371482	102
4	623	2199.100939264701	103
4	626	2219.828340233889	104
4	627	2222.012858410638	105
4	639	2275.25298378974	106
4	660	2323.537752588941	107
4	661	2325.611646982435	108
4	662	2330.222021649194	109
4	663	2330.258373515714	110
4	673	2340.61275076074	111
4	674	2343.964459770788	112
4	690	2380.585765394582	113
4	691	2381.21759716985	114
4	692	2396.157358895974	115
4	693	2396.901242877635	116
4	696	2407.154362403003	117
4	700	2427.913556801245	118
4	708	2445.519842457465	119
4	709	2445.597635745915	120
4	712	2456.525987310369	121
4	718	2470.533921122683	122
4	719	2471.979189477738	123
4	722	2487.66870012259	124
4	723	2493.226161297952	125
5	91	357.091108137089	2
5	96	362.448667073009	2
5	98	379.074311987527	3
5	99	384.328902543293	3
5	101	389.014688237517	3
5	108	412.137609225335	3
5	109	417.666024227467	2
5	111	422.21518533454	2
5	112	425.93506947035	2
5	114	430.109648006764	2
5	115	431.023569382701	2
5	116	435.089392891249	1
5	117	435.834515971148	0
5	119	454.477005576202	0
5	121	456.365309666059	1
5	123	456.381886676564	2
5	124	464.72321947969	2
5	132	492.323488987968	2
5	134	493.392542073265	3
5	136	495.415742622813	4
5	138	495.871964776413	5
5	139	498.424511178787	5
5	143	514.920513364726	4
5	145	516.728615642751	4
5	146	518.861248496445	4
5	147	527.588049793807	3
5	148	530.429377194559	2
5	149	539.630013451322	1
5	151	540.587323385489	1
5	152	542.039951940941	1
5	153	542.327752116068	0
5	158	556.535444312645	0
5	162	564.677642366687	0
5	164	593.900074769587	0
5	165	596.817238034395	0
5	173	631.807909890945	0
5	174	638.116468043471	0
5	184	682.840847413803	0
5	187	689.00717938414	1
5	188	702.708189135878	1
5	189	703.76887632941	0
5	191	710.067891071385	0
5	195	720.692255203785	0
5	197	721.695296528894	0
5	199	731.638055798711	1
5	200	747.907770069661	1
5	201	753.746313554881	0
5	209	774.191437484025	0
5	210	775.946726398949	0
5	215	796.176116146961	0
5	216	802.822574975054	0
5	226	822.839356900282	0
5	233	826.186854771054	1
5	237	851.127246919986	2
5	241	874.261488115511	2
5	242	874.797184368266	1
5	244	875.332918238916	1
5	246	876.059393368689	2
5	247	878.087574225924	2
5	248	882.001217879969	1
5	250	895.630156245994	1
5	252	896.02872597316	2
5	262	921.438949615767	3
5	265	929.382843773975	4
5	269	936.627507392942	5
5	271	939.295870601142	5
5	272	940.394826003768	4
5	276	948.566057645443	3
5	278	953.184710343886	3
5	280	961.999924214723	4
5	281	976.145621709762	4
5	282	989.122034163257	3
5	284	989.386077201776	3
5	288	1000.732199345081	3
5	289	1002.060883893719	2
5	290	1002.254680033622	1
5	291	1014.760678858613	0
5	296	1021.182658138459	0
5	304	1047.337342134805	1
5	306	1055.196588187491	2
5	307	1060.285006646396	2
5	308	1073.061707497866	1
5	309	1107.559468015894	0
5	325	1147.685939790718	0
5	327	1148.374934045451	0
5	329	1156.910875055942	0
5	330	1159.320263869294	0
5	341	1223.110827368838	0
5	342	1223.299093839578	0
5	347	1231.878705429919	0
5	356	1247.857542522994	1
5	359	1252.877253564735	1
5	360	1253.743052643781	0
5	365	1281.347950758922	0
5	375	1320.586984388488	0
5	382	1370.245871756949	0
5	384	1374.221922808506	1
5	389	1376.197425594086	1
5	390	1379.378135157888	0
5	395	1388.458519845585	0
5	396	1394.064662674804	0
5	401	1402.889517554051	0
5	402	1402.975161363931	0
5	407	1411.498175062876	0
5	408	1411.697450903187	0
5	419	1450.443387813601	0
5	426	1491.114284006911	0
5	431	1504.009250218594	0
5	432	1510.202046487208	0
5	434	1510.971870146877	0
5	435	1513.216553486797	0
5	437	1515.539569262029	0
5	438	1526.613675300597	0
5	452	1600.288169990751	0
5	457	1610.543603827095	1
5	462	1615.640198990181	2
5	463	1622.318940647958	2
5	465	1628.420828308398	2
5	467	1633.286793440363	3
5	469	1636.25278875966	4
5	470	1655.274930533345	4
5	471	1663.613286283403	3
5	473	1668.63366852097	3
5	474	1679.557099546071	3
5	476	1694.468100952183	3
5	477	1703.227744650295	3
5	479	1703.572921624358	3
5	480	1704.102080147249	3
5	488	1721.197993643587	3
5	492	1727.15543354093	3
5	505	1786.529924293042	2
5	507	1789.896002810791	2
5	509	1793.300519943895	3
5	513	1807.751260907279	3
5	514	1813.76797012857	2
5	518	1822.519637700254	1
5	522	1836.467046893492	0
5	530	1869.639918126218	0
5	531	1876.094108998228	0
5	536	1900.482609796129	0
5	538	1916.125265655404	1
5	539	1919.634020409066	1
5	541	1919.739838460147	1
5	542	1920.723854506991	1
5	543	1928.584990280559	0
5	551	1953.551655045027	0
5	552	1955.015846640286	0
5	560	1980.829601205623	0
5	561	1983.029479132492	0
5	563	2004.919794299681	0
5	565	2010.921737879424	1
5	567	2012.902172427136	2
5	571	2024.765100696241	2
5	572	2033.019438883131	1
5	573	2034.879500027927	0
5	575	2040.808317553348	0
5	576	2047.88666241906	0
5	580	2061.744268054386	0
5	583	2064.504793181297	1
5	585	2066.106575036222	2
5	587	2066.621568463189	3
5	589	2067.221201176373	4
5	591	2071.107006907231	5
5	593	2082.480097800833	6
5	594	2101.339331532057	6
5	595	2104.587731687026	5
5	596	2111.601400657045	4
5	597	2122.642199584087	3
5	598	2127.600576711045	2
5	602	2142.559392759509	1
5	604	2150.987558858463	1
5	609	2164.230028083196	2
5	614	2170.86448434667	3
5	618	2178.040289154605	3
5	620	2184.028530016061	3
5	621	2186.445066781526	3
5	622	2195.589597371482	2
5	623	2199.100939264701	1
5	625	2219.037121840638	1
5	626	2219.828340233889	1
5	627	2222.012858410638	0
5	629	2229.377875980709	0
5	631	2238.687174161398	1
5	633	2248.629558643682	2
5	635	2261.288724943219	3
5	639	2275.25298378974	3
5	641	2287.563321231771	3
5	643	2291.737990784805	4
5	650	2307.460964609543	5
5	653	2310.77581334492	6
5	655	2321.468398600711	7
5	657	2321.501274447956	8
5	659	2322.792498169168	9
5	660	2323.537752588941	9
5	661	2325.611646982435	8
5	662	2330.222021649194	7
5	663	2330.258373515714	6
5	667	2335.065204845404	6
5	669	2335.196105700774	7
5	671	2335.987830984855	8
5	673	2340.61275076074	8
5	674	2343.964459770788	7
5	676	2346.402871529766	7
5	687	2372.837495134998	8
5	689	2379.894456363184	9
5	690	2380.585765394582	9
5	691	2381.21759716985	8
5	692	2396.157358895974	7
5	693	2396.901242877635	6
5	695	2402.639682003944	6
5	696	2407.154362403003	6
5	700	2427.913556801245	5
5	702	2433.041339875264	5
5	704	2436.200010671138	6
5	708	2445.519842457465	6
5	709	2445.597635745915	5
5	711	2453.406257122936	5
5	712	2456.525987310369	5
5	717	2468.732373988295	5
5	718	2470.533921122683	5
5	719	2471.979189477738	4
5	721	2473.231196923321	4
5	722	2487.66870012259	4
5	723	2493.226161297952	3
6	91	357.091108137089	36.602931197299
6	99	384.328902543293	35.728223771726
6	108	412.137609225335	33.063297237808
6	109	417.666024227467	28.65133598995
6	112	425.93506947035	34.887745181647
6	115	431.023569382701	35.115276825454
6	116	435.089392891249	12.874207556709
6	117	435.834515971148	5.724867964384
6	124	464.72321947969	10.246213903488
6	139	498.424511178787	33.147220722503
6	143	514.920513364726	22.597024376758
6	146	518.861248496445	25.46870642318
6	147	527.588049793807	32.172307170994
6	148	530.429377194559	34.557412418146
6	149	539.630013451322	33.130221671673
6	152	542.039951940941	25.31133629819
6	153	542.327752116068	1.740428730579
6	162	564.677642366687	2.914908472453
6	165	596.817238034395	2.917163264808
6	174	638.116468043471	6.308558152526
6	188	702.708189135878	19.867341722075
6	189	703.76887632941	14.76169694527
6	195	720.692255203785	8.215135231864
6	200	747.907770069661	26.212473540767
6	201	753.746313554881	22.10825775617
6	210	775.946726398949	1.755288914924
6	216	802.822574975054	6.646458828093
6	241	874.261488115511	48.074633344457
6	242	874.797184368266	23.66993744828
6	247	878.087574225924	26.026626007273
6	248	882.001217879969	6.668299641053
6	271	939.295870601142	22.225305711968
6	272	940.394826003768	20.009258857291
6	276	948.566057645443	19.183213871468
6	281	976.145621709762	40.391176524726
6	282	989.122034163257	52.494526770315
6	288	1000.732199345081	47.547489001195
6	289	1002.060883893719	40.060959678996
6	290	1002.254680033622	12.868602831846
6	291	1014.760678858613	15.700079316759
6	307	1060.285006646396	21.746760059607
6	308	1073.061707497866	25.724365363061
6	309	1107.559468015894	52.362879828403
6	327	1148.374934045451	0.688994254733
6	330	1159.320263869294	2.409388813352
6	342	1223.299093839578	0.18826647074
6	359	1252.877253564735	7.691428976041
6	360	1253.743052643781	5.885510120787
6	375	1320.586984388488	9.854738851103
6	389	1376.197425594086	1.97550278558
6	390	1379.378135157888	3.636559190204
6	396	1394.064662674804	5.606142829219
6	402	1402.975161363931	0.08564380988
6	408	1411.697450903187	0.199275840311
6	426	1491.114284006911	17.735617150377
6	432	1510.202046487208	6.192796268614
6	435	1513.216553486797	2.24468333992
6	438	1526.613675300597	11.074106038568
6	463	1622.318940647958	11.775336820863
6	470	1655.274930533345	44.584716711654
6	471	1663.613286283403	47.973087293222
6	474	1679.557099546071	51.136271237673
6	477	1703.227744650295	69.940951209932
6	480	1704.102080147249	67.849291387589
6	492	1727.15543354093	23.582511916572
6	505	1786.529924293042	33.180420587196
6	513	1807.751260907279	37.667165512827
6	514	1813.76797012857	23.871967317779
6	518	1822.519637700254	17.663883702674
6	522	1836.467046893492	12.014820333047
6	531	1876.094108998228	6.45419087201
6	539	1919.634020409066	19.151410612937
6	542	1920.723854506991	4.598588851587
6	543	1928.584990280559	8.845151820412
6	552	1955.015846640286	1.464191595259
6	561	1983.029479132492	2.199877926869
6	571	2024.765100696241	13.843362816817
6	572	2033.019438883131	20.117266455995
6	573	2034.879500027927	18.966387652398
6	576	2047.88666241906	7.078344865712
6	594	2101.339331532057	39.595063477671
6	595	2104.587731687026	40.082938505729
6	596	2111.601400657045	45.494825620823
6	597	2122.642199584087	56.020631120898
6	598	2127.600576711045	60.379375534672
6	602	2142.559392759509	60.079294958676
6	618	2178.040289154605	13.810261071409
6	621	2186.445066781526	16.342111814924
6	622	2195.589597371482	24.725113024812
6	623	2199.100939264701	26.860978653725
6	626	2219.828340233889	35.799810217828
6	627	2222.012858410638	2.97573657
6	639	2275.25298378974	36.565809628342
6	660	2323.537752588941	60.055852549182
6	661	2325.611646982435	38.048325750664
6	662	2330.222021649194	38.484030864389
6	663	2330.258373515714	29.97917388659
6	673	2340.61275076074	33.151786151197
6	674	2343.964459770788	33.188646425868
6	690	2380.585765394582	57.793267225414
6	691	2381.21759716985	50.394273509046
6	692	2396.157358895974	61.09215405057
6	693	2396.901242877635	61.705137176861
6	696	2407.154362403003	71.166531418148
6	700	2427.913556801245	80.734291929417
6	708	2445.519842457465	72.682347322467
6	709	2445.597635745915	65.703179382731
6	712	2456.525987310369	53.886305306425
6	718	2470.533921122683	37.492581247419
6	719	2471.979189477738	35.7791788066
6	722	2487.66870012259	49.13399094666
6	723	2493.226161297952	39.819904175016
7	93	357.206506079018	1
7	103	391.047324288703	1
7	106	395.908292557247	1
7	126	465.277290456284	1
7	129	475.393105182559	1
7	141	506.499791779649	1
7	155	552.180011467169	1
7	160	561.762733894234	1
7	167	615.348425057337	1
7	170	618.900269317537	1
7	176	659.041663215175	1
7	179	674.896049565265	1
7	182	682.19995766715	1
7	193	712.477119971921	1
7	203	758.572252174628	1
7	206	765.706999917469	1
7	212	784.978755077148	1
7	218	806.137931290683	1
7	221	814.592706334832	1
7	224	821.626426792798	1
7	229	824.836198466085	1
7	231	825.499667755023	2
7	239	852.060948218651	1
7	254	911.483787810045	1
7	257	917.070564889174	1
7	260	920.385567146477	1
7	267	935.754445185036	1
7	274	942.293628006038	1
7	286	999.060599541854	1
7	293	1016.150775054257	1
7	298	1022.394637542636	1
7	301	1038.538246586789	1
7	311	1129.314636342715	1
7	314	1130.970527845427	1
7	317	1135.120469468102	1
7	320	1138.721968208374	1
7	322	1140.538363023018	2
7	332	1166.545317567146	1
7	335	1212.235030563073	1
7	338	1214.859992130296	1
7	344	1227.485883194672	1
7	349	1236.643816917823	1
7	352	1245.185824588694	1
7	354	1245.473148778668	2
7	362	1272.319734415131	1
7	367	1286.83813706964	1
7	370	1305.235701771402	1
7	373	1310.732245537385	1
7	377	1351.241493944332	1
7	380	1365.328541869756	1
7	387	1375.741575967684	1
7	392	1385.026190838092	1
7	398	1399.267833290923	1
7	404	1408.531804252156	1
7	410	1416.866283432641	1
7	413	1427.924704791414	1
7	416	1434.313057492983	1
7	421	1451.59723784495	1
7	424	1473.378666856534	1
7	428	1491.689037357241	1
7	440	1538.272590616996	1
7	443	1553.901690264833	1
7	446	1558.54260141757	1
7	449	1595.681554309851	1
7	454	1603.998637226888	1
7	459	1610.690213821691	1
7	482	1706.356756001619	1
7	484	1708.08451424638	2
7	490	1721.710537312419	1
7	494	1743.189173685306	1
7	497	1753.349503705846	1
7	500	1758.340419657439	1
7	503	1770.084095394452	1
7	511	1804.85575399758	1
7	516	1814.320946502234	1
7	520	1824.452226560445	1
7	524	1844.071205200833	1
7	527	1866.574068671975	1
7	533	1882.268336137148	1
7	545	1930.068896973113	1
7	547	1932.893391889637	2
7	554	1955.889998953772	1
7	556	1959.222495235312	2
7	569	2015.913112375529	1
7	578	2059.313257916285	1
7	600	2130.479222310669	1
7	606	2152.854575283436	1
7	611	2170.102954966602	1
7	616	2172.239960610976	1
7	637	2263.481900039759	1
7	645	2300.279199629124	1
7	648	2306.50332956852	1
7	665	2330.823323660804	1
7	678	2347.179264871828	1
7	681	2366.470211685635	1
7	683	2366.72911705343	2
7	698	2410.9013658636	1
7	706	2438.53470917593	1
7	714	2464.141668652333	1
8	93	357.206506079018	9
8	103	391.047324288703	10
8	106	395.908292557247	11
8	126	465.277290456284	12
8	129	475.393105182559	13
8	141	506.499791779649	14
8	160	561.762733894234	15
8	193	712.477119971921	16
8	229	824.836198466085	17
8	239	852.060948218651	18
8	254	911.483787810045	19
8	257	917.070564889174	20
8	260	920.385567146477	21
8	267	935.754445185036	22
8	274	942.293628006038	23
8	286	999.060599541854	24
8	298	1022.394637542636	25
8	301	1038.538246586789	26
8	349	1236.643816917823	27
8	352	1245.185824588694	28
8	367	1286.83813706964	29
8	370	1305.235701771402	30
8	373	1310.732245537385	31
8	387	1375.741575967684	32
8	421	1451.59723784495	33
8	424	1473.378666856534	34
8	454	1603.998637226888	35
8	459	1610.690213821691	36
8	482	1706.356756001619	37
8	490	1721.710537312419	38
8	494	1743.189173685306	39
8	497	1753.349503705846	40
8	500	1758.340419657439	41
8	503	1770.084095394452	42
8	511	1804.85575399758	43
8	516	1814.320946502234	44
8	520	1824.452226560445	45
8	569	2015.913112375529	46
8	600	2130.479222310669	47
8	606	2152.854575283436	48
8	611	2170.102954966602	49
8	616	2172.239960610976	50
8	637	2263.481900039759	51
8	645	2300.279199629124	52
8	648	2306.50332956852	53
8	665	2330.823323660804	54
8	678	2347.179264871828	55
8	681	2366.470211685635	56
8	698	2410.9013658636	57
8	706	2438.53470917593	58
8	714	2464.141668652333	59
9	93	357.206506079018	0
9	103	391.047324288703	0
9	106	395.908292557247	0
9	126	465.277290456284	0
9	129	475.393105182559	0
9	141	506.499791779649	0
9	155	552.180011467169	0
9	160	561.762733894234	0
9	167	615.348425057337	0
9	170	618.900269317537	0
9	176	659.041663215175	0
9	179	674.896049565265	0
9	182	682.19995766715	0
9	193	712.477119971921	0
9	203	758.572252174628	0
9	206	765.706999917469	0
9	212	784.978755077148	0
9	218	806.137931290683	0
9	221	814.592706334832	0
9	224	821.626426792798	0
9	229	824.836198466085	0
9	234	832.732688415701	7.233020660678
9	239	852.060948218651	0
9	254	911.483787810045	0
9	257	917.070564889174	0
9	260	920.385567146477	0
9	267	935.754445185036	0
9	274	942.293628006038	0
9	286	999.060599541854	0
9	293	1016.150775054257	0
9	298	1022.394637542636	0
9	301	1038.538246586789	0
9	311	1129.314636342715	0
9	314	1130.970527845427	0
9	317	1135.120469468102	0
9	320	1138.721968208374	0
9	323	1146.895306503116	6.356943480098
9	332	1166.545317567146	0
9	335	1212.235030563073	0
9	338	1214.859992130296	0
9	344	1227.485883194672	0
9	349	1236.643816917823	0
9	352	1245.185824588694	0
9	357	1251.449830364726	5.976681586058
9	362	1272.319734415131	0
9	367	1286.83813706964	0
9	370	1305.235701771402	0
9	373	1310.732245537385	0
9	377	1351.241493944332	0
9	380	1365.328541869756	0
9	387	1375.741575967684	0
9	392	1385.026190838092	0
9	398	1399.267833290923	0
9	404	1408.531804252156	0
9	410	1416.866283432641	0
9	413	1427.924704791414	0
9	416	1434.313057492983	0
9	421	1451.59723784495	0
9	424	1473.378666856534	0
9	428	1491.689037357241	0
9	440	1538.272590616996	0
9	443	1553.901690264833	0
9	446	1558.54260141757	0
9	449	1595.681554309851	0
9	454	1603.998637226888	0
9	459	1610.690213821691	0
9	482	1706.356756001619	0
9	485	1709.061250697969	0.976736451589
9	490	1721.710537312419	0
9	494	1743.189173685306	0
9	497	1753.349503705846	0
9	500	1758.340419657439	0
9	503	1770.084095394452	0
9	511	1804.85575399758	0
9	516	1814.320946502234	0
9	520	1824.452226560445	0
9	524	1844.071205200833	0
9	527	1866.574068671975	0
9	533	1882.268336137148	0
9	545	1930.068896973113	0
9	548	1933.412195008058	0.518803118421
9	554	1955.889998953772	0
9	557	1960.215397220159	0.992901984847
9	569	2015.913112375529	0
9	578	2059.313257916285	0
9	600	2130.479222310669	0
9	606	2152.854575283436	0
9	611	2170.102954966602	0
9	616	2172.239960610976	0
9	637	2263.481900039759	0
9	645	2300.279199629124	0
9	648	2306.50332956852	0
9	665	2330.823323660804	0
9	678	2347.179264871828	0
9	681	2366.470211685635	0
9	684	2366.951015995857	0.221898942427
9	698	2410.9013658636	0
9	706	2438.53470917593	0
9	714	2464.141668652333	0
10	96	362.448667073009	3
10	98	379.074311987527	4
10	101	389.014688237517	4
10	111	422.21518533454	3
10	114	430.109648006764	3
10	119	454.477005576202	1
10	121	456.365309666059	2
10	123	456.381886676564	3
10	132	492.323488987968	3
10	134	493.392542073265	4
10	136	495.415742622813	5
10	138	495.871964776413	6
10	145	516.728615642751	5
10	151	540.587323385489	2
10	158	556.535444312645	1
10	164	593.900074769587	1
10	173	631.807909890945	1
10	184	682.840847413803	1
10	187	689.00717938414	2
10	191	710.067891071385	1
10	197	721.695296528894	1
10	199	731.638055798711	2
10	209	774.191437484025	1
10	215	796.176116146961	1
10	226	822.839356900282	1
10	233	826.186854771054	2
10	237	851.127246919986	3
10	244	875.332918238916	2
10	246	876.059393368689	3
10	250	895.630156245994	2
10	252	896.02872597316	3
10	262	921.438949615767	4
10	265	929.382843773975	5
10	269	936.627507392942	6
10	278	953.184710343886	4
10	280	961.999924214723	5
10	284	989.386077201776	4
10	296	1021.182658138459	1
10	304	1047.337342134805	2
10	306	1055.196588187491	3
10	325	1147.685939790718	1
10	329	1156.910875055942	1
10	341	1223.110827368838	1
10	347	1231.878705429919	1
10	356	1247.857542522994	2
10	365	1281.347950758922	1
10	382	1370.245871756949	1
10	384	1374.221922808506	2
10	395	1388.458519845585	1
10	401	1402.889517554051	1
10	407	1411.498175062876	1
10	419	1450.443387813601	1
10	431	1504.009250218594	1
10	434	1510.971870146877	1
10	437	1515.539569262029	1
10	452	1600.288169990751	1
10	457	1610.543603827095	2
10	462	1615.640198990181	3
10	465	1628.420828308398	3
10	467	1633.286793440363	4
10	469	1636.25278875966	5
10	473	1668.63366852097	4
10	476	1694.468100952183	4
10	479	1703.572921624358	4
10	488	1721.197993643587	4
10	507	1789.896002810791	3
10	509	1793.300519943895	4
10	530	1869.639918126218	1
10	536	1900.482609796129	1
10	538	1916.125265655404	2
10	541	1919.739838460147	2
10	551	1953.551655045027	1
10	560	1980.829601205623	1
10	563	2004.919794299681	1
10	565	2010.921737879424	2
10	567	2012.902172427136	3
10	575	2040.808317553348	1
10	580	2061.744268054386	1
10	583	2064.504793181297	2
10	585	2066.106575036222	3
10	587	2066.621568463189	4
10	589	2067.221201176373	5
10	591	2071.107006907231	6
10	593	2082.480097800833	7
10	604	2150.987558858463	2
10	609	2164.230028083196	3
10	614	2170.86448434667	4
10	620	2184.028530016061	4
10	625	2219.037121840638	2
10	629	2229.377875980709	1
10	631	2238.687174161398	2
10	633	2248.629558643682	3
10	635	2261.288724943219	4
10	641	2287.563321231771	4
10	643	2291.737990784805	5
10	650	2307.460964609543	6
10	653	2310.77581334492	7
10	655	2321.468398600711	8
10	657	2321.501274447956	9
10	659	2322.792498169168	10
10	667	2335.065204845404	7
10	669	2335.196105700774	8
10	671	2335.987830984855	9
10	676	2346.402871529766	8
10	687	2372.837495134998	9
10	689	2379.894456363184	10
10	695	2402.639682003944	7
10	702	2433.041339875264	6
10	704	2436.200010671138	7
10	711	2453.406257122936	6
10	717	2468.732373988295	6
10	721	2473.231196923321	5
11	724	2500	0.05
12	724	2500	0.0456

