version 2
run factors_calibration_minions-16-20230303-19:02:02-25934
attr configname factors_calibration_minions
attr datetime 20230303-19:02:02
attr experiment factors_calibration_minions
attr inifile omnetpp.ini
attr iterationvars $0=1
attr iterationvarsf 1-
attr measurement $0=1
attr network Network
attr processid 25934
attr repetition 16
attr replication #16
attr resultdir results
attr runnumber 16
attr seedset 16
param *.minion.arrival_mean 20
param *.minion.service_mean 1
param *.boss.arrival_mean 20
param *.boss.service_mean 3
param *.player.recover_rate_x 100
param **.minion.arrival_distribution 0
param **.minion.service_distribution 0
param **.boss.arrival_distribution 0
param **.boss.service_distribution 0

vector 0 Network.player boss_jobs_number_stat:vector ETV
attr source signal_boss_jobs_number
vector 1 Network.player boss_jobs_queue_number_stat:vector ETV
attr source signal_boss_jobs_queue_number
vector 2 Network.player boss_waiting_time_stat:vector ETV
attr source signal_boss_waiting_time
vector 3 Network.player boss_defeated_stat:vector ETV
attr source signal_boss_defeated
vector 4 Network.player boss_response_time_stat:vector ETV
attr source signal_boss_response_time
vector 5 Network.player minion_jobs_number_stat:vector ETV
attr source signal_minion_jobs_number
vector 6 Network.player minion_jobs_queue_number_stat:vector ETV
attr source signal_minion_jobs_queue_number
vector 7 Network.player minion_waiting_time_stat:vector ETV
attr source signal_minion_waiting_time
vector 8 Network.player minion_defeated_stat:vector ETV
attr source signal_minion_defeated
vector 9 Network.player minion_response_time_stat:vector ETV
attr source signal_minion_response_time
vector 10 Network.player minion_recovered_stat:vector ETV
attr source signal_minion_recovered
vector 11 Network.player minion_throughput:vector ETV
attr source signal_minion_throughput
vector 12 Network.player boss_throughput:vector ETV
attr source signal_boss_throughput
0	119	369.138949755894	1
0	128	385.453117749827	1
0	131	392.547813056844	1
0	137	400.238876986431	1
0	140	400.875830780534	1
0	143	402.148108483634	1
0	149	424.812540692519	1
0	152	429.941475816797	1
0	155	476.703449272382	1
0	158	483.215547513179	1
0	162	497.665056686089	2
0	170	502.518415000999	1
0	175	518.010136143749	1
0	188	567.422534967774	1
0	191	589.254921646886	1
0	200	633.612335763276	1
0	203	653.717876567391	1
0	206	656.162405383807	1
0	209	664.883556027538	1
0	212	665.805119266422	1
0	214	666.345196335487	2
0	224	681.955333536092	1
0	227	685.56874799801	1
0	230	711.427100791882	1
0	239	753.719190786411	1
0	242	758.457762291243	1
0	244	759.862359115068	2
0	251	773.592507289388	1
0	254	782.804215248613	1
0	262	812.083228163358	1
0	264	814.53789680283	2
0	272	821.314613689265	1
0	275	823.339640693145	1
0	279	824.380758877111	2
0	281	826.130509309885	3
0	289	840.108369561828	1
0	292	841.927159132011	1
0	294	843.753911163271	2
0	296	844.204056085925	3
0	299	844.767347024862	3
0	308	874.251744450862	1
0	311	881.630829256108	1
0	313	882.640125728282	2
0	318	895.753310537335	2
0	323	908.271428453241	1
0	332	916.148443900527	1
0	347	972.831961978536	1
0	350	979.360375048207	1
0	353	984.240373431469	1
0	358	994.891896571427	1
0	365	1003.858883076407	1
0	374	1015.591232681327	1
0	377	1016.22762365404	1
0	380	1037.619457588496	1
0	383	1044.868849600906	1
0	389	1065.665815288377	1
0	392	1069.837508154843	1
0	395	1083.0195610608	1
0	398	1085.716712364398	1
0	400	1091.165896348159	2
0	407	1101.862008106945	2
0	416	1110.640880361671	1
0	446	1168.530077245097	1
0	458	1268.922055384295	1
0	460	1269.704014982941	2
0	464	1289.557095687291	1
0	473	1352.506855732944	1
0	476	1370.404388530883	1
0	478	1373.105114693269	2
0	482	1380.113067217977	1
0	484	1381.736131665	2
0	497	1398.191573523998	1
0	500	1401.824001929381	1
0	504	1411.331822722844	2
0	515	1473.250787678847	1
0	521	1484.54545862394	1
0	527	1490.786627567511	1
0	530	1515.939404877614	1
0	532	1518.058639666684	2
0	542	1541.328091502649	1
0	557	1588.998828454145	1
0	559	1591.826544490865	2
0	563	1607.947249559554	1
0	569	1626.570445940533	1
0	575	1654.192015298371	1
0	578	1674.039597021772	1
0	581	1676.296778732605	1
0	596	1704.085550962152	1
0	605	1734.959901667771	1
0	608	1750.512206608145	1
0	614	1772.016630625158	1
0	617	1784.953323999097	1
0	620	1793.940302291954	1
0	626	1863.116674614531	1
0	629	1884.1048210951	1
0	631	1886.579840852465	2
0	635	1891.821254052115	1
0	638	1901.129284237924	1
0	644	1926.365454818449	1
0	647	1944.433785012692	1
0	650	1950.622018393725	1
0	653	1957.125124651231	1
0	662	1976.624516113971	1
0	664	1977.707499429506	2
0	674	2011.380908373739	1
0	677	2024.89113310012	1
0	680	2025.694562311325	1
0	683	2037.032684837172	1
0	695	2054.92630997997	1
0	699	2066.558161474897	2
0	704	2074.312271274971	1
0	707	2085.148294294305	1
0	710	2099.473183195357	1
0	713	2102.146138877737	1
0	719	2116.145782370907	1
0	722	2121.486056362826	1
0	725	2128.938193055579	1
0	731	2138.670385373158	1
0	743	2186.38555087349	1
0	749	2196.988326593044	1
0	752	2203.396636789965	1
0	755	2217.082690419149	1
0	767	2251.232106227058	1
0	782	2294.752183040791	1
0	787	2310.846390442859	1
0	794	2378.277617112147	1
0	806	2399.108451542096	1
0	811	2403.159387325714	1
0	820	2427.431392732234	1
0	827	2444.598988443805	1
0	833	2455.21295102021	1
0	836	2458.382625969776	1
1	119	369.138949755894	0
1	120	371.827454657385	0
1	128	385.453117749827	0
1	129	387.342604564013	0
1	131	392.547813056844	0
1	132	393.419156768394	0
1	137	400.238876986431	0
1	138	400.724798969965	0
1	140	400.875830780534	0
1	141	402.01117600104	0
1	143	402.148108483634	0
1	144	404.412409192916	0
1	149	424.812540692519	0
1	150	425.43670712912	0
1	152	429.941475816797	0
1	153	432.541380280007	0
1	155	476.703449272382	0
1	156	477.997274869682	0
1	158	483.215547513179	0
1	162	497.665056686089	1
1	163	500.670589269855	1
1	166	501.562747514647	0
1	170	502.518415000999	0
1	171	506.759721114022	0
1	175	518.010136143749	0
1	176	518.043665158868	0
1	188	567.422534967774	0
1	189	568.524515976247	0
1	191	589.254921646886	0
1	192	590.835728296642	0
1	200	633.612335763276	0
1	201	634.317409453403	0
1	203	653.717876567391	0
1	204	655.312260034058	0
1	206	656.162405383807	0
1	207	661.692223987771	0
1	209	664.883556027538	0
1	210	665.016003510037	0
1	212	665.805119266422	0
1	214	666.345196335487	1
1	217	669.465747351675	1
1	220	678.769612173332	0
1	224	681.955333536092	0
1	225	683.88283521827	0
1	227	685.56874799801	0
1	228	687.089633701226	0
1	230	711.427100791882	0
1	231	714.487953730557	0
1	239	753.719190786411	0
1	240	755.982078813554	0
1	242	758.457762291243	0
1	244	759.862359115068	1
1	245	761.821487050682	1
1	246	762.616560821892	0
1	251	773.592507289388	0
1	252	774.211702794574	0
1	254	782.804215248613	0
1	255	783.911346983725	0
1	262	812.083228163358	0
1	264	814.53789680283	1
1	265	814.655336508166	1
1	266	817.06407427596	0
1	272	821.314613689265	0
1	273	823.3191828411	0
1	275	823.339640693145	0
1	279	824.380758877111	1
1	281	826.130509309885	2
1	282	827.037535758088	2
1	283	827.977251228828	1
1	286	837.177296729062	0
1	289	840.108369561828	0
1	290	841.398844504572	0
1	292	841.927159132011	0
1	294	843.753911163271	1
1	296	844.204056085925	2
1	297	844.690502236257	2
1	299	844.767347024862	2
1	300	844.864004086715	2
1	301	846.407759953922	1
1	302	851.275961782374	0
1	308	874.251744450862	0
1	309	875.566934696934	0
1	311	881.630829256108	0
1	313	882.640125728282	1
1	316	893.482948236794	1
1	318	895.753310537335	1
1	319	898.531612071943	1
1	320	905.137141564359	0
1	323	908.271428453241	0
1	324	909.331363960918	0
1	332	916.148443900527	0
1	333	916.45425073769	0
1	347	972.831961978536	0
1	348	975.191793748503	0
1	350	979.360375048207	0
1	351	980.570811324611	0
1	353	984.240373431469	0
1	356	994.137559070582	0
1	358	994.891896571427	0
1	363	1002.215245739534	0
1	365	1003.858883076407	0
1	366	1004.466684164605	0
1	374	1015.591232681327	0
1	375	1015.721233897995	0
1	377	1016.22762365404	0
1	378	1020.133453946624	0
1	380	1037.619457588496	0
1	381	1041.551373253583	0
1	383	1044.868849600906	0
1	384	1048.833067992895	0
1	389	1065.665815288377	0
1	390	1068.311309607548	0
1	392	1069.837508154843	0
1	393	1069.979223210037	0
1	395	1083.0195610608	0
1	396	1083.30958207044	0
1	398	1085.716712364398	0
1	400	1091.165896348159	1
1	401	1096.195307453729	1
1	407	1101.862008106945	1
1	408	1102.360545267195	1
1	409	1103.74924104772	0
1	416	1110.640880361671	0
1	417	1112.681311276828	0
1	446	1168.530077245097	0
1	447	1172.212254364223	0
1	458	1268.922055384295	0
1	460	1269.704014982941	1
1	461	1270.369834989808	1
1	462	1271.330164445903	0
1	464	1289.557095687291	0
1	465	1291.079458252001	0
1	473	1352.506855732944	0
1	474	1353.366084631225	0
1	476	1370.404388530883	0
1	478	1373.105114693269	1
1	479	1374.873010252502	1
1	480	1375.964421309707	0
1	482	1380.113067217977	0
1	484	1381.736131665	1
1	489	1388.821130513039	1
1	490	1389.269597174821	0
1	497	1398.191573523998	0
1	498	1399.925605374214	0
1	500	1401.824001929381	0
1	504	1411.331822722844	1
1	505	1412.904455152342	1
1	506	1413.964241800681	0
1	515	1473.250787678847	0
1	516	1473.276130135982	0
1	521	1484.54545862394	0
1	524	1488.077082514458	0
1	527	1490.786627567511	0
1	528	1497.532958696271	0
1	530	1515.939404877614	0
1	532	1518.058639666684	1
1	533	1521.48219793726	1
1	534	1522.794013615768	0
1	542	1541.328091502649	0
1	543	1542.478855443671	0
1	557	1588.998828454145	0
1	559	1591.826544490865	1
1	560	1596.85216852806	1
1	561	1599.122206907609	0
1	563	1607.947249559554	0
1	564	1609.48216575472	0
1	569	1626.570445940533	0
1	570	1632.309452292089	0
1	575	1654.192015298371	0
1	576	1656.087896068645	0
1	578	1674.039597021772	0
1	579	1675.861982901956	0
1	581	1676.296778732605	0
1	582	1678.076397648579	0
1	596	1704.085550962152	0
1	597	1704.220332789807	0
1	605	1734.959901667771	0
1	606	1742.131672145615	0
1	608	1750.512206608145	0
1	609	1751.913462442839	0
1	614	1772.016630625158	0
1	615	1775.100781285201	0
1	617	1784.953323999097	0
1	618	1791.968490416435	0
1	620	1793.940302291954	0
1	621	1794.762839034689	0
1	626	1863.116674614531	0
1	627	1876.382953329631	0
1	629	1884.1048210951	0
1	631	1886.579840852465	1
1	632	1887.48899769802	1
1	633	1887.838584377597	0
1	635	1891.821254052115	0
1	636	1893.503310344001	0
1	638	1901.129284237924	0
1	639	1902.834791498263	0
1	644	1926.365454818449	0
1	645	1927.130366463956	0
1	647	1944.433785012692	0
1	648	1946.669715622488	0
1	650	1950.622018393725	0
1	651	1951.116060582058	0
1	653	1957.125124651231	0
1	654	1958.685260059913	0
1	662	1976.624516113971	0
1	664	1977.707499429506	1
1	665	1978.437463820853	1
1	666	1983.2074999614	0
1	674	2011.380908373739	0
1	675	2016.557103011108	0
1	677	2024.89113310012	0
1	678	2025.466312724563	0
1	680	2025.694562311325	0
1	681	2028.742463202816	0
1	683	2037.032684837172	0
1	684	2037.742558715548	0
1	695	2054.92630997997	0
1	699	2066.558161474897	1
1	700	2072.523836919503	1
1	701	2072.596860398625	0
1	704	2074.312271274971	0
1	705	2076.557414384955	0
1	707	2085.148294294305	0
1	708	2085.463674741618	0
1	710	2099.473183195357	0
1	711	2100.316081474978	0
1	713	2102.146138877737	0
1	716	2109.307069350939	0
1	719	2116.145782370907	0
1	720	2116.232350413339	0
1	722	2121.486056362826	0
1	723	2125.004696339784	0
1	725	2128.938193055579	0
1	726	2132.458157621807	0
1	731	2138.670385373158	0
1	732	2151.480332338141	0
1	743	2186.38555087349	0
1	746	2187.440261865371	0
1	749	2196.988326593044	0
1	750	2202.20738497048	0
1	752	2203.396636789965	0
1	753	2207.805536812275	0
1	755	2217.082690419149	0
1	756	2218.472679449191	0
1	767	2251.232106227058	0
1	768	2251.855677018547	0
1	782	2294.752183040791	0
1	783	2295.488085905677	0
1	787	2310.846390442859	0
1	788	2312.71728642215	0
1	794	2378.277617112147	0
1	797	2380.560152433826	0
1	806	2399.108451542096	0
1	807	2399.145925253666	0
1	811	2403.159387325714	0
1	812	2407.621030807357	0
1	820	2427.431392732234	0
1	821	2427.942135249312	0
1	827	2444.598988443805	0
1	828	2448.162169757512	0
1	833	2455.21295102021	0
1	834	2455.766517901395	0
1	836	2458.382625969776	0
1	837	2459.620719397087	0
2	119	369.138949755894	0
2	128	385.453117749827	0
2	131	392.547813056844	0
2	137	400.238876986431	0
2	140	400.875830780534	0
2	143	402.148108483634	0
2	149	424.812540692519	0
2	152	429.941475816797	0
2	155	476.703449272382	0
2	158	483.215547513179	0
2	163	500.670589269855	3.005532583766
2	170	502.518415000999	0
2	175	518.010136143749	0
2	188	567.422534967774	0
2	191	589.254921646886	0
2	200	633.612335763276	0
2	203	653.717876567391	0
2	206	656.162405383807	0
2	209	664.883556027538	0
2	212	665.805119266422	0
2	217	669.465747351675	3.120551016188
2	224	681.955333536092	0
2	227	685.56874799801	0
2	230	711.427100791882	0
2	239	753.719190786411	0
2	242	758.457762291243	0
2	245	761.821487050682	1.959127935614
2	251	773.592507289388	0
2	254	782.804215248613	0
2	262	812.083228163358	0
2	265	814.655336508166	0.117439705336
2	272	821.314613689265	0
2	275	823.339640693145	0
2	282	827.037535758088	2.656776880977
2	283	827.977251228828	1.846741918943
2	289	840.108369561828	0
2	292	841.927159132011	0
2	297	844.690502236257	0.936591072986
2	300	844.864004086715	0.65994800079
2	301	846.407759953922	1.64041292906
2	308	874.251744450862	0
2	311	881.630829256108	0
2	316	893.482948236794	10.842822508512
2	319	898.531612071943	2.778301534608
2	323	908.271428453241	0
2	332	916.148443900527	0
2	347	972.831961978536	0
2	350	979.360375048207	0
2	353	984.240373431469	0
2	358	994.891896571427	0
2	365	1003.858883076407	0
2	374	1015.591232681327	0
2	377	1016.22762365404	0
2	380	1037.619457588496	0
2	383	1044.868849600906	0
2	389	1065.665815288377	0
2	392	1069.837508154843	0
2	395	1083.0195610608	0
2	398	1085.716712364398	0
2	401	1096.195307453729	5.02941110557
2	408	1102.360545267195	0.49853716025
2	416	1110.640880361671	0
2	446	1168.530077245097	0
2	458	1268.922055384295	0
2	461	1270.369834989808	0.665820006867
2	464	1289.557095687291	0
2	473	1352.506855732944	0
2	476	1370.404388530883	0
2	479	1374.873010252502	1.767895559233
2	482	1380.113067217977	0
2	489	1388.821130513039	7.084998848039
2	497	1398.191573523998	0
2	500	1401.824001929381	0
2	505	1412.904455152342	1.572632429498
2	515	1473.250787678847	0
2	521	1484.54545862394	0
2	527	1490.786627567511	0
2	530	1515.939404877614	0
2	533	1521.48219793726	3.423558270576
2	542	1541.328091502649	0
2	557	1588.998828454145	0
2	560	1596.85216852806	5.025624037195
2	563	1607.947249559554	0
2	569	1626.570445940533	0
2	575	1654.192015298371	0
2	578	1674.039597021772	0
2	581	1676.296778732605	0
2	596	1704.085550962152	0
2	605	1734.959901667771	0
2	608	1750.512206608145	0
2	614	1772.016630625158	0
2	617	1784.953323999097	0
2	620	1793.940302291954	0
2	626	1863.116674614531	0
2	629	1884.1048210951	0
2	632	1887.48899769802	0.909156845555
2	635	1891.821254052115	0
2	638	1901.129284237924	0
2	644	1926.365454818449	0
2	647	1944.433785012692	0
2	650	1950.622018393725	0
2	653	1957.125124651231	0
2	662	1976.624516113971	0
2	665	1978.437463820853	0.729964391347
2	674	2011.380908373739	0
2	677	2024.89113310012	0
2	680	2025.694562311325	0
2	683	2037.032684837172	0
2	695	2054.92630997997	0
2	700	2072.523836919503	5.965675444606
2	704	2074.312271274971	0
2	707	2085.148294294305	0
2	710	2099.473183195357	0
2	713	2102.146138877737	0
2	719	2116.145782370907	0
2	722	2121.486056362826	0
2	725	2128.938193055579	0
2	731	2138.670385373158	0
2	743	2186.38555087349	0
2	749	2196.988326593044	0
2	752	2203.396636789965	0
2	755	2217.082690419149	0
2	767	2251.232106227058	0
2	782	2294.752183040791	0
2	787	2310.846390442859	0
2	794	2378.277617112147	0
2	806	2399.108451542096	0
2	811	2403.159387325714	0
2	820	2427.431392732234	0
2	827	2444.598988443805	0
2	833	2455.21295102021	0
2	836	2458.382625969776	0
3	120	371.827454657385	23
3	129	387.342604564013	24
3	132	393.419156768394	25
3	138	400.724798969965	26
3	141	402.01117600104	27
3	144	404.412409192916	28
3	150	425.43670712912	29
3	153	432.541380280007	30
3	156	477.997274869682	31
3	163	500.670589269855	32
3	166	501.562747514647	33
3	171	506.759721114022	34
3	176	518.043665158868	35
3	189	568.524515976247	36
3	192	590.835728296642	37
3	201	634.317409453403	38
3	204	655.312260034058	39
3	207	661.692223987771	40
3	210	665.016003510037	41
3	217	669.465747351675	42
3	220	678.769612173332	43
3	225	683.88283521827	44
3	228	687.089633701226	45
3	231	714.487953730557	46
3	240	755.982078813554	47
3	245	761.821487050682	48
3	246	762.616560821892	49
3	252	774.211702794574	50
3	255	783.911346983725	51
3	265	814.655336508166	52
3	266	817.06407427596	53
3	273	823.3191828411	54
3	282	827.037535758088	55
3	283	827.977251228828	56
3	286	837.177296729062	57
3	290	841.398844504572	58
3	297	844.690502236257	59
3	300	844.864004086715	60
3	301	846.407759953922	61
3	302	851.275961782374	62
3	309	875.566934696934	63
3	316	893.482948236794	64
3	319	898.531612071943	65
3	320	905.137141564359	66
3	324	909.331363960918	67
3	333	916.45425073769	68
3	348	975.191793748503	69
3	351	980.570811324611	70
3	356	994.137559070582	71
3	363	1002.215245739534	72
3	366	1004.466684164605	73
3	375	1015.721233897995	74
3	378	1020.133453946624	75
3	381	1041.551373253583	76
3	384	1048.833067992895	77
3	390	1068.311309607548	78
3	393	1069.979223210037	79
3	396	1083.30958207044	80
3	401	1096.195307453729	81
3	408	1102.360545267195	82
3	409	1103.74924104772	83
3	417	1112.681311276828	84
3	447	1172.212254364223	85
3	461	1270.369834989808	86
3	462	1271.330164445903	87
3	465	1291.079458252001	88
3	474	1353.366084631225	89
3	479	1374.873010252502	90
3	480	1375.964421309707	91
3	489	1388.821130513039	92
3	490	1389.269597174821	93
3	498	1399.925605374214	94
3	505	1412.904455152342	95
3	506	1413.964241800681	96
3	516	1473.276130135982	97
3	524	1488.077082514458	98
3	528	1497.532958696271	99
3	533	1521.48219793726	100
3	534	1522.794013615768	101
3	543	1542.478855443671	102
3	560	1596.85216852806	103
3	561	1599.122206907609	104
3	564	1609.48216575472	105
3	570	1632.309452292089	106
3	576	1656.087896068645	107
3	579	1675.861982901956	108
3	582	1678.076397648579	109
3	597	1704.220332789807	110
3	606	1742.131672145615	111
3	609	1751.913462442839	112
3	615	1775.100781285201	113
3	618	1791.968490416435	114
3	621	1794.762839034689	115
3	627	1876.382953329631	116
3	632	1887.48899769802	117
3	633	1887.838584377597	118
3	636	1893.503310344001	119
3	639	1902.834791498263	120
3	645	1927.130366463956	121
3	648	1946.669715622488	122
3	651	1951.116060582058	123
3	654	1958.685260059913	124
3	665	1978.437463820853	125
3	666	1983.2074999614	126
3	675	2016.557103011108	127
3	678	2025.466312724563	128
3	681	2028.742463202816	129
3	684	2037.742558715548	130
3	700	2072.523836919503	131
3	701	2072.596860398625	132
3	705	2076.557414384955	133
3	708	2085.463674741618	134
3	711	2100.316081474978	135
3	716	2109.307069350939	136
3	720	2116.232350413339	137
3	723	2125.004696339784	138
3	726	2132.458157621807	139
3	732	2151.480332338141	140
3	746	2187.440261865371	141
3	750	2202.20738497048	142
3	753	2207.805536812275	143
3	756	2218.472679449191	144
3	768	2251.855677018547	145
3	783	2295.488085905677	146
3	788	2312.71728642215	147
3	797	2380.560152433826	148
3	807	2399.145925253666	149
3	812	2407.621030807357	150
3	821	2427.942135249312	151
3	828	2448.162169757512	152
3	834	2455.766517901395	153
3	837	2459.620719397087	154
4	120	371.827454657385	2.688504901491
4	129	387.342604564013	1.889486814186
4	132	393.419156768394	0.87134371155
4	138	400.724798969965	0.485921983534
4	141	402.01117600104	1.135345220506
4	144	404.412409192916	2.264300709282
4	150	425.43670712912	0.624166436601
4	153	432.541380280007	2.59990446321
4	156	477.997274869682	1.2938255973
4	163	500.670589269855	17.455041756676
4	166	501.562747514647	3.897690828558
4	171	506.759721114022	4.241306113023
4	176	518.043665158868	0.033529015119
4	189	568.524515976247	1.101981008473
4	192	590.835728296642	1.580806649756
4	201	634.317409453403	0.705073690127
4	204	655.312260034058	1.594383466667
4	207	661.692223987771	5.529818603964
4	210	665.016003510037	0.132447482499
4	217	669.465747351675	3.660628085253
4	220	678.769612173332	12.424415837845
4	225	683.88283521827	1.927501682178
4	228	687.089633701226	1.520885703216
4	231	714.487953730557	3.060852938675
4	240	755.982078813554	2.262888027143
4	245	761.821487050682	3.363724759439
4	246	762.616560821892	2.754201706824
4	252	774.211702794574	0.619195505186
4	255	783.911346983725	1.107131735112
4	265	814.655336508166	2.572108344808
4	266	817.06407427596	2.52617747313
4	273	823.3191828411	2.004569151835
4	282	827.037535758088	3.697895064943
4	283	827.977251228828	3.596492351717
4	286	837.177296729062	11.046787419177
4	290	841.398844504572	1.290474942744
4	297	844.690502236257	2.763343104246
4	300	844.864004086715	1.110092923444
4	301	846.407759953922	2.203703867997
4	302	851.275961782374	6.508614757512
4	309	875.566934696934	1.315190246072
4	316	893.482948236794	11.852118980686
4	319	898.531612071943	15.891486343661
4	320	905.137141564359	9.383831027024
4	324	909.331363960918	1.059935507677
4	333	916.45425073769	0.305806837163
4	348	975.191793748503	2.359831769967
4	351	980.570811324611	1.210436276404
4	356	994.137559070582	9.897185639113
4	363	1002.215245739534	7.323349168107
4	366	1004.466684164605	0.607801088198
4	375	1015.721233897995	0.130001216668
4	378	1020.133453946624	3.905830292584
4	381	1041.551373253583	3.931915665087
4	384	1048.833067992895	3.964218391989
4	390	1068.311309607548	2.645494319171
4	393	1069.979223210037	0.141715055194
4	396	1083.30958207044	0.29002100964
4	401	1096.195307453729	10.478595089331
4	408	1102.360545267195	11.194648919036
4	409	1103.74924104772	1.887232940775
4	417	1112.681311276828	2.040430915157
4	447	1172.212254364223	3.682177119126
4	461	1270.369834989808	1.447779605513
4	462	1271.330164445903	1.626149462962
4	465	1291.079458252001	1.52236256471
4	474	1353.366084631225	0.859228898281
4	479	1374.873010252502	4.468621721619
4	480	1375.964421309707	2.859306616438
4	489	1388.821130513039	8.708063295062
4	490	1389.269597174821	7.533465509821
4	498	1399.925605374214	1.734031850216
4	505	1412.904455152342	11.080453222961
4	506	1413.964241800681	2.632419077837
4	516	1473.276130135982	0.025342457135
4	524	1488.077082514458	3.531623890518
4	528	1497.532958696271	6.74633112876
4	533	1521.48219793726	5.542793059646
4	534	1522.794013615768	4.735373949084
4	543	1542.478855443671	1.150763941022
4	560	1596.85216852806	7.853340073915
4	561	1599.122206907609	7.295662416744
4	564	1609.48216575472	1.534916195166
4	570	1632.309452292089	5.739006351556
4	576	1656.087896068645	1.895880770274
4	579	1675.861982901956	1.822385880184
4	582	1678.076397648579	1.779618915974
4	597	1704.220332789807	0.134781827655
4	606	1742.131672145615	7.171770477844
4	609	1751.913462442839	1.401255834694
4	615	1775.100781285201	3.084150660043
4	618	1791.968490416435	7.015166417338
4	621	1794.762839034689	0.822536742735
4	627	1876.382953329631	13.2662787151
4	632	1887.48899769802	3.38417660292
4	633	1887.838584377597	1.258743525132
4	636	1893.503310344001	1.682056291886
4	639	1902.834791498263	1.705507260339
4	645	1927.130366463956	0.764911645507
4	648	1946.669715622488	2.235930609796
4	651	1951.116060582058	0.494042188333
4	654	1958.685260059913	1.560135408682
4	665	1978.437463820853	1.812947706882
4	666	1983.2074999614	5.500000531894
4	675	2016.557103011108	5.176194637369
4	678	2025.466312724563	0.575179624443
4	681	2028.742463202816	3.047900891491
4	684	2037.742558715548	0.709873878376
4	700	2072.523836919503	17.597526939533
4	701	2072.596860398625	6.038698923728
4	705	2076.557414384955	2.245143109984
4	708	2085.463674741618	0.315380447313
4	711	2100.316081474978	0.842898279621
4	716	2109.307069350939	7.160930473202
4	720	2116.232350413339	0.086568042432
4	723	2125.004696339784	3.518639976958
4	726	2132.458157621807	3.519964566228
4	732	2151.480332338141	12.809946964983
4	746	2187.440261865371	1.054710991881
4	750	2202.20738497048	5.219058377436
4	753	2207.805536812275	4.40890002231
4	756	2218.472679449191	1.389989030042
4	768	2251.855677018547	0.623570791489
4	783	2295.488085905677	0.735902864886
4	788	2312.71728642215	1.870895979291
4	797	2380.560152433826	2.282535321679
4	807	2399.145925253666	0.03747371157
4	812	2407.621030807357	4.461643481643
4	821	2427.942135249312	0.510742517078
4	828	2448.162169757512	3.563181313707
4	834	2455.766517901395	0.553566881185
4	837	2459.620719397087	1.238093427311
5	122	373.412750016675	1
5	125	383.503724699858	1
5	134	398.29345101465	1
5	146	423.663703551299	1
5	160	485.167720561456	1
5	165	501.053253495594	2
5	173	517.728916668857	1
5	179	535.177986672785	1
5	182	537.879828869336	1
5	185	541.549896418065	1
5	194	610.008834228435	1
5	197	610.603120698339	1
5	216	668.154812866277	1
5	219	672.837434510325	2
5	233	737.609309989605	1
5	236	738.065993266281	1
5	248	770.870546685308	1
5	257	791.009874158458	1
5	260	812.004285757869	1
5	268	817.087729232169	2
5	277	824.328875856501	1
5	285	834.489129761658	2
5	305	870.139645282075	1
5	315	889.465069392024	1
5	326	910.868438095712	1
5	328	910.907446010024	2
5	335	956.694432556406	1
5	337	957.420866341453	2
5	341	961.030104280149	1
5	344	970.487524570317	1
5	355	992.861462757797	1
5	360	997.739728821913	2
5	362	1001.698369505244	3
5	371	1012.077053772774	1
5	386	1058.065103464386	1
5	403	1098.262537505026	1
5	405	1099.658060828355	2
5	413	1105.564912229797	1
5	419	1117.76954655768	1
5	422	1136.167234414237	1
5	425	1136.766687003357	1
5	428	1141.913659099735	1
5	431	1153.84054641289	1
5	434	1158.456198177233	1
5	437	1160.051854421039	1
5	440	1163.92160634943	1
5	443	1166.867703399964	1
5	449	1210.760141699869	1
5	452	1232.723260801924	1
5	455	1254.992640634908	1
5	467	1337.837911515864	1
5	470	1347.26425306309	1
5	486	1385.474586624986	1
5	488	1385.8376213614	2
5	494	1396.417679763919	1
5	502	1405.111580420913	1
5	509	1421.406614873191	1
5	512	1428.712937100631	1
5	518	1475.241931920041	1
5	523	1486.252065688404	1
5	536	1530.704876521418	1
5	539	1540.725887282629	1
5	545	1545.181212409714	1
5	548	1562.014786747723	1
5	551	1571.0399453036	1
5	554	1588.161639434012	1
5	566	1620.756061751812	1
5	572	1640.281271788684	1
5	584	1682.33242599457	1
5	587	1688.07984215483	1
5	590	1696.605206335798	1
5	593	1699.4121943569	1
5	599	1717.041528093064	1
5	602	1722.664216829865	1
5	611	1762.571794788125	1
5	623	1853.378268985526	1
5	641	1904.318367159841	1
5	656	1967.230548594144	1
5	659	1970.901145276182	1
5	668	1995.767647319136	1
5	671	2010.507511986602	1
5	686	2039.694413005337	1
5	689	2051.812175257544	1
5	692	2053.63140083613	1
5	697	2061.50357069203	1
5	715	2108.125699543073	1
5	728	2138.398647987057	1
5	734	2153.820886436295	1
5	737	2176.033003992115	1
5	739	2178.116770965303	2
5	745	2186.49071217322	1
5	758	2219.980328543834	1
5	761	2222.990504750569	1
5	764	2238.093229221411	1
5	770	2258.096307851494	1
5	773	2281.849824826662	1
5	775	2282.352814536671	2
5	779	2290.418314143055	1
5	785	2306.417324786876	1
5	791	2373.785247817367	1
5	796	2378.786274105559	1
5	800	2384.543060375249	1
5	803	2394.969892914042	1
5	809	2400.495043860474	1
5	815	2424.628489295189	1
5	818	2426.668436628985	1
5	824	2429.490320026644	1
5	830	2448.434458830852	1
5	839	2464.060150996436	1
5	842	2478.649606238855	1
5	845	2483.843184814415	1
5	848	2496.36512762313	1
5	851	2499.978743310429	1
6	122	373.412750016675	0
6	123	374.024326397795	0
6	125	383.503724699858	0
6	126	383.772659457785	0
6	134	398.29345101465	0
6	135	399.76264679073	0
6	146	423.663703551299	0
6	147	423.925119782587	0
6	160	485.167720561456	0
6	165	501.053253495594	1
6	167	501.595328407089	1
6	168	502.299971741849	0
6	173	517.728916668857	0
6	177	519.000695970378	0
6	179	535.177986672785	0
6	180	535.322070648701	0
6	182	537.879828869336	0
6	183	539.874386091697	0
6	185	541.549896418065	0
6	186	542.374205840516	0
6	194	610.008834228435	0
6	195	610.359215174751	0
6	197	610.603120698339	0
6	198	611.260901135696	0
6	216	668.154812866277	0
6	219	672.837434510325	1
6	221	678.939566918566	1
6	222	680.07796660027	0
6	233	737.609309989605	0
6	234	737.802100717191	0
6	236	738.065993266281	0
6	237	739.408107278449	0
6	248	770.870546685308	0
6	249	771.348455033686	0
6	257	791.009874158458	0
6	258	791.190366171846	0
6	260	812.004285757869	0
6	268	817.087729232169	1
6	269	817.98528151061	1
6	270	818.091413108131	0
6	277	824.328875856501	0
6	285	834.489129761658	1
6	287	838.126655301741	1
6	303	852.158370621857	0
6	305	870.139645282075	0
6	306	871.192783721022	0
6	315	889.465069392024	0
6	321	905.385951105444	0
6	326	910.868438095712	0
6	328	910.907446010024	1
6	329	911.431125924852	1
6	330	911.536717653424	0
6	335	956.694432556406	0
6	337	957.420866341453	1
6	338	957.846433290353	1
6	339	959.421741748301	0
6	341	961.030104280149	0
6	342	962.278046869292	0
6	344	970.487524570317	0
6	345	970.60117090439	0
6	355	992.861462757797	0
6	360	997.739728821913	1
6	362	1001.698369505244	2
6	367	1005.075014030649	2
6	368	1007.504980146811	1
6	369	1008.562656645801	0
6	371	1012.077053772774	0
6	372	1012.190352526157	0
6	386	1058.065103464386	0
6	387	1058.811625748398	0
6	403	1098.262537505026	0
6	405	1099.658060828355	1
6	410	1104.509752236458	1
6	411	1105.162894404441	0
6	413	1105.564912229797	0
6	414	1106.155637860728	0
6	419	1117.76954655768	0
6	420	1118.884674847367	0
6	422	1136.167234414237	0
6	423	1136.365344217074	0
6	425	1136.766687003357	0
6	426	1137.036189244445	0
6	428	1141.913659099735	0
6	429	1146.116069436406	0
6	431	1153.84054641289	0
6	432	1154.627060539805	0
6	434	1158.456198177233	0
6	435	1159.544542842516	0
6	437	1160.051854421039	0
6	438	1160.060334433989	0
6	440	1163.92160634943	0
6	441	1164.916205680266	0
6	443	1166.867703399964	0
6	444	1167.057780351037	0
6	449	1210.760141699869	0
6	450	1211.559251010756	0
6	452	1232.723260801924	0
6	453	1234.727470574295	0
6	455	1254.992640634908	0
6	456	1255.023035278168	0
6	467	1337.837911515864	0
6	468	1338.032993154865	0
6	470	1347.26425306309	0
6	471	1347.376069004782	0
6	486	1385.474586624986	0
6	488	1385.8376213614	1
6	491	1392.373749679986	1
6	492	1392.804238303627	0
6	494	1396.417679763919	0
6	495	1397.270371420123	0
6	502	1405.111580420913	0
6	507	1414.015960503945	0
6	509	1421.406614873191	0
6	510	1422.641029098928	0
6	512	1428.712937100631	0
6	513	1429.515128263895	0
6	518	1475.241931920041	0
6	519	1476.284972117802	0
6	523	1486.252065688404	0
6	525	1489.72148520018	0
6	536	1530.704876521418	0
6	537	1533.37700042429	0
6	539	1540.725887282629	0
6	540	1541.198510821207	0
6	545	1545.181212409714	0
6	546	1545.258372909	0
6	548	1562.014786747723	0
6	549	1564.692870221192	0
6	551	1571.0399453036	0
6	552	1571.496750670904	0
6	554	1588.161639434012	0
6	555	1588.523991198648	0
6	566	1620.756061751812	0
6	567	1621.163246259868	0
6	572	1640.281271788684	0
6	573	1640.810245348953	0
6	584	1682.33242599457	0
6	585	1684.451361955474	0
6	587	1688.07984215483	0
6	588	1688.317742367573	0
6	590	1696.605206335798	0
6	591	1696.934435290383	0
6	593	1699.4121943569	0
6	594	1699.940940300634	0
6	599	1717.041528093064	0
6	600	1718.14869468725	0
6	602	1722.664216829865	0
6	603	1722.761675770923	0
6	611	1762.571794788125	0
6	612	1762.632592108749	0
6	623	1853.378268985526	0
6	624	1855.423025143968	0
6	641	1904.318367159841	0
6	642	1905.773001344877	0
6	656	1967.230548594144	0
6	657	1967.633694106831	0
6	659	1970.901145276182	0
6	660	1971.143050743673	0
6	668	1995.767647319136	0
6	669	1998.510054744069	0
6	671	2010.507511986602	0
6	672	2011.112430832869	0
6	686	2039.694413005337	0
6	687	2040.717651846821	0
6	689	2051.812175257544	0
6	690	2052.05753244231	0
6	692	2053.63140083613	0
6	693	2053.695957183189	0
6	697	2061.50357069203	0
6	702	2072.91778019941	0
6	715	2108.125699543073	0
6	717	2109.916749422551	0
6	728	2138.398647987057	0
6	729	2138.474704615302	0
6	734	2153.820886436295	0
6	735	2155.017518185873	0
6	737	2176.033003992115	0
6	739	2178.116770965303	1
6	740	2179.018128321294	1
6	741	2180.146366039303	0
6	745	2186.49071217322	0
6	747	2187.541677406948	0
6	758	2219.980328543834	0
6	759	2220.031469822689	0
6	761	2222.990504750569	0
6	762	2224.49388221729	0
6	764	2238.093229221411	0
6	765	2239.366951830731	0
6	770	2258.096307851494	0
6	771	2262.151934241279	0
6	773	2281.849824826662	0
6	775	2282.352814536671	1
6	776	2284.010326857404	1
6	777	2285.805908936841	0
6	779	2290.418314143055	0
6	780	2290.449517260913	0
6	785	2306.417324786876	0
6	789	2314.277316183797	0
6	791	2373.785247817367	0
6	792	2375.455344352687	0
6	796	2378.786274105559	0
6	798	2380.634098860962	0
6	800	2384.543060375249	0
6	801	2384.657249988903	0
6	803	2394.969892914042	0
6	804	2395.081062806982	0
6	809	2400.495043860474	0
6	813	2408.344587404538	0
6	815	2424.628489295189	0
6	816	2425.550004721053	0
6	818	2426.668436628985	0
6	822	2428.212822368079	0
6	824	2429.490320026644	0
6	825	2430.977119634741	0
6	830	2448.434458830852	0
6	831	2449.191505312669	0
6	839	2464.060150996436	0
6	840	2464.320452243975	0
6	842	2478.649606238855	0
6	843	2479.086878456531	0
6	845	2483.843184814415	0
6	846	2484.020196736374	0
6	848	2496.36512762313	0
6	849	2496.701188923186	0
6	851	2499.978743310429	0
7	122	373.412750016675	0
7	125	383.503724699858	0
7	134	398.29345101465	0
7	146	423.663703551299	0
7	166	501.562747514647	16.395026953191
7	167	501.595328407089	0.542074911495
7	173	517.728916668857	0
7	176	518.043665158868	0.033529015119
7	179	535.177986672785	0
7	182	537.879828869336	0
7	185	541.549896418065	0
7	194	610.008834228435	0
7	197	610.603120698339	0
7	220	678.769612173332	10.614799307055
7	221	678.939566918566	6.102132408241
7	233	737.609309989605	0
7	236	738.065993266281	0
7	248	770.870546685308	0
7	257	791.009874158458	0
7	260	812.004285757869	0
7	266	817.06407427596	4.980846112602
7	269	817.98528151061	0.897552278441
7	286	837.177296729062	12.848420872561
7	287	838.126655301741	3.637525540083
7	290	841.398844504572	1.290474942744
7	302	851.275961782374	9.348802650363
7	305	870.139645282075	0
7	320	905.137141564359	15.672072172335
7	326	910.868438095712	0
7	329	911.431125924852	0.523679914828
7	335	956.694432556406	0
7	338	957.846433290353	0.4255669489
7	341	961.030104280149	0
7	344	970.487524570317	0
7	356	994.137559070582	1.276096312785
7	363	1002.215245739534	7.323349168107
7	366	1004.466684164605	6.726955342692
7	367	1005.075014030649	3.376644525405
7	368	1007.504980146811	3.646097070404
7	371	1012.077053772774	0
7	386	1058.065103464386	0
7	409	1103.74924104772	5.486703542694
7	410	1104.509752236458	4.851691408103
7	413	1105.564912229797	0
7	419	1117.76954655768	0
7	422	1136.167234414237	0
7	425	1136.766687003357	0
7	428	1141.913659099735	0
7	431	1153.84054641289	0
7	434	1158.456198177233	0
7	437	1160.051854421039	0
7	440	1163.92160634943	0
7	443	1166.867703399964	0
7	449	1210.760141699869	0
7	452	1232.723260801924	0
7	455	1254.992640634908	0
7	467	1337.837911515864	0
7	470	1347.26425306309	0
7	490	1389.269597174821	3.795010549835
7	491	1392.373749679986	6.536128318586
7	494	1396.417679763919	0
7	506	1413.964241800681	8.852661379768
7	509	1421.406614873191	0
7	512	1428.712937100631	0
7	518	1475.241931920041	0
7	524	1488.077082514458	1.825016826054
7	536	1530.704876521418	0
7	539	1540.725887282629	0
7	545	1545.181212409714	0
7	548	1562.014786747723	0
7	551	1571.0399453036	0
7	554	1588.161639434012	0
7	566	1620.756061751812	0
7	572	1640.281271788684	0
7	584	1682.33242599457	0
7	587	1688.07984215483	0
7	590	1696.605206335798	0
7	593	1699.4121943569	0
7	599	1717.041528093064	0
7	602	1722.664216829865	0
7	611	1762.571794788125	0
7	623	1853.378268985526	0
7	641	1904.318367159841	0
7	656	1967.230548594144	0
7	659	1970.901145276182	0
7	668	1995.767647319136	0
7	671	2010.507511986602	0
7	686	2039.694413005337	0
7	689	2051.812175257544	0
7	692	2053.63140083613	0
7	701	2072.596860398625	11.093289706595
7	716	2109.307069350939	1.181369807866
7	728	2138.398647987057	0
7	734	2153.820886436295	0
7	737	2176.033003992115	0
7	740	2179.018128321294	0.901357355991
7	746	2187.440261865371	0.949549692151
7	758	2219.980328543834	0
7	761	2222.990504750569	0
7	764	2238.093229221411	0
7	770	2258.096307851494	0
7	773	2281.849824826662	0
7	776	2284.010326857404	1.657512320733
7	779	2290.418314143055	0
7	785	2306.417324786876	0
7	788	2312.71728642215	1.870895979291
7	791	2373.785247817367	0
7	797	2380.560152433826	1.773878328267
7	800	2384.543060375249	0
7	803	2394.969892914042	0
7	809	2400.495043860474	0
7	812	2407.621030807357	4.461643481643
7	815	2424.628489295189	0
7	818	2426.668436628985	0
7	821	2427.942135249312	0.510742517078
7	824	2429.490320026644	0
7	830	2448.434458830852	0
7	839	2464.060150996436	0
7	842	2478.649606238855	0
7	845	2483.843184814415	0
7	848	2496.36512762313	0
7	851	2499.978743310429	0
8	123	374.024326397795	18
8	126	383.772659457785	19
8	135	399.76264679073	20
8	147	423.925119782587	21
8	167	501.595328407089	22
8	168	502.299971741849	23
8	177	519.000695970378	24
8	180	535.322070648701	25
8	183	539.874386091697	26
8	186	542.374205840516	27
8	195	610.359215174751	28
8	198	611.260901135696	29
8	221	678.939566918566	30
8	222	680.07796660027	31
8	234	737.802100717191	32
8	237	739.408107278449	33
8	249	771.348455033686	34
8	258	791.190366171846	35
8	269	817.98528151061	36
8	270	818.091413108131	37
8	287	838.126655301741	38
8	303	852.158370621857	39
8	306	871.192783721022	40
8	321	905.385951105444	41
8	329	911.431125924852	42
8	330	911.536717653424	43
8	338	957.846433290353	44
8	339	959.421741748301	45
8	342	962.278046869292	46
8	345	970.60117090439	47
8	367	1005.075014030649	48
8	368	1007.504980146811	49
8	369	1008.562656645801	50
8	372	1012.190352526157	51
8	387	1058.811625748398	52
8	410	1104.509752236458	53
8	411	1105.162894404441	54
8	414	1106.155637860728	55
8	420	1118.884674847367	56
8	423	1136.365344217074	57
8	426	1137.036189244445	58
8	429	1146.116069436406	59
8	432	1154.627060539805	60
8	435	1159.544542842516	61
8	438	1160.060334433989	62
8	441	1164.916205680266	63
8	444	1167.057780351037	64
8	450	1211.559251010756	65
8	453	1234.727470574295	66
8	456	1255.023035278168	67
8	468	1338.032993154865	68
8	471	1347.376069004782	69
8	491	1392.373749679986	70
8	492	1392.804238303627	71
8	495	1397.270371420123	72
8	507	1414.015960503945	73
8	510	1422.641029098928	74
8	513	1429.515128263895	75
8	519	1476.284972117802	76
8	525	1489.72148520018	77
8	537	1533.37700042429	78
8	540	1541.198510821207	79
8	546	1545.258372909	80
8	549	1564.692870221192	81
8	552	1571.496750670904	82
8	555	1588.523991198648	83
8	567	1621.163246259868	84
8	573	1640.810245348953	85
8	585	1684.451361955474	86
8	588	1688.317742367573	87
8	591	1696.934435290383	88
8	594	1699.940940300634	89
8	600	1718.14869468725	90
8	603	1722.761675770923	91
8	612	1762.632592108749	92
8	624	1855.423025143968	93
8	642	1905.773001344877	94
8	657	1967.633694106831	95
8	660	1971.143050743673	96
8	669	1998.510054744069	97
8	672	2011.112430832869	98
8	687	2040.717651846821	99
8	690	2052.05753244231	100
8	693	2053.695957183189	101
8	702	2072.91778019941	102
8	717	2109.916749422551	103
8	729	2138.474704615302	104
8	735	2155.017518185873	105
8	740	2179.018128321294	106
8	741	2180.146366039303	107
8	747	2187.541677406948	108
8	759	2220.031469822689	109
8	762	2224.49388221729	110
8	765	2239.366951830731	111
8	771	2262.151934241279	112
8	776	2284.010326857404	113
8	777	2285.805908936841	114
8	780	2290.449517260913	115
8	789	2314.277316183797	116
8	792	2375.455344352687	117
8	798	2380.634098860962	118
8	801	2384.657249988903	119
8	804	2395.081062806982	120
8	813	2408.344587404538	121
8	816	2425.550004721053	122
8	822	2428.212822368079	123
8	825	2430.977119634741	124
8	831	2449.191505312669	125
8	840	2464.320452243975	126
8	843	2479.086878456531	127
8	846	2484.020196736374	128
8	849	2496.701188923186	129
9	123	374.024326397795	0.61157638112
9	126	383.772659457785	0.268934757927
9	135	399.76264679073	1.46919577608
9	147	423.925119782587	0.261416231288
9	167	501.595328407089	16.427607845633
9	168	502.299971741849	1.246718246255
9	177	519.000695970378	0.990559826629
9	180	535.322070648701	0.144083975916
9	183	539.874386091697	1.994557222361
9	186	542.374205840516	0.824309422451
9	195	610.359215174751	0.350380946316
9	198	611.260901135696	0.657780437357
9	221	678.939566918566	10.784754052289
9	222	680.07796660027	7.240532089945
9	234	737.802100717191	0.192790727586
9	237	739.408107278449	1.342114012168
9	249	771.348455033686	0.477908348378
9	258	791.190366171846	0.180492013388
9	269	817.98528151061	5.902053347252
9	270	818.091413108131	1.003683875962
9	287	838.126655301741	13.79777944524
9	303	852.158370621857	10.231211489846
9	306	871.192783721022	1.053138438947
9	321	905.385951105444	15.92088171342
9	329	911.431125924852	0.56268782914
9	330	911.536717653424	0.6292716434
9	338	957.846433290353	1.152000733947
9	339	959.421741748301	2.000875406848
9	342	962.278046869292	1.247942589143
9	345	970.60117090439	0.113646334073
9	367	1005.075014030649	7.335285208736
9	368	1007.504980146811	5.806610641567
9	369	1008.562656645801	4.703773569394
9	372	1012.190352526157	0.113298753383
9	387	1058.811625748398	0.746522284012
9	410	1104.509752236458	6.247214731432
9	411	1105.162894404441	5.504833576086
9	414	1106.155637860728	0.590725630931
9	420	1118.884674847367	1.115128289687
9	423	1136.365344217074	0.198109802837
9	426	1137.036189244445	0.269502241088
9	429	1146.116069436406	4.202410336671
9	432	1154.627060539805	0.786514126915
9	435	1159.544542842516	1.088344665283
9	438	1160.060334433989	0.00848001295
9	441	1164.916205680266	0.994599330836
9	444	1167.057780351037	0.190076951073
9	450	1211.559251010756	0.799109310887
9	453	1234.727470574295	2.004209772371
9	456	1255.023035278168	0.03039464326
9	468	1338.032993154865	0.195081639001
9	471	1347.376069004782	0.111815941692
9	491	1392.373749679986	6.899163055
9	492	1392.804238303627	6.966616942227
9	495	1397.270371420123	0.852691656204
9	507	1414.015960503945	8.904380083032
9	510	1422.641029098928	1.234414225737
9	513	1429.515128263895	0.802191163264
9	519	1476.284972117802	1.043040197761
9	525	1489.72148520018	3.469419511776
9	537	1533.37700042429	2.672123902872
9	540	1541.198510821207	0.472623538578
9	546	1545.258372909	0.077160499286
9	549	1564.692870221192	2.678083473469
9	552	1571.496750670904	0.456805367304
9	555	1588.523991198648	0.362351764636
9	567	1621.163246259868	0.407184508056
9	573	1640.810245348953	0.528973560269
9	585	1684.451361955474	2.118935960904
9	588	1688.317742367573	0.237900212743
9	591	1696.934435290383	0.329228954585
9	594	1699.940940300634	0.528745943734
9	600	1718.14869468725	1.107166594186
9	603	1722.761675770923	0.097458941058
9	612	1762.632592108749	0.060797320624
9	624	1855.423025143968	2.044756158442
9	642	1905.773001344877	1.454634185036
9	657	1967.633694106831	0.403145512687
9	660	1971.143050743673	0.241905467491
9	669	1998.510054744069	2.742407424933
9	672	2011.112430832869	0.604918846267
9	687	2040.717651846821	1.023238841484
9	690	2052.05753244231	0.245357184766
9	693	2053.695957183189	0.064556347059
9	702	2072.91778019941	11.41420950738
9	717	2109.916749422551	1.791049879478
9	729	2138.474704615302	0.076056628245
9	735	2155.017518185873	1.196631749578
9	740	2179.018128321294	2.985124329179
9	741	2180.146366039303	2.029595074
9	747	2187.541677406948	1.050965233728
9	759	2220.031469822689	0.051141278855
9	762	2224.49388221729	1.503377466721
9	765	2239.366951830731	1.27372260932
9	771	2262.151934241279	4.055626389785
9	776	2284.010326857404	2.160502030742
9	777	2285.805908936841	3.45309440017
9	780	2290.449517260913	0.031203117858
9	789	2314.277316183797	3.430925740938
9	792	2375.455344352687	1.67009653532
9	798	2380.634098860962	1.847824755403
9	801	2384.657249988903	0.114189613654
9	804	2395.081062806982	0.11116989294
9	813	2408.344587404538	5.185200078824
9	816	2425.550004721053	0.921515425864
9	822	2428.212822368079	0.781429635845
9	825	2430.977119634741	1.486799608097
9	831	2449.191505312669	0.757046481817
9	840	2464.320452243975	0.260301247539
9	843	2479.086878456531	0.437272217676
9	846	2484.020196736374	0.177011921959
9	849	2496.701188923186	0.336061300056
10	175	518.010136143749	1
10	262	812.083228163358	2
10	289	840.108369561828	3
10	292	841.927159132011	4
10	358	994.891896571427	5
10	365	1003.858883076407	6
10	787	2310.846390442859	7
10	811	2403.159387325714	8
10	820	2427.431392732234	9
11	852	2500	0.0516
12	852	2500	0.0616

