file 37650 1677866541                                           
version 2
run factors_calibration_minions-109-20230303-19:02:21-26401
attr configname factors_calibration_minions
attr datetime 20230303-19:02:21
attr experiment factors_calibration_minions
attr inifile omnetpp.ini
attr iterationvars $0=5
attr iterationvarsf 5-
attr measurement $0=5
attr network Network
attr processid 26401
attr repetition 19
attr replication #19
attr resultdir results
attr runnumber 109
attr seedset 19
param *.minion.arrival_mean 20
param *.minion.service_mean 5
param *.boss.arrival_mean 20
param *.boss.service_mean 3
param *.player.recover_rate_x 100
param **.minion.arrival_distribution 0
param **.minion.service_distribution 0
param **.boss.arrival_distribution 0
param **.boss.service_distribution 0

vector 0 Network.player minion_defeated_stat:vector ETV
attr source signal_minion_defeated
vector 1 Network.player minion_jobs_queue_number_stat:vector ETV
attr source signal_minion_jobs_queue_number
vector 2 Network.player minion_response_time_stat:vector ETV
attr source signal_minion_response_time
vector 3 Network.player minion_waiting_time_stat:vector ETV
attr source signal_minion_waiting_time
vector 4 Network.player minion_jobs_number_stat:vector ETV
attr source signal_minion_jobs_number
vector 5 Network.player boss_jobs_number_stat:vector ETV
attr source signal_boss_jobs_number
vector 6 Network.player boss_jobs_queue_number_stat:vector ETV
attr source signal_boss_jobs_queue_number
vector 7 Network.player minion_recovered_stat:vector ETV
attr source signal_minion_recovered
vector 8 Network.player boss_waiting_time_stat:vector ETV
attr source signal_boss_waiting_time
vector 9 Network.player boss_defeated_stat:vector ETV
attr source signal_boss_defeated
vector 10 Network.player boss_response_time_stat:vector ETV
attr source signal_boss_response_time
vector 11 Network.player minion_throughput:vector ETV
attr source signal_minion_throughput
vector 12 Network.player boss_throughput:vector ETV
attr source signal_boss_throughput
0	1975 2582 85 681 350.06316476218 2499.282154684404 97 16 112 6208 473360
1	4557 4877 85 681 350.06316476218 2499.282154684404 191 0 3 107 205
2	9434 3751 85 681 350.06316476218 2499.282154684404 97 0.043843679601 41.313403558996 780.84460051172 12076.847001629
3	13185 3759 85 680 350.06316476218 2497.854875455005 115 0 26.416934927452 429.71768682564 5685.9090561606
4	16944 2405 89 679 376.08969851076 2496.503684932154 94 1 4 146 298
5	19349 2665 94 671 383.641814753773 2483.711986540473 104 1 3 122 164
6	22014 5335 94 674 383.641814753773 2487.672462681151 208 0 2 36 48
7	27349 496 94 661 383.641814753773 2454.499579047895 19 2 20 209 2869
8	27845 2856 94 671 383.641814753773 2483.711986540473 104 0 8.99758365668 32.731305837635 143.64075704088
9	30701 2790 95 674 384.250241574955 2487.672462681151 104 12 115 6604 513084
10	33491 4121 95 674 384.250241574955 2487.672462681151 104 0.012754690027 19.021526358358 366.85880215241 2484.6294759037
11	37612 19 682 682 2500 2500 1 0.0448 0.0448 0.0448 0.00200704
12	37631 18 682 682 2500 2500 1 0.046 0.046 0.046 0.002116

