file 41391 1677866523                                           
version 2
run factors_calibration_minions-25-20230303-19:02:03-25979
attr configname factors_calibration_minions
attr datetime 20230303-19:02:03
attr experiment factors_calibration_minions
attr inifile omnetpp.ini
attr iterationvars $0=1
attr iterationvarsf 1-
attr measurement $0=1
attr network Network
attr processid 25979
attr repetition 25
attr replication #25
attr resultdir results
attr runnumber 25
attr seedset 25
param *.minion.arrival_mean 20
param *.minion.service_mean 1
param *.boss.arrival_mean 20
param *.boss.service_mean 3
param *.player.recover_rate_x 100
param **.minion.arrival_distribution 0
param **.minion.service_distribution 0
param **.boss.arrival_distribution 0
param **.boss.service_distribution 0

vector 0 Network.player minion_jobs_number_stat:vector ETV
attr source signal_minion_jobs_number
vector 1 Network.player minion_jobs_queue_number_stat:vector ETV
attr source signal_minion_jobs_queue_number
vector 2 Network.player minion_waiting_time_stat:vector ETV
attr source signal_minion_waiting_time
vector 3 Network.player minion_defeated_stat:vector ETV
attr source signal_minion_defeated
vector 4 Network.player minion_response_time_stat:vector ETV
attr source signal_minion_response_time
vector 5 Network.player boss_jobs_number_stat:vector ETV
attr source signal_boss_jobs_number
vector 6 Network.player boss_jobs_queue_number_stat:vector ETV
attr source signal_boss_jobs_queue_number
vector 7 Network.player boss_waiting_time_stat:vector ETV
attr source signal_boss_waiting_time
vector 8 Network.player boss_defeated_stat:vector ETV
attr source signal_boss_defeated
vector 9 Network.player boss_response_time_stat:vector ETV
attr source signal_boss_response_time
vector 10 Network.player minion_recovered_stat:vector ETV
attr source signal_minion_recovered
vector 11 Network.player minion_throughput:vector ETV
attr source signal_minion_throughput
vector 12 Network.player boss_throughput:vector ETV
attr source signal_boss_throughput
0	1973 3044 134 818 351.396682218056 2497.034518314533 119 1 3 131 157
1	5017 6081 134 819 351.396682218056 2499.969404956512 238 0 2 24 28
2	11098 3662 134 818 351.396682218056 2497.034518314533 126 0 11.18144143776 83.564397908679 424.88581735823
3	14760 3199 135 819 353.143387686162 2499.969404956512 119 24 142 9877 960211
4	17959 4569 135 819 353.143387686162 2499.969404956512 119 0.009332895883 11.504735252301 194.27862414187 752.93983958958
5	22528 2817 155 815 407.023051346512 2475.119593842137 110 1 3 125 159
6	25345 5634 155 816 407.023051346512 2481.933362073687 220 0 2 30 38
7	30979 2986 155 815 407.023051346512 2475.119593842137 110 0 9.453366983403 48.014977896132 341.54142764868
8	33965 2959 156 816 408.316800267445 2481.933362073687 110 22 131 8415 754655
9	36924 4241 156 816 408.316800267445 2481.933362073687 110 0.008046029435 13.861779321379 353.24350000256 2203.9316117371
10	41165 187 307 709 876.537854406773 2125.829693711752 7 2 8 35 203
11	41352 19 820 820 2500 2500 1 0.0568 0.0568 0.0568 0.00322624
12	41371 19 820 820 2500 2500 1 0.0524 0.0524 0.0524 0.00274576

