file 36582 1677866569                                           
version 2
run factors_calibration_minions-246-20230303-19:02:49-27090
attr configname factors_calibration_minions
attr datetime 20230303-19:02:49
attr experiment factors_calibration_minions
attr inifile omnetpp.ini
attr iterationvars $0=20
attr iterationvarsf 20-
attr measurement $0=20
attr network Network
attr processid 27090
attr repetition 6
attr replication #6
attr resultdir results
attr runnumber 246
attr seedset 6
param *.minion.arrival_mean 20
param *.minion.service_mean 20
param *.boss.arrival_mean 20
param *.boss.service_mean 3
param *.player.recover_rate_x 100
param **.minion.arrival_distribution 0
param **.minion.service_distribution 0
param **.boss.arrival_distribution 0
param **.boss.service_distribution 0

vector 0 Network.player boss_jobs_number_stat:vector ETV
attr source signal_boss_jobs_number
vector 1 Network.player boss_jobs_queue_number_stat:vector ETV
attr source signal_boss_jobs_queue_number
vector 2 Network.player boss_waiting_time_stat:vector ETV
attr source signal_boss_waiting_time
vector 3 Network.player boss_defeated_stat:vector ETV
attr source signal_boss_defeated
vector 4 Network.player boss_response_time_stat:vector ETV
attr source signal_boss_response_time
vector 5 Network.player minion_jobs_number_stat:vector ETV
attr source signal_minion_jobs_number
vector 6 Network.player minion_jobs_queue_number_stat:vector ETV
attr source signal_minion_jobs_queue_number
vector 7 Network.player minion_waiting_time_stat:vector ETV
attr source signal_minion_waiting_time
vector 8 Network.player minion_recovered_stat:vector ETV
attr source signal_minion_recovered
vector 9 Network.player minion_defeated_stat:vector ETV
attr source signal_minion_defeated
vector 10 Network.player minion_response_time_stat:vector ETV
attr source signal_minion_response_time
vector 11 Network.player minion_throughput:vector ETV
attr source signal_minion_throughput
vector 12 Network.player boss_throughput:vector ETV
attr source signal_boss_throughput
0	1976 2402 86 620 350.911095348185 2499.404620087199 94 1 3 106 132
1	4378 4774 86 620 350.911095348185 2499.404620087199 187 0 2 24 28
2	9152 2545 86 620 350.911095348185 2499.404620087199 94 0 6.305245799434 33.211764720562 133.12245076953
3	11697 2480 87 616 352.196654685173 2487.039326346572 93 22 114 6324 497054
4	14177 3571 87 616 352.196654685173 2487.039326346572 93 0.001630762433 14.409923012981 302.45786421284 1895.1785666281
5	17748 2417 91 618 370.292267931132 2492.970618644432 93 1 26 855 11895
6	20165 4197 91 618 370.292267931132 2492.970618644432 162 0 25 1248 16232
7	24362 5588 95 616 377.357196298457 2487.039326346572 143 0 341.51361294299 12826.297149941 2152254.7769196
8	29950 1973 97 620 377.820612985913 2499.404620087199 74 8 81 3293 180301
9	31923 1833 104 604 385.920713401031 2472.665966753673 69 8 76 2898 149086
10	33756 2787 104 604 385.920713401031 2472.665966753673 69 2.497109650058 354.20118921778 6346.5465511584 971919.08893274
11	36543 19 621 621 2500 2500 1 0.0304 0.0304 0.0304 0.00092416
12	36562 19 621 621 2500 2500 1 0.0456 0.0456 0.0456 0.00207936

