file 109732 1670426076                                          
version 2
run Consistency_test_bosses_defeated-181-20221207-16:14:36-7707
attr configname Consistency_test_bosses_defeated
attr datetime 20221207-16:14:36
attr experiment Consistency_test_bosses_defeated
attr inifile omnetpp.ini
attr iterationvars $0=3
attr iterationvarsf 3-
attr measurement $0=3
attr network Network
attr processid 7707
attr repetition 81
attr replication #81
attr resultdir results
attr runnumber 181
attr seedset 81
param *.boss.arrival_mean 1
param *.boss.service_mean 3
param **.minion.arrival_distribution 0
param **.minion.service_distribution 0
param *.minion.arrival_mean 10
param *.minion.service_mean 1
param **.boss.arrival_distribution 0
param **.boss.service_distribution 0

vector 0 Network.player minion_jobs_number_stat:vector ETV
attr source signal_minion_jobs_number
vector 1 Network.player minion_jobs_queue_number_stat:vector ETV
attr source signal_minion_jobs_queue_number
vector 2 Network.player minion_recovered_stat:vector ETV
attr source signal_minion_recovered
vector 3 Network.player minion_defeated_stat:vector ETV
attr source signal_minion_defeated
vector 4 Network.player boss_jobs_number_stat:vector ETV
attr source signal_boss_jobs_number
vector 5 Network.player boss_jobs_queue_number_stat:vector ETV
attr source signal_boss_jobs_queue_number
vector 6 Network.player boss_defeated_stat:vector ETV
attr source signal_boss_defeated
vector 7 Network.player minion_waiting_time_stat:vector ETV
attr source signal_minion_waiting_time
vector 8 Network.player boss_waiting_time_stat:vector ETV
attr source signal_boss_waiting_time
vector 9 Network.player boss_response_time_stat:vector ETV
attr source signal_boss_response_time
vector 10 Network.player minion_throughput:vector ETV
attr source signal_minion_throughput
vector 11 Network.player boss_throughput:vector ETV
attr source signal_boss_throughput
0	1851 2645 0 2527 0 993.457321337722 102 0 101 5151 348551
1	4496 2643 0 2527 0 993.457321337722 102 0 100 5050 338350
2	7139 51 0 12 0 4.123742802979 3 0 2 3 5
3	7190 8 0 0 0 0 1 0 0 0 0
4	7198 26796 0 2541 0 999.802339203537 986 0 616 288305 116553365
5	33994 36774 0 2541 0 999.802339203537 1355 0 615 385220 154230140
6	70768 9975 0 2533 0 996.259491613507 370 0 369 68265 16815945
7	80743 55 2 8 0.622123939876 3.312999209351 2 0 2.580025646632 2.580025646632 6.6565323372789
8	80798 14458 4 2533 0.732973562719 996.259491613507 370 0 606.8017789884 98755.347154941 38408708.423302
9	95256 14441 7 2533 2.515370130138 996.259491613507 369 1.107911733883 607.84516262091 99143.476673919 38609080.910819
10	109697 15 2542 2542 1000 1000 1 0 0 0 0
11	109712 19 2542 2542 1000 1000 1 0.369 0.369 0.369 0.136161

