file 125542 1670426042                                          
version 2
run Consistency_test_bosses_defeated-19-20221207-16:14:02-6895
attr configname Consistency_test_bosses_defeated
attr datetime 20221207-16:14:02
attr experiment Consistency_test_bosses_defeated
attr inifile omnetpp.ini
attr iterationvars $0=2
attr iterationvarsf 2-
attr measurement $0=2
attr network Network
attr processid 6895
attr repetition 19
attr replication #19
attr resultdir results
attr runnumber 19
attr seedset 19
param *.boss.arrival_mean 1
param *.boss.service_mean 2
param **.minion.arrival_distribution 0
param **.minion.service_distribution 0
param *.minion.arrival_mean 10
param *.minion.service_mean 1
param **.boss.arrival_distribution 0
param **.boss.service_distribution 0

vector 0 Network.player minion_jobs_number_stat:vector ETV
attr source signal_minion_jobs_number
vector 1 Network.player minion_jobs_queue_number_stat:vector ETV
attr source signal_minion_jobs_queue_number
vector 2 Network.player minion_recovered_stat:vector ETV
attr source signal_minion_recovered
vector 3 Network.player minion_defeated_stat:vector ETV
attr source signal_minion_defeated
vector 4 Network.player boss_jobs_number_stat:vector ETV
attr source signal_boss_jobs_number
vector 5 Network.player boss_jobs_queue_number_stat:vector ETV
attr source signal_boss_jobs_queue_number
vector 6 Network.player boss_defeated_stat:vector ETV
attr source signal_boss_defeated
vector 7 Network.player boss_waiting_time_stat:vector ETV
attr source signal_boss_waiting_time
vector 8 Network.player boss_response_time_stat:vector ETV
attr source signal_boss_response_time
vector 9 Network.player minion_waiting_time_stat:vector ETV
attr source signal_minion_waiting_time
vector 10 Network.player minion_response_time_stat:vector ETV
attr source signal_minion_response_time
vector 11 Network.player minion_throughput:vector ETV
attr source signal_minion_throughput
vector 12 Network.player boss_throughput:vector ETV
attr source signal_boss_throughput
0	1951 2040 0 2554 0 981.928561880455 79 0 77 3005 155159
1	3991 2062 0 2554 0 981.928561880455 80 0 76 2928 149228
2	6053 54 0 43 0 20.961338049689 3 0 2 3 5
3	6107 31 0 41 0 20.895386005569 2 0 1 1 1
4	6138 26282 0 2593 0 996.088262622353 969 0 468 239125 78379921
5	32420 39916 0 2595 0 998.402895580543 1471 0 467 367969 122182213
6	72336 13650 0 2595 0 998.402895580543 503 0 502 126253 42294755
7	85986 19671 2 2595 0.049380621611 998.402895580543 503 0 458.79409309771 132097.22723619 45373308.493421
8	105657 19703 3 2595 1.438349284785 998.402895580543 502 1.019728598614 459.10441954168 132635.75742249 45659870.922605
9	125360 108 28 41 12.089216364995 20.895386005569 3 8.366546283146 9.841848797743 27.001252420352 244.17542465781
10	125468 35 41 41 20.895386005569 20.895386005569 1 9.8747500984 9.8747500984 9.8747500984 97.510689505851
11	125503 19 2596 2596 1000 1000 1 0.001 0.001 0.001 1e-06
12	125522 19 2596 2596 1000 1000 1 0.502 0.502 0.502 0.252004

