version 2
run Consistency_test_bosses_defeated-36-20221207-16:14:06-6980
attr configname Consistency_test_bosses_defeated
attr datetime 20221207-16:14:06
attr experiment Consistency_test_bosses_defeated
attr inifile omnetpp.ini
attr iterationvars $0=2
attr iterationvarsf 2-
attr measurement $0=2
attr network Network
attr processid 6980
attr repetition 36
attr replication #36
attr resultdir results
attr runnumber 36
attr seedset 36
param *.boss.arrival_mean 1
param *.boss.service_mean 2
param **.minion.arrival_distribution 0
param **.minion.service_distribution 0
param *.minion.arrival_mean 10
param *.minion.service_mean 1
param **.boss.arrival_distribution 0
param **.boss.service_distribution 0

vector 0 Network.player minion_jobs_number_stat:vector ETV
attr source signal_minion_jobs_number
vector 1 Network.player minion_jobs_queue_number_stat:vector ETV
attr source signal_minion_jobs_queue_number
vector 2 Network.player minion_recovered_stat:vector ETV
attr source signal_minion_recovered
vector 3 Network.player minion_defeated_stat:vector ETV
attr source signal_minion_defeated
vector 4 Network.player boss_jobs_number_stat:vector ETV
attr source signal_boss_jobs_number
vector 5 Network.player boss_jobs_queue_number_stat:vector ETV
attr source signal_boss_jobs_queue_number
vector 6 Network.player boss_defeated_stat:vector ETV
attr source signal_boss_defeated
vector 7 Network.player boss_waiting_time_stat:vector ETV
attr source signal_boss_waiting_time
vector 8 Network.player boss_response_time_stat:vector ETV
attr source signal_boss_response_time
vector 9 Network.player minion_waiting_time_stat:vector ETV
attr source signal_minion_waiting_time
vector 10 Network.player minion_response_time_stat:vector ETV
attr source signal_minion_response_time
vector 11 Network.player minion_throughput:vector ETV
attr source signal_minion_throughput
vector 12 Network.player boss_throughput:vector ETV
attr source signal_boss_throughput
0	0	0	0
0	4	0.979922357235	1
0	20	5.831125365695	1
0	65	27.989973101451	2
0	67	28.424002977486	3
0	92	34.900665895655	4
0	97	35.646257449195	5
0	106	37.552076125405	6
0	178	66.235010760694	7
0	200	78.65198337657	8
0	228	88.528408798303	9
0	241	95.620656429285	10
0	249	99.598868200982	11
0	264	105.743038228147	12
0	282	111.145795158423	13
0	328	127.615955694756	14
0	344	135.921418381958	15
0	372	147.31442310721	16
0	384	152.958039708818	17
0	395	156.456050782421	18
0	428	167.79250326613	19
0	457	176.743377189677	20
0	469	186.154849065355	21
0	474	187.139087302783	22
0	482	188.787814042965	23
0	510	204.811320423274	24
0	534	213.318009604367	25
0	551	216.418356692289	26
0	632	239.729348409522	27
0	652	249.339934138068	28
0	695	269.302683640629	29
0	706	272.822407304818	30
0	716	278.530230232587	31
0	817	324.196469221716	32
0	845	332.832802757718	33
0	855	337.799721531618	34
0	874	341.430983946935	35
0	882	346.762116339419	36
0	902	350.933902202135	37
0	919	358.865451220471	38
0	930	360.868288983763	39
0	1023	403.552629381691	40
0	1040	408.936774154189	41
0	1058	416.79480313367	42
0	1142	449.114122380856	43
0	1173	461.556063738373	44
0	1180	463.97560579666	45
0	1237	487.062858578778	46
0	1279	499.25067602224	47
0	1293	501.457867552144	48
0	1310	509.27560593909	49
0	1312	509.864568727705	50
0	1328	515.337076281767	51
0	1404	542.719408014676	52
0	1410	544.194712788815	53
0	1420	545.248636763924	54
0	1428	549.062094252849	55
0	1457	565.785952632767	56
0	1464	567.571271579123	57
0	1493	578.285710396182	58
0	1537	587.479752437433	59
0	1544	593.905035116598	60
0	1566	598.137007933811	61
0	1572	601.252343715887	62
0	1584	605.452782337424	63
0	1591	607.036009924914	64
0	1595	609.331987234199	65
0	1606	615.092683124746	66
0	1622	623.464254953233	67
0	1634	629.469282391316	68
0	1640	631.906246359831	69
0	1679	640.864425132642	70
0	1732	656.941278700361	71
0	1744	658.888541161952	72
0	1770	664.657285877764	73
0	1813	677.69252971342	74
0	1817	679.660498170999	75
0	1832	686.202080539353	76
0	1860	696.531399541184	77
0	1927	722.463028106875	78
0	1942	729.831373248049	79
0	2024	755.391864364702	80
0	2029	758.693584048576	81
0	2057	768.776160342916	82
0	2079	774.365251710049	83
0	2099	784.294617458002	84
0	2138	796.057868659131	85
0	2147	796.650091918473	86
0	2158	798.272092275238	87
0	2190	815.538384528163	88
0	2390	888.305164615263	89
0	2392	889.86195195452	90
0	2419	899.794629676411	91
0	2425	904.030323385209	92
0	2480	926.817782286596	93
0	2500	936.98622483981	94
0	2504	937.786764073442	95
0	2512	939.072998544039	96
1	0	0	0
1	4	0.979922357235	0
1	9	2.413175013921	0
1	20	5.831125365695	0
1	65	27.989973101451	1
1	67	28.424002977486	2
1	92	34.900665895655	3
1	97	35.646257449195	4
1	106	37.552076125405	5
1	178	66.235010760694	6
1	200	78.65198337657	7
1	228	88.528408798303	8
1	241	95.620656429285	9
1	249	99.598868200982	10
1	264	105.743038228147	11
1	282	111.145795158423	12
1	328	127.615955694756	13
1	344	135.921418381958	14
1	372	147.31442310721	15
1	384	152.958039708818	16
1	395	156.456050782421	17
1	428	167.79250326613	18
1	457	176.743377189677	19
1	469	186.154849065355	20
1	474	187.139087302783	21
1	482	188.787814042965	22
1	510	204.811320423274	23
1	534	213.318009604367	24
1	551	216.418356692289	25
1	632	239.729348409522	26
1	652	249.339934138068	27
1	695	269.302683640629	28
1	706	272.822407304818	29
1	716	278.530230232587	30
1	817	324.196469221716	31
1	845	332.832802757718	32
1	855	337.799721531618	33
1	874	341.430983946935	34
1	882	346.762116339419	35
1	902	350.933902202135	36
1	919	358.865451220471	37
1	930	360.868288983763	38
1	1023	403.552629381691	39
1	1040	408.936774154189	40
1	1058	416.79480313367	41
1	1142	449.114122380856	42
1	1173	461.556063738373	43
1	1180	463.97560579666	44
1	1237	487.062858578778	45
1	1279	499.25067602224	46
1	1293	501.457867552144	47
1	1310	509.27560593909	48
1	1312	509.864568727705	49
1	1328	515.337076281767	50
1	1404	542.719408014676	51
1	1410	544.194712788815	52
1	1420	545.248636763924	53
1	1428	549.062094252849	54
1	1457	565.785952632767	55
1	1464	567.571271579123	56
1	1493	578.285710396182	57
1	1537	587.479752437433	58
1	1544	593.905035116598	59
1	1566	598.137007933811	60
1	1572	601.252343715887	61
1	1584	605.452782337424	62
1	1591	607.036009924914	63
1	1595	609.331987234199	64
1	1606	615.092683124746	65
1	1622	623.464254953233	66
1	1634	629.469282391316	67
1	1640	631.906246359831	68
1	1679	640.864425132642	69
1	1732	656.941278700361	70
1	1744	658.888541161952	71
1	1770	664.657285877764	72
1	1813	677.69252971342	73
1	1817	679.660498170999	74
1	1832	686.202080539353	75
1	1860	696.531399541184	76
1	1927	722.463028106875	77
1	1942	729.831373248049	78
1	2024	755.391864364702	79
1	2029	758.693584048576	80
1	2057	768.776160342916	81
1	2079	774.365251710049	82
1	2099	784.294617458002	83
1	2138	796.057868659131	84
1	2147	796.650091918473	85
1	2158	798.272092275238	86
1	2190	815.538384528163	87
1	2390	888.305164615263	88
1	2392	889.86195195452	89
1	2419	899.794629676411	90
1	2425	904.030323385209	91
1	2480	926.817782286596	92
1	2500	936.98622483981	93
1	2504	937.786764073442	94
1	2512	939.072998544039	95
2	0	0	0
2	7	1.873658579483	1
3	0	0	0
3	9	2.413175013921	1
4	0	0	0
4	2	0.689373183775	1
4	7	1.873658579483	1
4	11	2.838370323776	1
4	13	4.097342020291	2
4	15	4.453760723433	3
4	18	5.537292882386	3
4	22	5.839348204371	4
4	24	6.636650326949	5
4	26	7.042897664801	6
4	28	7.839848073775	7
4	30	10.166323384484	8
4	35	13.355204970706	6
4	37	13.805926614565	7
4	39	13.902944100857	8
4	41	13.909308152893	9
4	44	15.803202026436	9
4	47	18.699922395458	9
4	49	19.201196681147	10
4	51	20.632291803259	11
4	53	21.096799622144	12
4	55	22.020605160638	13
4	57	22.750124249663	14
4	59	23.07129875253	15
4	63	24.032529895511	14
4	69	28.535500633406	15
4	71	28.655176993766	16
4	73	29.209817351333	17
4	77	31.460599548686	16
4	83	32.814746365128	13
4	86	33.874325226517	13
4	88	34.199027593156	14
4	90	34.335933639807	15
4	94	35.40763247406	16
4	99	36.470617498115	16
4	101	36.620567044871	17
4	104	37.454719867247	17
4	108	38.661530644057	18
4	110	38.872831872147	19
4	112	39.308604528828	20
4	114	39.411756087067	21
4	117	40.67242018039	21
4	119	40.936565914973	22
4	122	42.011522566161	22
4	124	43.008615619812	23
4	126	43.794030761234	24
4	128	44.408507136311	25
4	131	45.09846561145	25
4	133	46.52776576735	26
4	136	48.465466239391	26
4	138	48.577797199168	27
4	140	48.624131194723	28
4	145	50.128811279879	26
4	147	51.705484937446	27
4	149	53.418784696646	28
4	151	54.053523850097	29
4	153	54.452469742924	30
4	155	54.744040540505	31
4	157	54.752281888669	32
4	159	55.726183792737	33
4	161	56.338452848096	34
4	164	58.380825230385	34
4	166	60.34717043456	35
4	172	65.375027507483	32
4	174	65.578171889691	33
4	180	66.492862966572	32
4	184	71.333399956137	31
4	187	71.729635552545	31
4	190	72.370576229399	31
4	194	74.106847928878	30
4	196	74.843474411421	31
4	198	75.619399493971	32
4	202	79.642446996349	33
4	206	80.625437686092	32
4	208	81.123880181487	33
4	213	82.442596360751	31
4	219	85.740175750107	28
4	222	85.853721557987	28
4	224	86.160950190356	29
4	226	86.202675608583	30
4	230	88.800470799904	31
4	232	89.878460351528	32
4	234	90.162308845194	33
4	237	92.139182958107	33
4	239	95.267469506883	34
4	243	97.426903445128	35
4	247	98.958228243277	34
4	251	100.516977502235	35
4	253	102.034311567832	36
4	256	103.378736974267	36
4	259	104.575249058485	36
4	262	105.109827963755	36
4	266	106.656733416483	37
4	268	107.54246730826	38
4	272	108.6280757615	37
4	274	108.984618970289	38
4	276	110.351525955185	39
4	284	111.266605378815	36
4	286	111.960219839494	37
4	292	114.860792083367	34
4	294	114.895361259781	35
4	296	115.274496586404	36
4	298	115.345906718947	37
4	300	116.266414364118	38
4	302	116.295659210303	39
4	304	118.636071054818	40
4	308	120.181299169856	39
4	310	121.380751225911	40
4	312	123.397448741425	41
4	314	123.980024527857	42
4	317	124.794267067805	42
4	319	125.141785477847	43
4	321	125.291776944667	44
4	323	125.487983667524	45
4	325	125.98007079395	46
4	330	128.306443750945	46
4	332	128.500266982324	47
4	334	132.480151578968	48
4	337	132.899805588928	48
4	341	134.615082457797	47
4	346	136.60429269596	47
4	348	137.488660514557	48
4	350	138.313622888969	49
4	352	138.647684822387	50
4	354	138.99486001166	51
4	356	139.865478824858	52
4	358	139.942277535797	53
4	363	141.683332091531	51
4	366	142.515471386393	51
4	368	144.38244374605	52
4	370	147.189694266045	53
4	375	148.33311236637	53
4	378	149.810265846491	53
4	380	150.639460782575	54
4	382	151.346371528744	55
4	386	153.655127421131	56
4	388	154.318428259431	57
4	390	154.641808477048	58
4	393	156.068120172736	58
4	397	156.687431549336	59
4	400	158.834208113551	59
4	402	159.242007128023	60
4	404	159.881916411085	61
4	408	160.333387241696	60
4	411	161.366701759601	60
4	414	162.32496590296	60
4	416	162.799452276389	61
4	419	165.188355537793	61
4	421	165.330294941523	62
4	423	165.80469277128	63
4	426	167.52277768514	63
4	432	169.340031448652	62
4	434	170.043253028059	63
4	436	170.453052669773	64
4	438	170.786427893626	65
4	440	172.297270257952	66
4	442	172.95045097468	67
4	444	173.028353363763	68
4	446	173.152260330052	69
4	448	173.246254376045	70
4	451	174.353530588959	70
4	454	175.142475402717	70
4	462	178.535057126587	67
4	465	180.840070398124	67
4	467	182.621421345705	68
4	472	186.639380736451	68
4	476	187.658684501463	69
4	478	187.687042274709	70
4	480	188.546521400444	71
4	484	189.531334796162	72
4	486	192.163574439888	73
4	490	195.570707680919	72
4	493	197.724701059569	72
4	496	198.802253047203	72
4	498	199.656593810552	73
4	500	199.939411594529	74
4	502	199.98270690364	75
4	505	202.202984024674	75
4	508	203.093081575394	75
4	514	207.215022829634	74
4	517	207.592954466865	74
4	520	209.031018464957	74
4	522	209.351207742467	75
4	524	211.167678129994	76
4	526	211.597727035531	77
4	528	211.935805666881	78
4	530	212.058839806936	79
4	532	212.179129153524	80
4	536	213.44024050968	81
4	538	214.199569589475	82
4	542	215.255234396536	81
4	545	215.502077444075	81
4	547	215.781526144758	82
4	549	215.916508313643	83
4	553	217.049057592354	84
4	555	217.244938142393	85
4	557	217.306136611689	86
4	559	218.368576373779	87
4	561	218.778021303664	88
4	565	220.485481214279	87
4	567	221.325458936498	88
4	569	221.682887051887	89
4	573	222.455960082341	88
4	575	223.084873757507	89
4	577	223.448046696909	90
4	579	224.728093568998	91
4	581	225.357510913714	92
4	583	226.218352664846	93
4	587	227.300833359712	92
4	589	227.332985081049	93
4	592	229.054820123235	93
4	594	229.490780214045	94
4	596	231.485779300715	95
4	598	231.510040131275	96
4	601	232.091805959314	96
4	604	233.320828013526	96
4	606	233.74650639835	97
4	608	233.967973118524	98
4	610	234.351379284525	99
4	612	234.749482399323	100
4	614	234.912973354219	101
4	619	236.26409750868	99
4	621	236.411850900242	100
4	623	236.594371068445	101
4	625	236.796163271722	102
4	628	237.682229061381	102
4	630	239.72102379061	103
4	634	239.752897403787	104
4	636	242.464424648513	105
4	639	243.268887580003	105
4	641	244.052100851768	106
4	643	244.14589205174	107
4	646	245.471534187462	107
4	648	246.609442443202	108
4	650	247.947633870507	109
4	654	250.893522070034	110
4	657	254.160024179695	110
4	659	254.463059277309	111
4	661	255.102820015778	112
4	663	256.78230067458	113
4	665	256.834187408085	114
4	667	257.384783069148	115
4	669	257.545596386207	116
4	671	259.111802980215	117
4	673	259.83184974554	118
4	675	261.353192121348	119
4	677	261.491728913876	120
4	680	262.252900863598	120
4	682	263.26223003107	121
4	684	265.387475446007	122
4	687	266.922819095766	122
4	690	268.582083699047	122
4	693	269.234346825315	122
4	698	269.554983815997	122
4	700	270.754771645403	123
4	702	271.731625997885	124
4	713	275.983330234425	118
4	720	280.623128286713	116
4	722	281.210686931686	117
4	724	281.557225266412	118
4	726	282.199161352561	119
4	728	282.322809503908	120
4	732	282.843464488478	119
4	734	283.95956205789	120
4	736	285.980670199824	121
4	738	287.095048160759	122
4	740	287.376990709082	123
4	744	290.677280917097	122
4	746	290.784946256311	123
4	751	299.260533050881	121
4	753	299.441291222536	122
4	755	300.408251423275	123
4	759	302.235792786529	122
4	763	303.586600652115	121
4	771	305.623300560874	116
4	774	305.946419382315	116
4	776	306.178860294294	117
4	780	308.728799429563	116
4	782	309.121558018347	117
4	784	309.170536520544	118
4	786	312.49045555818	119
4	788	313.106274654791	120
4	790	313.29612881795	121
4	792	313.779607619378	122
4	795	315.592012746468	122
4	797	316.333908267237	123
4	799	316.486852297752	124
4	803	318.080638506158	123
4	805	319.306906065559	124
4	808	321.245390111039	124
4	810	322.073881083336	125
4	813	323.758602806038	125
4	815	323.922628840782	126
4	821	326.732835795048	125
4	824	327.113039162182	125
4	826	327.209187975897	126
4	828	327.531024822594	127
4	830	327.910890922573	128
4	832	327.955580048022	129
4	834	328.52488611226	130
4	837	329.005464308678	130
4	840	329.917465278131	130
4	842	330.104704971004	131
4	847	332.974061355902	131
4	849	334.380854057009	132
4	851	336.341610646622	133
4	853	336.857559968584	134
4	857	337.880175752345	135
4	859	338.61120926347	136
4	862	339.68710999973	136
4	864	339.828803232284	137
4	866	340.307195189903	138
4	868	340.500273221601	139
4	872	341.117205122158	138
4	878	344.829736131169	137
4	884	347.275294316381	136
4	888	347.62421339366	135
4	890	347.943310494015	136
4	892	348.14303043052	137
4	894	348.331558416902	138
4	896	349.628853409965	139
4	898	349.760727606476	140
4	900	350.84446777739	141
4	904	351.088922500237	142
4	909	354.037201707293	140
4	912	356.759953133731	140
4	914	357.221116644929	141
4	916	357.485497084417	142
4	921	359.048375333769	142
4	923	359.071771769113	143
4	925	359.079375304545	144
4	928	359.890029492381	144
4	935	362.313869780974	142
4	937	362.638208935667	143
4	939	362.73128318032	144
4	942	363.436350995478	144
4	944	364.7115252235	145
4	946	365.719614823751	146
4	948	367.911447165166	147
4	951	368.913275735721	147
4	953	369.18968375301	148
4	955	370.54867789431	149
4	958	372.363368901423	149
4	960	372.61512670047	150
4	962	375.654411246925	151
4	964	377.316641909027	152
4	970	380.669242842815	149
4	973	382.468143151379	149
4	976	382.821415111785	149
4	978	383.885193238668	150
4	981	386.915249408176	150
4	984	389.461311723754	150
4	986	391.424910244822	151
4	989	392.231395208634	151
4	993	394.205906858043	150
4	995	394.759597886946	151
4	997	394.918343110529	152
4	999	395.332062964497	153
4	1001	396.466289977858	154
4	1003	396.887366306663	155
4	1006	397.243916053827	155
4	1011	400.721176152558	153
4	1013	400.900877750498	154
4	1015	401.93265055705	155
4	1017	402.770647507078	156
4	1019	402.98176409578	157
4	1021	403.313825212944	158
4	1025	403.98297138765	159
4	1027	404.890508297367	160
4	1030	405.121482050542	160
4	1032	405.430147649456	161
4	1034	405.834984665787	162
4	1036	406.453838328711	163
4	1042	409.915022467015	162
4	1044	411.060592701828	163
4	1046	411.260432825855	164
4	1048	411.480315713569	165
4	1050	411.493278062453	166
4	1053	413.409350136462	166
4	1055	414.519229133724	167
4	1062	419.313940817427	165
4	1064	420.360589323756	166
4	1067	422.492398110862	166
4	1069	423.150701536938	167
4	1071	423.154248429228	168
4	1073	424.823907818836	169
4	1075	425.352234645597	170
4	1077	426.535024238602	171
4	1079	426.538975839624	172
4	1081	426.580954122159	173
4	1083	426.855566278036	174
4	1085	427.769044840039	175
4	1087	428.850664858358	176
4	1089	429.035707511714	177
4	1091	429.205283649712	178
4	1095	429.83080050196	177
4	1100	434.473750290718	175
4	1102	434.910211359831	176
4	1104	435.483778109208	177
4	1106	435.749988918674	178
4	1109	437.004116226675	178
4	1111	437.54464356647	179
4	1113	437.585574797794	180
4	1115	439.545834421268	181
4	1117	440.367542261614	182
4	1120	440.941356480178	182
4	1122	441.418342414166	183
4	1125	442.044779324381	183
4	1127	442.090832412969	184
4	1130	443.47737284209	184
4	1132	445.373779231274	185
4	1134	445.991661262601	186
4	1136	447.30741578953	187
4	1139	447.983967222068	187
4	1144	449.132726321251	187
4	1146	449.14696560368	188
4	1148	449.538846521993	189
4	1151	450.846557198136	189
4	1153	451.858079329431	190
4	1157	454.242730912993	189
4	1160	456.716051586701	189
4	1162	458.547290452908	190
4	1164	459.126752533317	191
4	1167	459.559845103214	191
4	1171	460.319601937205	190
4	1175	461.584132585713	191
4	1177	462.485354194011	192
4	1182	464.240824046289	192
4	1185	467.511913185416	192
4	1187	471.09046063193	193
4	1189	471.160838994496	194
4	1191	471.225406908109	195
4	1194	471.940580910619	195
4	1196	473.4302568388	196
4	1198	473.441528257957	197
4	1201	475.518357589392	197
4	1204	477.335354500421	197
4	1207	478.941535481281	197
4	1209	479.15489269515	198
4	1211	479.453561219717	199
4	1213	479.930064251536	200
4	1216	480.58750925045	200
4	1218	481.456186090637	201
4	1220	481.765592742227	202
4	1222	481.889673771985	203
4	1224	483.017820275187	204
4	1227	483.554752344643	204
4	1229	483.82570315494	205
4	1231	485.053834995676	206
4	1233	485.064261639721	207
4	1235	486.671076550555	208
4	1239	487.682431060914	209
4	1241	488.726575119269	210
4	1244	489.986060615152	210
4	1246	490.961294524676	211
4	1249	491.384137115713	211
4	1251	492.617583900995	212
4	1253	492.706350159311	213
4	1255	492.755614802946	214
4	1257	492.954991688992	215
4	1259	492.977106764766	216
4	1261	493.264350623662	217
4	1263	493.311388104511	218
4	1265	494.210079009611	219
4	1267	494.241109093077	220
4	1269	496.28628756071	221
4	1271	497.640887650469	222
4	1277	499.100426270751	219
4	1281	499.272704822163	220
4	1283	499.357812297039	221
4	1285	500.446829301148	222
4	1287	500.516531965787	223
4	1289	500.852924111595	224
4	1291	501.202389097404	225
4	1295	501.79559951407	226
4	1297	503.481572808787	227
4	1299	504.375601613639	228
4	1301	504.941762442116	229
4	1304	506.35941735165	229
4	1307	507.893272695637	229
4	1314	510.100245606542	229
4	1317	510.98989960661	229
4	1319	512.020261553711	230
4	1322	514.009800002775	230
4	1324	514.657247101655	231
4	1326	515.008291817001	232
4	1331	516.439645313049	232
4	1335	518.080895166326	231
4	1337	518.089040925841	232
4	1339	518.774270545521	233
4	1341	519.596950137066	234
4	1343	521.497731430772	235
4	1345	522.826730408095	236
4	1347	523.895013397646	237
4	1349	524.705690094361	238
4	1351	524.873404274273	239
4	1353	525.168932472508	240
4	1356	526.748973446977	240
4	1358	527.323624243838	241
4	1360	527.33410985653	242
4	1362	528.345597541277	243
4	1364	529.398664189597	244
4	1366	529.650751742836	245
4	1368	529.726553776085	246
4	1370	530.820318074402	247
4	1373	533.214670239557	247
4	1376	534.142603077362	247
4	1378	535.432890494072	248
4	1380	535.447658629666	249
4	1383	535.827510790602	249
4	1385	536.244026662134	250
4	1387	537.070659166247	251
4	1389	537.564772949681	252
4	1391	537.575150009713	253
4	1393	538.435312562553	254
4	1395	538.871754221365	255
4	1397	539.159489360743	256
4	1400	539.6606512556	256
4	1402	541.648590829428	257
4	1406	542.977382241851	258
4	1408	543.244060689326	259
4	1412	544.463200803689	260
4	1414	544.637464437163	261
4	1416	544.819643952114	262
4	1418	545.077148943624	263
4	1422	545.972068101607	264
4	1426	548.998201308783	263
4	1430	549.217597491708	264
4	1434	554.615366335086	263
4	1436	555.354856776689	264
4	1438	556.581497495866	265
4	1441	557.319898091662	265
4	1445	559.295213016768	264
4	1447	559.628117154571	265
4	1450	562.027486808772	265
4	1452	562.895131351194	266
4	1455	565.488582096501	266
4	1459	565.841750529479	267
4	1462	567.275098923874	267
4	1466	568.202778631646	268
4	1470	570.25096018649	267
4	1473	570.803714113673	267
4	1475	571.568950765645	268
4	1477	574.107343858007	269
4	1481	574.910280631651	268
4	1483	575.771600956322	269
4	1485	576.100623304106	270
4	1487	576.280054944843	271
4	1489	576.807206166895	272
4	1491	578.202518681145	273
4	1495	578.624189985238	274
4	1497	579.55307187415	275
4	1500	580.199152611325	275
4	1502	580.261395809752	276
4	1504	580.374585946843	277
4	1506	580.597478905938	278
4	1508	580.804418968524	279
4	1512	581.713381627598	278
4	1514	582.026298783329	279
4	1516	583.283790295458	280
4	1518	583.591992336413	281
4	1520	583.760216098332	282
4	1522	583.82440486272	283
4	1525	584.975760050618	283
4	1527	585.22674479909	284
4	1529	585.354537954011	285
4	1533	586.858467251314	284
4	1535	586.910504931828	285
4	1539	591.430162951779	286
4	1541	591.985051256926	287
4	1546	594.680303573318	287
4	1548	595.036346440899	288
4	1550	595.523755608944	289
4	1552	595.619925793001	290
4	1554	596.11279487947	291
4	1556	596.191557907204	292
4	1560	597.170749570266	291
4	1563	597.957769541389	291
4	1568	598.342948118386	291
4	1574	602.539313753954	290
4	1576	602.882783005527	291
4	1580	604.224721254021	290
4	1582	605.367456339905	291
4	1586	606.547943140707	292
4	1589	607.020477803302	292
4	1593	609.19268651017	293
4	1597	609.558015304263	294
4	1602	614.198457028804	292
4	1604	614.627766025308	293
4	1608	615.912828843971	294
4	1610	616.899133288539	295
4	1613	617.533439859366	295
4	1616	618.52534090539	295
4	1618	618.801035694783	296
4	1625	626.133256502445	294
4	1627	626.139947450054	295
4	1632	629.305689917102	293
4	1637	630.9241916344	293
4	1642	632.375213032128	293
4	1646	634.43062254212	292
4	1648	634.624837381007	293
4	1650	635.202022022712	294
4	1652	635.568936697132	295
4	1654	635.576352721385	296
4	1656	635.831632614044	297
4	1658	636.145844697828	298
4	1660	636.638838394909	299
4	1662	637.564510960199	300
4	1664	637.763927331042	301
4	1666	637.940928108305	302
4	1668	639.16710409528	303
4	1670	639.195349626631	304
4	1672	639.503801835165	305
4	1674	639.782432558467	306
4	1677	640.303838748481	306
4	1683	642.571812752241	305
4	1686	643.223640389074	305
4	1689	644.228952342088	305
4	1692	644.592281547572	305
4	1696	646.41711084328	304
4	1698	646.826213314982	305
4	1700	650.065823584846	306
4	1702	650.238373102144	307
4	1706	652.02504474407	306
4	1709	652.55327467916	306
4	1711	652.800061438914	307
4	1714	653.68422352914	307
4	1717	653.952878545149	307
4	1720	654.858733945356	307
4	1725	656.010535990854	305
4	1727	656.229679669315	306
4	1730	656.704785565948	306
4	1734	657.02898415041	307
4	1736	657.079106235041	308
4	1738	657.519220871677	309
4	1740	657.840820730687	310
4	1742	658.01069103211	311
4	1747	660.398335380003	311
4	1749	660.791995516555	312
4	1751	661.215672096756	313
4	1754	661.885531944004	313
4	1756	662.125149164847	314
4	1758	662.632392602369	315
4	1762	663.65500829485	314
4	1764	664.091805934759	315
4	1766	664.20659360629	316
4	1768	664.404837029182	317
4	1772	665.834479544204	318
4	1774	665.906422671081	319
4	1776	666.02994168336	320
4	1778	666.666603733394	321
4	1781	666.817540632867	321
4	1784	667.144380401261	321
4	1786	667.594011993377	322
4	1788	667.881854683753	323
4	1790	668.759165835028	324
4	1796	671.087665245363	321
4	1799	672.572092756315	321
4	1801	672.903109986795	322
4	1803	672.934656999967	323
4	1805	674.933620529984	324
4	1807	675.026075458002	325
4	1809	676.477858790491	326
4	1811	677.690596223142	327
4	1815	678.235957654399	328
4	1819	679.822138698987	329
4	1823	680.335921501353	328
4	1825	680.63300868099	329
4	1827	681.648587287356	330
4	1830	683.058744621554	330
4	1836	688.348245463214	329
4	1839	689.295192621682	329
4	1841	690.013265861796	330
4	1843	690.587182891548	331
4	1847	692.923469190137	330
4	1849	693.341021666443	331
4	1851	694.235686271065	332
4	1853	694.352803602268	333
4	1856	695.712400331697	333
4	1858	696.519006183476	334
4	1863	699.458453496094	334
4	1865	700.910324574351	335
4	1867	701.261993454995	336
4	1869	701.346960647632	337
4	1872	702.976144483183	337
4	1875	705.107690678127	337
4	1877	705.341466570889	338
4	1879	706.570408804339	339
4	1881	709.027052075728	340
4	1885	711.012891301987	339
4	1890	713.208240746893	337
4	1892	713.217396036999	338
4	1894	713.773880245599	339
4	1896	714.898161572141	340
4	1898	715.090893708571	341
4	1900	715.23673696653	342
4	1904	716.432455015982	341
4	1906	716.999642893434	342
4	1908	717.462049939748	343
4	1910	718.148734862967	344
4	1912	718.748151647147	345
4	1915	719.715468972971	345
4	1917	719.790095504671	346
4	1919	720.259326010434	347
4	1921	721.157127342116	348
4	1923	721.163425774859	349
4	1925	721.512037473915	350
4	1930	723.72821138858	350
4	1932	725.176265044604	351
4	1934	725.705175796531	352
4	1937	726.381899471408	352
4	1940	729.254745161084	352
4	1946	731.647267367059	351
4	1948	731.724245950843	352
4	1950	732.66514460714	353
4	1952	733.147423494432	354
4	1954	733.912224509459	355
4	1956	733.976337603793	356
4	1958	734.856644664149	357
4	1961	736.465801055513	357
4	1963	736.656672845725	358
4	1965	736.889179961224	359
4	1967	737.136145583391	360
4	1970	739.311272414723	360
4	1972	739.912105672712	361
4	1974	740.145960383514	362
4	1976	740.980508987049	363
4	1978	742.012807634099	364
4	1980	742.739132409252	365
4	1982	742.816793967083	366
4	1985	744.108511460697	366
4	1987	744.408533764149	367
4	1989	744.529353510321	368
4	1992	744.768321292222	368
4	1994	744.963004573722	369
4	1996	745.467732274537	370
4	1998	745.938736830134	371
4	2000	746.081380759168	372
4	2002	746.699167475207	373
4	2004	747.348332591797	374
4	2010	749.51658594834	371
4	2012	749.803328525258	372
4	2014	749.943943568251	373
4	2016	751.939635117303	374
4	2019	752.453677458879	374
4	2022	754.885340688225	374
4	2031	759.003081203149	372
4	2034	759.866358119296	372
4	2037	761.538442655641	372
4	2039	761.749177941111	373
4	2041	764.021584824068	374
4	2044	766.288599954402	374
4	2047	766.985486403248	374
4	2049	767.139655843891	375
4	2051	767.319261283372	376
4	2053	767.498182959684	377
4	2055	767.832611953625	378
4	2059	769.556469233313	379
4	2062	770.417033122609	379
4	2065	770.768515430956	379
4	2069	771.779371396806	378
4	2071	771.781060052791	379
4	2075	773.989177237384	378
4	2077	774.077845646979	379
4	2082	775.007237910464	379
4	2084	775.210551570424	380
4	2086	776.621649554727	381
4	2088	778.407085209224	382
4	2090	778.644692601386	383
4	2092	779.25203490822	384
4	2094	780.525265121183	385
4	2096	782.531885659541	386
4	2101	785.587410375081	386
4	2103	787.109316441175	387
4	2105	787.885554036439	388
4	2107	789.886526070315	389
4	2109	790.378576503159	390
4	2111	791.203628825928	391
4	2113	791.640107085875	392
4	2116	792.43120852527	392
4	2118	792.694202492682	393
4	2120	794.757506867142	394
4	2122	794.910266836881	395
4	2124	794.973701632606	396
4	2126	795.020267884132	397
4	2128	795.199362080556	398
4	2130	795.379204678522	399
4	2132	795.417498021466	400
4	2136	795.84235616966	399
4	2140	796.302855388294	400
4	2142	796.314892438376	401
4	2145	796.566578941528	401
4	2149	796.698975301712	402
4	2151	797.559348512839	403
4	2156	798.245626805277	401
4	2160	800.686448898279	402
4	2162	801.514655156372	403
4	2164	802.189709740129	404
4	2168	803.663787121958	403
4	2170	804.20391087233	404
4	2173	805.730626739078	404
4	2176	806.229389216767	404
4	2178	807.926055659074	405
4	2180	809.419449485712	406
4	2182	809.572551071058	407
4	2185	812.742583472788	407
4	2187	813.565651452441	408
4	2192	816.185224769859	408
4	2195	818.062615816174	408
4	2201	819.905010879269	405
4	2204	821.15141873417	405
4	2208	822.45347656991	404
4	2211	824.344119878088	404
4	2215	825.215578602458	403
4	2217	825.340198954366	404
4	2219	826.02560539377	405
4	2221	826.250389426925	406
4	2224	826.632614318504	406
4	2226	827.372546990528	407
4	2228	827.985121966492	408
4	2230	828.493773347911	409
4	2232	829.193560014621	410
4	2234	829.303254229978	411
4	2236	829.324435084009	412
4	2238	830.204437186541	413
4	2242	833.973428633212	412
4	2245	835.027345741986	412
4	2247	835.876533508055	413
4	2249	836.486049092872	414
4	2252	839.049546002844	414
4	2254	839.443986482009	415
4	2257	840.031022641939	415
4	2259	840.518610153235	416
4	2262	840.935736773482	416
4	2264	841.268909948086	417
4	2266	841.540240003522	418
4	2268	841.697527546537	419
4	2273	843.23781227424	417
4	2276	844.591191490328	417
4	2278	844.591557425485	418
4	2280	846.553796801744	419
4	2284	851.88475237305	418
4	2286	852.091507219374	419
4	2288	852.713112692135	420
4	2291	853.057723028429	420
4	2293	854.893045456603	421
4	2295	856.435442649594	422
4	2297	856.661503536894	423
4	2302	858.059680972225	421
4	2304	858.52331938835	422
4	2306	859.130196200251	423
4	2308	859.309635892564	424
4	2310	859.862733148242	425
4	2313	860.388445951102	425
4	2315	860.622227349471	426
4	2317	860.778842897345	427
4	2319	863.18149538376	428
4	2321	865.284022305523	429
4	2323	865.389390405383	430
4	2325	865.462866751307	431
4	2327	865.503369662849	432
4	2329	865.851736804631	433
4	2331	865.889662412529	434
4	2333	866.308785025508	435
4	2335	866.412419336028	436
4	2337	866.755363886317	437
4	2339	867.007012705792	438
4	2341	867.363996819513	439
4	2345	867.938369950993	438
4	2347	868.134456570379	439
4	2349	869.621617754984	440
4	2351	871.244071259804	441
4	2353	871.859716428554	442
4	2355	872.451169482936	443
4	2359	874.844088389573	442
4	2362	875.453782447193	442
4	2365	876.768132639816	442
4	2368	877.961680397999	442
4	2370	878.14151987308	443
4	2374	882.876148299334	442
4	2376	883.874773728793	443
4	2378	884.198571254737	444
4	2380	884.525673923483	445
4	2382	886.089274026555	446
4	2384	886.622908116018	447
4	2386	887.264462526084	448
4	2388	888.245472439087	449
4	2394	890.521159078926	450
4	2397	891.391737649257	450
4	2400	894.399771078529	450
4	2403	895.44998871521	450
4	2405	898.320501204266	451
4	2407	898.339576130271	452
4	2409	898.359087913596	453
4	2412	898.448634699776	453
4	2414	898.670231181043	454
4	2416	899.40141053439	455
4	2422	901.598691409199	454
4	2427	904.976849671806	454
4	2429	905.068921413895	455
4	2432	906.111091337786	455
4	2434	907.729806381233	456
4	2436	907.777169928827	457
4	2439	910.173978772085	457
4	2443	911.172467603922	456
4	2445	911.267772913387	457
4	2447	913.696336468188	458
4	2449	913.944746424243	459
4	2451	916.31751007868	460
4	2453	916.608391441241	461
4	2455	917.014999220424	462
4	2457	917.608929587659	463
4	2459	919.085494595622	464
4	2461	919.448321671678	465
4	2465	921.379284406454	464
4	2468	923.08832277376	464
4	2471	924.589712914712	464
4	2473	924.662787970353	465
4	2476	925.539824136931	465
4	2478	925.904929139278	466
4	2483	927.586990010203	466
4	2485	928.273459662031	467
4	2488	929.258714976353	467
4	2490	929.383346707287	468
4	2493	932.49528540015	468
4	2497	934.509260852332	467
4	2502	937.057776009468	467
4	2507	938.441165075339	467
4	2509	938.592926878779	468
4	2514	940.842579666549	468
4	2517	944.493944044546	468
4	2520	945.334876869045	468
4	2522	945.40149604768	469
4	2524	945.510148815856	470
4	2526	946.157026266307	471
4	2529	946.257000569522	471
4	2531	946.44317451217	472
4	2533	947.218267540614	473
4	2536	948.095636777557	473
4	2538	950.745802823326	474
4	2540	953.611635203924	475
4	2542	955.583064507048	476
4	2544	956.2707001977	477
4	2546	956.775847854431	478
4	2549	957.715197220789	478
4	2554	958.445198152329	476
4	2557	960.112992041624	476
4	2559	961.35057683343	477
4	2562	964.389403592266	477
4	2564	965.063403672669	478
4	2566	965.186957104665	479
4	2568	966.338928468114	480
4	2570	966.54550909837	481
4	2572	966.674860734291	482
4	2575	967.226488829553	482
4	2577	967.617514621645	483
4	2579	972.560566386634	484
4	2581	972.649532122863	485
4	2583	973.478349991231	486
4	2585	974.44945551316	487
4	2587	974.496455185464	488
4	2590	975.072434457328	488
4	2592	976.290410166624	489
4	2594	977.376439667108	490
4	2596	977.869194814041	491
4	2598	978.22966974412	492
4	2600	979.454529115176	493
4	2602	980.62641070096	494
4	2605	981.23275108654	494
4	2607	981.495188918208	495
4	2609	982.233915490724	496
4	2611	982.518191203869	497
4	2613	982.820980677573	498
4	2615	983.189515653555	499
4	2617	983.490674197515	500
4	2619	983.549679386413	501
4	2621	983.661403833772	502
4	2624	986.708149272458	502
4	2626	986.981657115915	503
4	2628	987.673262423964	504
4	2630	987.787059644283	505
4	2633	988.976955854345	505
4	2639	991.573540933976	502
4	2641	991.746480886426	503
4	2643	991.946170234102	504
4	2646	993.057152227187	504
4	2648	993.244967698589	505
4	2650	993.422541231292	506
4	2652	995.497027166716	507
4	2654	995.903271095363	508
4	2657	997.098875425628	508
4	2659	997.208285675702	509
4	2662	998.8662198382	509
4	2664	999.501250379359	510
5	0	0	0
5	2	0.689373183775	0
5	5	1.602981274285	0
5	7	1.873658579483	0
5	8	2.300628970653	0
5	11	2.838370323776	0
5	13	4.097342020291	1
5	15	4.453760723433	2
5	16	4.843055636786	2
5	18	5.537292882386	2
5	22	5.839348204371	3
5	24	6.636650326949	4
5	26	7.042897664801	5
5	28	7.839848073775	6
5	30	10.166323384484	7
5	31	10.412414799633	7
5	32	10.475047076812	6
5	33	12.702337926914	5
5	35	13.355204970706	5
5	37	13.805926614565	6
5	39	13.902944100857	7
5	41	13.909308152893	8
5	42	15.052825656899	8
5	44	15.803202026436	8
5	45	18.012850904047	8
5	47	18.699922395458	8
5	49	19.201196681147	9
5	51	20.632291803259	10
5	53	21.096799622144	11
5	55	22.020605160638	12
5	57	22.750124249663	13
5	59	23.07129875253	14
5	60	23.568007843527	14
5	61	23.985694011644	13
5	63	24.032529895511	13
5	69	28.535500633406	14
5	71	28.655176993766	15
5	73	29.209817351333	16
5	74	29.660285372484	16
5	75	30.883131233591	15
5	77	31.460599548686	15
5	78	31.858922390316	15
5	79	31.859316757692	14
5	80	32.013653214965	13
5	81	32.345983541373	12
5	83	32.814746365128	12
5	84	33.675473553552	12
5	86	33.874325226517	12
5	88	34.199027593156	13
5	90	34.335933639807	14
5	94	35.40763247406	15
5	95	35.480851758787	15
5	99	36.470617498115	15
5	101	36.620567044871	16
5	102	37.168883553667	16
5	104	37.454719867247	16
5	108	38.661530644057	17
5	110	38.872831872147	18
5	112	39.308604528828	19
5	114	39.411756087067	20
5	115	39.668399648969	20
5	117	40.67242018039	20
5	119	40.936565914973	21
5	120	41.550804385709	21
5	122	42.011522566161	21
5	124	43.008615619812	22
5	126	43.794030761234	23
5	128	44.408507136311	24
5	129	44.974408564483	24
5	131	45.09846561145	24
5	133	46.52776576735	25
5	134	47.346164431414	25
5	136	48.465466239391	25
5	138	48.577797199168	26
5	140	48.624131194723	27
5	141	49.699555767603	27
5	142	49.746419432444	26
5	143	49.871394312433	25
5	145	50.128811279879	25
5	147	51.705484937446	26
5	149	53.418784696646	27
5	151	54.053523850097	28
5	153	54.452469742924	29
5	155	54.744040540505	30
5	157	54.752281888669	31
5	159	55.726183792737	32
5	161	56.338452848096	33
5	162	57.322184228403	33
5	164	58.380825230385	33
5	166	60.34717043456	34
5	167	62.845372063842	34
5	168	62.860223810169	33
5	169	63.103005608845	32
5	170	64.464618124209	31
5	172	65.375027507483	31
5	174	65.578171889691	32
5	175	65.588448740104	32
5	176	65.93489986776	31
5	180	66.492862966572	31
5	181	66.876576032698	31
5	182	69.755999618486	30
5	184	71.333399956137	30
5	185	71.594782178017	30
5	187	71.729635552545	30
5	188	72.266074790269	30
5	190	72.370576229399	30
5	191	73.63682670533	30
5	192	74.034275895262	29
5	194	74.106847928878	29
5	196	74.843474411421	30
5	198	75.619399493971	31
5	202	79.642446996349	32
5	203	79.833407743624	32
5	204	80.243992735033	31
5	206	80.625437686092	31
5	208	81.123880181487	32
5	209	82.278368426961	32
5	210	82.324417321447	31
5	211	82.381524045841	30
5	213	82.442596360751	30
5	214	82.834229107669	30
5	215	83.411934932225	29
5	216	84.232094196784	28
5	217	84.510047267921	27
5	219	85.740175750107	27
5	220	85.817111635382	27
5	222	85.853721557987	27
5	224	86.160950190356	28
5	226	86.202675608583	29
5	230	88.800470799904	30
5	232	89.878460351528	31
5	234	90.162308845194	32
5	235	91.201975231297	32
5	237	92.139182958107	32
5	239	95.267469506883	33
5	243	97.426903445128	34
5	244	97.857412628242	34
5	245	98.456376398486	33
5	247	98.958228243277	33
5	251	100.516977502235	34
5	253	102.034311567832	35
5	254	103.361908971764	35
5	256	103.378736974267	35
5	257	103.96698461068	35
5	259	104.575249058485	35
5	260	104.673817093639	35
5	262	105.109827963755	35
5	266	106.656733416483	36
5	268	107.54246730826	37
5	269	108.109031752927	37
5	270	108.169645895851	36
5	272	108.6280757615	36
5	274	108.984618970289	37
5	276	110.351525955185	38
5	277	110.431206346427	38
5	278	110.44347042101	37
5	279	110.998953064168	36
5	280	111.029483449897	35
5	284	111.266605378815	35
5	286	111.960219839494	36
5	287	112.051856632664	36
5	288	112.210163653193	35
5	289	114.215549327899	34
5	290	114.705706199883	33
5	292	114.860792083367	33
5	294	114.895361259781	34
5	296	115.274496586404	35
5	298	115.345906718947	36
5	300	116.266414364118	37
5	302	116.295659210303	38
5	304	118.636071054818	39
5	305	119.017678597532	39
5	306	120.166542490505	38
5	308	120.181299169856	38
5	310	121.380751225911	39
5	312	123.397448741425	40
5	314	123.980024527857	41
5	315	124.264236263589	41
5	317	124.794267067805	41
5	319	125.141785477847	42
5	321	125.291776944667	43
5	323	125.487983667524	44
5	325	125.98007079395	45
5	326	126.431322455706	45
5	330	128.306443750945	45
5	332	128.500266982324	46
5	334	132.480151578968	47
5	335	132.877496907711	47
5	337	132.899805588928	47
5	338	134.219316840514	47
5	339	134.574510401435	46
5	341	134.615082457797	46
5	342	135.191853953085	46
5	346	136.60429269596	46
5	348	137.488660514557	47
5	350	138.313622888969	48
5	352	138.647684822387	49
5	354	138.99486001166	50
5	356	139.865478824858	51
5	358	139.942277535797	52
5	359	140.279818501258	52
5	360	140.342741760211	51
5	361	141.630223717398	50
5	363	141.683332091531	50
5	364	141.909263390306	50
5	366	142.515471386393	50
5	368	144.38244374605	51
5	370	147.189694266045	52
5	373	147.73098008998	52
5	375	148.33311236637	52
5	376	148.701366881632	52
5	378	149.810265846491	52
5	380	150.639460782575	53
5	382	151.346371528744	54
5	386	153.655127421131	55
5	388	154.318428259431	56
5	390	154.641808477048	57
5	391	155.031104721385	57
5	393	156.068120172736	57
5	397	156.687431549336	58
5	398	157.371243449969	58
5	400	158.834208113551	58
5	402	159.242007128023	59
5	404	159.881916411085	60
5	405	160.035729594487	60
5	406	160.201998139971	59
5	408	160.333387241696	59
5	409	160.450699128836	59
5	411	161.366701759601	59
5	412	161.837342474863	59
5	414	162.32496590296	59
5	416	162.799452276389	60
5	417	162.989551049807	60
5	419	165.188355537793	60
5	421	165.330294941523	61
5	423	165.80469277128	62
5	424	167.249355694399	62
5	426	167.52277768514	62
5	429	168.024675201017	62
5	430	169.113586452372	61
5	432	169.340031448652	61
5	434	170.043253028059	62
5	436	170.453052669773	63
5	438	170.786427893626	64
5	440	172.297270257952	65
5	442	172.95045097468	66
5	444	173.028353363763	67
5	446	173.152260330052	68
5	448	173.246254376045	69
5	449	173.630659611814	69
5	451	174.353530588959	69
5	452	175.065940534442	69
5	454	175.142475402717	69
5	455	176.698265371579	69
5	458	176.848499988352	68
5	459	177.163060962762	67
5	460	178.219613733951	66
5	462	178.535057126587	66
5	463	180.255574013408	66
5	465	180.840070398124	66
5	467	182.621421345705	67
5	470	186.369383781995	67
5	472	186.639380736451	67
5	476	187.658684501463	68
5	478	187.687042274709	69
5	480	188.546521400444	70
5	484	189.531334796162	71
5	486	192.163574439888	72
5	487	193.890268720832	72
5	488	195.294224791043	71
5	490	195.570707680919	71
5	491	196.299067327176	71
5	493	197.724701059569	71
5	494	198.615446748611	71
5	496	198.802253047203	71
5	498	199.656593810552	72
5	500	199.939411594529	73
5	502	199.98270690364	74
5	503	200.787979695701	74
5	505	202.202984024674	74
5	506	202.832912495665	74
5	508	203.093081575394	74
5	511	205.387520266176	74
5	512	205.878048665517	73
5	514	207.215022829634	73
5	515	207.466290607709	73
5	517	207.592954466865	73
5	518	208.717989797751	73
5	520	209.031018464957	73
5	522	209.351207742467	74
5	524	211.167678129994	75
5	526	211.597727035531	76
5	528	211.935805666881	77
5	530	212.058839806936	78
5	532	212.179129153524	79
5	536	213.44024050968	80
5	538	214.199569589475	81
5	539	214.65811477828	81
5	540	214.690021772251	80
5	542	215.255234396536	80
5	543	215.275124438955	80
5	545	215.502077444075	80
5	547	215.781526144758	81
5	549	215.916508313643	82
5	553	217.049057592354	83
5	555	217.244938142393	84
5	557	217.306136611689	85
5	559	218.368576373779	86
5	561	218.778021303664	87
5	562	219.658443731831	87
5	563	220.440291587659	86
5	565	220.485481214279	86
5	567	221.325458936498	87
5	569	221.682887051887	88
5	570	221.809039052689	88
5	571	222.361133581941	87
5	573	222.455960082341	87
5	575	223.084873757507	88
5	577	223.448046696909	89
5	579	224.728093568998	90
5	581	225.357510913714	91
5	583	226.218352664846	92
5	584	226.477833613164	92
5	585	226.93992423435	91
5	587	227.300833359712	91
5	589	227.332985081049	92
5	590	228.437809607958	92
5	592	229.054820123235	92
5	594	229.490780214045	93
5	596	231.485779300715	94
5	598	231.510040131275	95
5	599	231.736613969965	95
5	601	232.091805959314	95
5	602	232.310297448703	95
5	604	233.320828013526	95
5	606	233.74650639835	96
5	608	233.967973118524	97
5	610	234.351379284525	98
5	612	234.749482399323	99
5	614	234.912973354219	100
5	615	235.736886272961	100
5	616	235.953872337565	99
5	617	235.956266909081	98
5	619	236.26409750868	98
5	621	236.411850900242	99
5	623	236.594371068445	100
5	625	236.796163271722	101
5	626	237.135321248545	101
5	628	237.682229061381	101
5	630	239.72102379061	102
5	634	239.752897403787	103
5	636	242.464424648513	104
5	637	242.47913385963	104
5	639	243.268887580003	104
5	641	244.052100851768	105
5	643	244.14589205174	106
5	644	244.931946673404	106
5	646	245.471534187462	106
5	648	246.609442443202	107
5	650	247.947633870507	108
5	654	250.893522070034	109
5	655	252.284447724208	109
5	657	254.160024179695	109
5	659	254.463059277309	110
5	661	255.102820015778	111
5	663	256.78230067458	112
5	665	256.834187408085	113
5	667	257.384783069148	114
5	669	257.545596386207	115
5	671	259.111802980215	116
5	673	259.83184974554	117
5	675	261.353192121348	118
5	677	261.491728913876	119
5	678	261.556208805341	119
5	680	262.252900863598	119
5	682	263.26223003107	120
5	684	265.387475446007	121
5	685	266.449649924118	121
5	687	266.922819095766	121
5	688	267.678102060112	121
5	690	268.582083699047	121
5	691	268.784868253374	121
5	693	269.234346825315	121
5	696	269.475707283	121
5	698	269.554983815997	121
5	700	270.754771645403	122
5	702	271.731625997885	123
5	703	272.00843556263	123
5	704	272.29212077509	122
5	707	273.134839878749	121
5	708	274.996030415212	120
5	709	275.389015096118	119
5	710	275.462251987811	118
5	711	275.971136648214	117
5	713	275.983330234425	117
5	714	277.808458636461	117
5	717	279.476346297784	116
5	718	280.505595503735	115
5	720	280.623128286713	115
5	722	281.210686931686	116
5	724	281.557225266412	117
5	726	282.199161352561	118
5	728	282.322809503908	119
5	729	282.552308448101	119
5	730	282.613367118505	118
5	732	282.843464488478	118
5	734	283.95956205789	119
5	736	285.980670199824	120
5	738	287.095048160759	121
5	740	287.376990709082	122
5	741	287.993216915634	122
5	742	289.737646497528	121
5	744	290.677280917097	121
5	746	290.784946256311	122
5	747	291.722090222812	122
5	748	294.782223632922	121
5	749	295.172119876051	120
5	751	299.260533050881	120
5	753	299.441291222536	121
5	755	300.408251423275	122
5	756	301.024421159638	122
5	757	302.052650349658	121
5	759	302.235792786529	121
5	760	302.246103271418	121
5	761	303.404098790964	120
5	763	303.586600652115	120
5	764	303.75113216476	120
5	765	303.980781892862	119
5	766	303.982108960606	118
5	767	304.477128278243	117
5	768	304.554857099514	116
5	769	305.047556248859	115
5	771	305.623300560874	115
5	772	305.768270182201	115
5	774	305.946419382315	115
5	776	306.178860294294	116
5	777	308.138811004598	116
5	778	308.627774233298	115
5	780	308.728799429563	115
5	782	309.121558018347	116
5	784	309.170536520544	117
5	786	312.49045555818	118
5	788	313.106274654791	119
5	790	313.29612881795	120
5	792	313.779607619378	121
5	793	315.542576540521	121
5	795	315.592012746468	121
5	797	316.333908267237	122
5	799	316.486852297752	123
5	800	317.376559533135	123
5	801	317.580416927666	122
5	803	318.080638506158	122
5	805	319.306906065559	123
5	806	320.562546842013	123
5	808	321.245390111039	123
5	810	322.073881083336	124
5	811	323.312573775809	124
5	813	323.758602806038	124
5	815	323.922628840782	125
5	818	324.64275553415	125
5	819	325.396272354956	124
5	821	326.732835795048	124
5	822	327.056836536703	124
5	824	327.113039162182	124
5	826	327.209187975897	125
5	828	327.531024822594	126
5	830	327.910890922573	127
5	832	327.955580048022	128
5	834	328.52488611226	129
5	835	328.643498333151	129
5	837	329.005464308678	129
5	838	329.332164539942	129
5	840	329.917465278131	129
5	842	330.104704971004	130
5	843	330.763588420304	130
5	847	332.974061355902	130
5	849	334.380854057009	131
5	851	336.341610646622	132
5	853	336.857559968584	133
5	857	337.880175752345	134
5	859	338.61120926347	135
5	860	338.814436210415	135
5	862	339.68710999973	135
5	864	339.828803232284	136
5	866	340.307195189903	137
5	868	340.500273221601	138
5	869	340.685966003689	138
5	870	341.016551115297	137
5	872	341.117205122158	137
5	875	343.105849895908	137
5	876	343.211424252215	136
5	878	344.829736131169	136
5	879	345.951411464725	136
5	880	346.624782335628	135
5	884	347.275294316381	135
5	885	347.305515694426	135
5	886	347.387753435485	134
5	888	347.62421339366	134
5	890	347.943310494015	135
5	892	348.14303043052	136
5	894	348.331558416902	137
5	896	349.628853409965	138
5	898	349.760727606476	139
5	900	350.84446777739	140
5	904	351.088922500237	141
5	905	351.249163469768	141
5	906	351.328136496316	140
5	907	353.75995261139	139
5	909	354.037201707293	139
5	910	354.678486241108	139
5	912	356.759953133731	139
5	914	357.221116644929	140
5	916	357.485497084417	141
5	917	357.903285187987	141
5	921	359.048375333769	141
5	923	359.071771769113	142
5	925	359.079375304545	143
5	926	359.179051300693	143
5	928	359.890029492381	143
5	931	361.246018535442	143
5	932	361.627965371502	142
5	933	361.689776320857	141
5	935	362.313869780974	141
5	937	362.638208935667	142
5	939	362.73128318032	143
5	940	362.756936948833	143
5	942	363.436350995478	143
5	944	364.7115252235	144
5	946	365.719614823751	145
5	948	367.911447165166	146
5	949	368.017689872241	146
5	951	368.913275735721	146
5	953	369.18968375301	147
5	955	370.54867789431	148
5	956	371.338676510757	148
5	958	372.363368901423	148
5	960	372.61512670047	149
5	962	375.654411246925	150
5	964	377.316641909027	151
5	965	377.437083609788	151
5	966	379.342364239168	150
5	967	379.598568975072	149
5	968	379.742882247098	148
5	970	380.669242842815	148
5	971	380.749058178968	148
5	973	382.468143151379	148
5	974	382.586343821618	148
5	976	382.821415111785	148
5	978	383.885193238668	149
5	979	385.276118507484	149
5	981	386.915249408176	149
5	982	387.631611590679	149
5	984	389.461311723754	149
5	986	391.424910244822	150
5	987	392.158221309315	150
5	989	392.231395208634	150
5	990	392.490346225147	150
5	991	392.540026556022	149
5	993	394.205906858043	149
5	995	394.759597886946	150
5	997	394.918343110529	151
5	999	395.332062964497	152
5	1001	396.466289977858	153
5	1003	396.887366306663	154
5	1004	397.241480401506	154
5	1006	397.243916053827	154
5	1007	399.873634706044	154
5	1008	400.24398554123	153
5	1009	400.687331829891	152
5	1011	400.721176152558	152
5	1013	400.900877750498	153
5	1015	401.93265055705	154
5	1017	402.770647507078	155
5	1019	402.98176409578	156
5	1021	403.313825212944	157
5	1025	403.98297138765	158
5	1027	404.890508297367	159
5	1028	405.044706546059	159
5	1030	405.121482050542	159
5	1032	405.430147649456	160
5	1034	405.834984665787	161
5	1036	406.453838328711	162
5	1037	406.639537074248	162
5	1038	408.277653326949	161
5	1042	409.915022467015	161
5	1044	411.060592701828	162
5	1046	411.260432825855	163
5	1048	411.480315713569	164
5	1050	411.493278062453	165
5	1051	411.848496897573	165
5	1053	413.409350136462	165
5	1055	414.519229133724	166
5	1056	415.290811937282	166
5	1059	418.601734886979	165
5	1060	418.608784937814	164
5	1062	419.313940817427	164
5	1064	420.360589323756	165
5	1065	422.075158189319	165
5	1067	422.492398110862	165
5	1069	423.150701536938	166
5	1071	423.154248429228	167
5	1073	424.823907818836	168
5	1075	425.352234645597	169
5	1077	426.535024238602	170
5	1079	426.538975839624	171
5	1081	426.580954122159	172
5	1083	426.855566278036	173
5	1085	427.769044840039	174
5	1087	428.850664858358	175
5	1089	429.035707511714	176
5	1091	429.205283649712	177
5	1092	429.744661388437	177
5	1093	429.790959600392	176
5	1095	429.83080050196	176
5	1096	429.951143253552	176
5	1097	431.617220844917	175
5	1098	432.401305187064	174
5	1100	434.473750290718	174
5	1102	434.910211359831	175
5	1104	435.483778109208	176
5	1106	435.749988918674	177
5	1107	436.634547212943	177
5	1109	437.004116226675	177
5	1111	437.54464356647	178
5	1113	437.585574797794	179
5	1115	439.545834421268	180
5	1117	440.367542261614	181
5	1118	440.488866580265	181
5	1120	440.941356480178	181
5	1122	441.418342414166	182
5	1123	441.752441642552	182
5	1125	442.044779324381	182
5	1127	442.090832412969	183
5	1128	442.90844491662	183
5	1130	443.47737284209	183
5	1132	445.373779231274	184
5	1134	445.991661262601	185
5	1136	447.30741578953	186
5	1137	447.854220289896	186
5	1139	447.983967222068	186
5	1140	448.544321343374	186
5	1144	449.132726321251	186
5	1146	449.14696560368	187
5	1148	449.538846521993	188
5	1149	450.843487332107	188
5	1151	450.846557198136	188
5	1153	451.858079329431	189
5	1154	452.374380460473	189
5	1155	453.700639869029	188
5	1157	454.242730912993	188
5	1158	455.976501421713	188
5	1160	456.716051586701	188
5	1162	458.547290452908	189
5	1164	459.126752533317	190
5	1165	459.267489135978	190
5	1167	459.559845103214	190
5	1168	459.604618509602	190
5	1169	459.829253220606	189
5	1171	460.319601937205	189
5	1175	461.584132585713	190
5	1177	462.485354194011	191
5	1178	462.543134948588	191
5	1182	464.240824046289	191
5	1183	465.076532359967	191
5	1185	467.511913185416	191
5	1187	471.09046063193	192
5	1189	471.160838994496	193
5	1191	471.225406908109	194
5	1192	471.288298674829	194
5	1194	471.940580910619	194
5	1196	473.4302568388	195
5	1198	473.441528257957	196
5	1199	473.5020426447	196
5	1201	475.518357589392	196
5	1202	475.845993041958	196
5	1204	477.335354500421	196
5	1205	477.343429812691	196
5	1207	478.941535481281	196
5	1209	479.15489269515	197
5	1211	479.453561219717	198
5	1213	479.930064251536	199
5	1214	480.158963499846	199
5	1216	480.58750925045	199
5	1218	481.456186090637	200
5	1220	481.765592742227	201
5	1222	481.889673771985	202
5	1224	483.017820275187	203
5	1225	483.122173427708	203
5	1227	483.554752344643	203
5	1229	483.82570315494	204
5	1231	485.053834995676	205
5	1233	485.064261639721	206
5	1235	486.671076550555	207
5	1239	487.682431060914	208
5	1241	488.726575119269	209
5	1242	489.242857636223	209
5	1244	489.986060615152	209
5	1246	490.961294524676	210
5	1247	491.120566758833	210
5	1249	491.384137115713	210
5	1251	492.617583900995	211
5	1253	492.706350159311	212
5	1255	492.755614802946	213
5	1257	492.954991688992	214
5	1259	492.977106764766	215
5	1261	493.264350623662	216
5	1263	493.311388104511	217
5	1265	494.210079009611	218
5	1267	494.241109093077	219
5	1269	496.28628756071	220
5	1271	497.640887650469	221
5	1272	497.770491700441	221
5	1273	498.369005720271	220
5	1274	498.508166431728	219
5	1275	499.017426870774	218
5	1277	499.100426270751	218
5	1281	499.272704822163	219
5	1283	499.357812297039	220
5	1285	500.446829301148	221
5	1287	500.516531965787	222
5	1289	500.852924111595	223
5	1291	501.202389097404	224
5	1295	501.79559951407	225
5	1297	503.481572808787	226
5	1299	504.375601613639	227
5	1301	504.941762442116	228
5	1302	505.395458479437	228
5	1304	506.35941735165	228
5	1305	507.23536106836	228
5	1307	507.893272695637	228
5	1308	508.399267580244	228
5	1314	510.100245606542	228
5	1315	510.338329233036	228
5	1317	510.98989960661	228
5	1319	512.020261553711	229
5	1320	513.757426187648	229
5	1322	514.009800002775	229
5	1324	514.657247101655	230
5	1326	515.008291817001	231
5	1329	515.895911630141	231
5	1331	516.439645313049	231
5	1332	516.67445805862	231
5	1333	516.984835913836	230
5	1335	518.080895166326	230
5	1337	518.089040925841	231
5	1339	518.774270545521	232
5	1341	519.596950137066	233
5	1343	521.497731430772	234
5	1345	522.826730408095	235
5	1347	523.895013397646	236
5	1349	524.705690094361	237
5	1351	524.873404274273	238
5	1353	525.168932472508	239
5	1354	526.151936444587	239
5	1356	526.748973446977	239
5	1358	527.323624243838	240
5	1360	527.33410985653	241
5	1362	528.345597541277	242
5	1364	529.398664189597	243
5	1366	529.650751742836	244
5	1368	529.726553776085	245
5	1370	530.820318074402	246
5	1371	530.865947137864	246
5	1373	533.214670239557	246
5	1374	533.775957546083	246
5	1376	534.142603077362	246
5	1378	535.432890494072	247
5	1380	535.447658629666	248
5	1381	535.756404522174	248
5	1383	535.827510790602	248
5	1385	536.244026662134	249
5	1387	537.070659166247	250
5	1389	537.564772949681	251
5	1391	537.575150009713	252
5	1393	538.435312562553	253
5	1395	538.871754221365	254
5	1397	539.159489360743	255
5	1398	539.62630786878	255
5	1400	539.6606512556	255
5	1402	541.648590829428	256
5	1406	542.977382241851	257
5	1408	543.244060689326	258
5	1412	544.463200803689	259
5	1414	544.637464437163	260
5	1416	544.819643952114	261
5	1418	545.077148943624	262
5	1422	545.972068101607	263
5	1423	547.10792814044	263
5	1424	548.747881731742	262
5	1426	548.998201308783	262
5	1430	549.217597491708	263
5	1431	550.681143720984	263
5	1432	553.379432017233	262
5	1434	554.615366335086	262
5	1436	555.354856776689	263
5	1438	556.581497495866	264
5	1439	556.903934918978	264
5	1441	557.319898091662	264
5	1442	559.114359777925	264
5	1443	559.238866345928	263
5	1445	559.295213016768	263
5	1447	559.628117154571	264
5	1448	560.293047933865	264
5	1450	562.027486808772	264
5	1452	562.895131351194	265
5	1453	563.740334500382	265
5	1455	565.488582096501	265
5	1459	565.841750529479	266
5	1460	566.723125354377	266
5	1462	567.275098923874	266
5	1466	568.202778631646	267
5	1467	569.46088240463	267
5	1468	570.066911257947	266
5	1470	570.25096018649	266
5	1471	570.710779664241	266
5	1473	570.803714113673	266
5	1475	571.568950765645	267
5	1477	574.107343858007	268
5	1478	574.172082549494	268
5	1479	574.451681244013	267
5	1481	574.910280631651	267
5	1483	575.771600956322	268
5	1485	576.100623304106	269
5	1487	576.280054944843	270
5	1489	576.807206166895	271
5	1491	578.202518681145	272
5	1495	578.624189985238	273
5	1497	579.55307187415	274
5	1498	579.803733533563	274
5	1500	580.199152611325	274
5	1502	580.261395809752	275
5	1504	580.374585946843	276
5	1506	580.597478905938	277
5	1508	580.804418968524	278
5	1509	581.292142200453	278
5	1510	581.557680862212	277
5	1512	581.713381627598	277
5	1514	582.026298783329	278
5	1516	583.283790295458	279
5	1518	583.591992336413	280
5	1520	583.760216098332	281
5	1522	583.82440486272	282
5	1523	584.413304690666	282
5	1525	584.975760050618	282
5	1527	585.22674479909	283
5	1529	585.354537954011	284
5	1530	585.52341202257	284
5	1531	586.754708856851	283
5	1533	586.858467251314	283
5	1535	586.910504931828	284
5	1539	591.430162951779	285
5	1541	591.985051256926	286
5	1542	592.76424418465	286
5	1546	594.680303573318	286
5	1548	595.036346440899	287
5	1550	595.523755608944	288
5	1552	595.619925793001	289
5	1554	596.11279487947	290
5	1556	596.191557907204	291
5	1557	596.822210620685	291
5	1558	597.101701653977	290
5	1560	597.170749570266	290
5	1561	597.420932873923	290
5	1563	597.957769541389	290
5	1564	598.074758588773	290
5	1568	598.342948118386	290
5	1569	599.320688045232	290
5	1570	599.67788008208	289
5	1574	602.539313753954	289
5	1576	602.882783005527	290
5	1577	603.354979997991	290
5	1578	603.94068200855	289
5	1580	604.224721254021	289
5	1582	605.367456339905	290
5	1586	606.547943140707	291
5	1587	606.816878689841	291
5	1589	607.020477803302	291
5	1593	609.19268651017	292
5	1597	609.558015304263	293
5	1598	611.741744901343	293
5	1599	613.217556774248	292
5	1600	613.924267837567	291
5	1602	614.198457028804	291
5	1604	614.627766025308	292
5	1608	615.912828843971	293
5	1610	616.899133288539	294
5	1611	617.36386585933	294
5	1613	617.533439859366	294
5	1614	617.937046013854	294
5	1616	618.52534090539	294
5	1618	618.801035694783	295
5	1619	620.059414139095	295
5	1620	621.538239564071	294
5	1623	626.122195506179	293
5	1625	626.133256502445	293
5	1627	626.139947450054	294
5	1628	626.837031106041	294
5	1629	628.237743397323	293
5	1630	628.281285887082	292
5	1632	629.305689917102	292
5	1635	630.623314586176	292
5	1637	630.9241916344	292
5	1638	631.795103431978	292
5	1642	632.375213032128	292
5	1643	633.823340728007	292
5	1644	634.38324083877	291
5	1646	634.43062254212	291
5	1648	634.624837381007	292
5	1650	635.202022022712	293
5	1652	635.568936697132	294
5	1654	635.576352721385	295
5	1656	635.831632614044	296
5	1658	636.145844697828	297
5	1660	636.638838394909	298
5	1662	637.564510960199	299
5	1664	637.763927331042	300
5	1666	637.940928108305	301
5	1668	639.16710409528	302
5	1670	639.195349626631	303
5	1672	639.503801835165	304
5	1674	639.782432558467	305
5	1675	640.049442663306	305
5	1677	640.303838748481	305
5	1680	641.793995758933	305
5	1681	641.797038180672	304
5	1683	642.571812752241	304
5	1684	642.661177623768	304
5	1686	643.223640389074	304
5	1687	643.776692546737	304
5	1689	644.228952342088	304
5	1690	644.360283208897	304
5	1692	644.592281547572	304
5	1693	645.119728757047	304
5	1694	646.031696414532	303
5	1696	646.41711084328	303
5	1698	646.826213314982	304
5	1700	650.065823584846	305
5	1702	650.238373102144	306
5	1703	650.561365495092	306
5	1704	651.942770369613	305
5	1706	652.02504474407	305
5	1707	652.459261116612	305
5	1709	652.55327467916	305
5	1711	652.800061438914	306
5	1712	652.869230955654	306
5	1714	653.68422352914	306
5	1715	653.788975465313	306
5	1717	653.952878545149	306
5	1718	654.307008499083	306
5	1720	654.858733945356	306
5	1721	654.907541833603	306
5	1722	655.546322541335	305
5	1723	655.582945624876	304
5	1725	656.010535990854	304
5	1727	656.229679669315	305
5	1728	656.330893041106	305
5	1730	656.704785565948	305
5	1734	657.02898415041	306
5	1736	657.079106235041	307
5	1738	657.519220871677	308
5	1740	657.840820730687	309
5	1742	658.01069103211	310
5	1745	660.157125525978	310
5	1747	660.398335380003	310
5	1749	660.791995516555	311
5	1751	661.215672096756	312
5	1752	661.578644356559	312
5	1754	661.885531944004	312
5	1756	662.125149164847	313
5	1758	662.632392602369	314
5	1759	663.079890863254	314
5	1760	663.272489619463	313
5	1762	663.65500829485	313
5	1764	664.091805934759	314
5	1766	664.20659360629	315
5	1768	664.404837029182	316
5	1772	665.834479544204	317
5	1774	665.906422671081	318
5	1776	666.02994168336	319
5	1778	666.666603733394	320
5	1779	666.681887268481	320
5	1781	666.817540632867	320
5	1782	666.99547428584	320
5	1784	667.144380401261	320
5	1786	667.594011993377	321
5	1788	667.881854683753	322
5	1790	668.759165835028	323
5	1791	669.155700973566	323
5	1792	669.756056935145	322
5	1793	670.518338255804	321
5	1794	670.913541386384	320
5	1796	671.087665245363	320
5	1797	671.230255449237	320
5	1799	672.572092756315	320
5	1801	672.903109986795	321
5	1803	672.934656999967	322
5	1805	674.933620529984	323
5	1807	675.026075458002	324
5	1809	676.477858790491	325
5	1811	677.690596223142	326
5	1815	678.235957654399	327
5	1819	679.822138698987	328
5	1820	680.001062743852	328
5	1821	680.037246566079	327
5	1823	680.335921501353	327
5	1825	680.63300868099	328
5	1827	681.648587287356	329
5	1828	681.712864880606	329
5	1830	683.058744621554	329
5	1833	686.253461214924	329
5	1834	686.857569955428	328
5	1836	688.348245463214	328
5	1837	688.910539342981	328
5	1839	689.295192621682	328
5	1841	690.013265861796	329
5	1843	690.587182891548	330
5	1844	690.833150065275	330
5	1845	692.018137561214	329
5	1847	692.923469190137	329
5	1849	693.341021666443	330
5	1851	694.235686271065	331
5	1853	694.352803602268	332
5	1854	695.674652824962	332
5	1856	695.712400331697	332
5	1858	696.519006183476	333
5	1861	697.333241648963	333
5	1863	699.458453496094	333
5	1865	700.910324574351	334
5	1867	701.261993454995	335
5	1869	701.346960647632	336
5	1870	701.363250727976	336
5	1872	702.976144483183	336
5	1873	703.679614908366	336
5	1875	705.107690678127	336
5	1877	705.341466570889	337
5	1879	706.570408804339	338
5	1881	709.027052075728	339
5	1882	710.851400866038	339
5	1883	710.879714719704	338
5	1885	711.012891301987	338
5	1886	711.040812233296	338
5	1887	711.188837337794	337
5	1888	712.636353230081	336
5	1890	713.208240746893	336
5	1892	713.217396036999	337
5	1894	713.773880245599	338
5	1896	714.898161572141	339
5	1898	715.090893708571	340
5	1900	715.23673696653	341
5	1901	715.42813184135	341
5	1902	715.530048731243	340
5	1904	716.432455015982	340
5	1906	716.999642893434	341
5	1908	717.462049939748	342
5	1910	718.148734862967	343
5	1912	718.748151647147	344
5	1913	718.754772214832	344
5	1915	719.715468972971	344
5	1917	719.790095504671	345
5	1919	720.259326010434	346
5	1921	721.157127342116	347
5	1923	721.163425774859	348
5	1925	721.512037473915	349
5	1928	723.587221548991	349
5	1930	723.72821138858	349
5	1932	725.176265044604	350
5	1934	725.705175796531	351
5	1935	726.13033344362	351
5	1937	726.381899471408	351
5	1938	728.280741736648	351
5	1940	729.254745161084	351
5	1943	730.508828708036	351
5	1944	730.745433173012	350
5	1946	731.647267367059	350
5	1948	731.724245950843	351
5	1950	732.66514460714	352
5	1952	733.147423494432	353
5	1954	733.912224509459	354
5	1956	733.976337603793	355
5	1958	734.856644664149	356
5	1959	735.286478052704	356
5	1961	736.465801055513	356
5	1963	736.656672845725	357
5	1965	736.889179961224	358
5	1967	737.136145583391	359
5	1968	738.051261172672	359
5	1970	739.311272414723	359
5	1972	739.912105672712	360
5	1974	740.145960383514	361
5	1976	740.980508987049	362
5	1978	742.012807634099	363
5	1980	742.739132409252	364
5	1982	742.816793967083	365
5	1983	743.131441967783	365
5	1985	744.108511460697	365
5	1987	744.408533764149	366
5	1989	744.529353510321	367
5	1990	744.679657670082	367
5	1992	744.768321292222	367
5	1994	744.963004573722	368
5	1996	745.467732274537	369
5	1998	745.938736830134	370
5	2000	746.081380759168	371
5	2002	746.699167475207	372
5	2004	747.348332591797	373
5	2005	747.527924179661	373
5	2006	747.559751383717	372
5	2007	749.203750704514	371
5	2008	749.353163255819	370
5	2010	749.51658594834	370
5	2012	749.803328525258	371
5	2014	749.943943568251	372
5	2016	751.939635117303	373
5	2017	752.058544481649	373
5	2019	752.453677458879	373
5	2020	754.121692497329	373
5	2022	754.885340688225	373
5	2025	755.814885362475	373
5	2026	758.160252644963	372
5	2027	758.211205779541	371
5	2031	759.003081203149	371
5	2032	759.536867573794	371
5	2034	759.866358119296	371
5	2035	760.692740813169	371
5	2037	761.538442655641	371
5	2039	761.749177941111	372
5	2041	764.021584824068	373
5	2042	765.685936633725	373
5	2044	766.288599954402	373
5	2045	766.924975219573	373
5	2047	766.985486403248	373
5	2049	767.139655843891	374
5	2051	767.319261283372	375
5	2053	767.498182959684	376
5	2055	767.832611953625	377
5	2059	769.556469233313	378
5	2060	769.560418261807	378
5	2062	770.417033122609	378
5	2063	770.731979691773	378
5	2065	770.768515430956	378
5	2066	771.24137808598	378
5	2067	771.713179838553	377
5	2069	771.779371396806	377
5	2071	771.781060052791	378
5	2072	772.853788594563	378
5	2073	773.296957426202	377
5	2075	773.989177237384	377
5	2077	774.077845646979	378
5	2080	774.6624473213	378
5	2082	775.007237910464	378
5	2084	775.210551570424	379
5	2086	776.621649554727	380
5	2088	778.407085209224	381
5	2090	778.644692601386	382
5	2092	779.25203490822	383
5	2094	780.525265121183	384
5	2096	782.531885659541	385
5	2097	782.808693794898	385
5	2101	785.587410375081	385
5	2103	787.109316441175	386
5	2105	787.885554036439	387
5	2107	789.886526070315	388
5	2109	790.378576503159	389
5	2111	791.203628825928	390
5	2113	791.640107085875	391
5	2114	791.755768643298	391
5	2116	792.43120852527	391
5	2118	792.694202492682	392
5	2120	794.757506867142	393
5	2122	794.910266836881	394
5	2124	794.973701632606	395
5	2126	795.020267884132	396
5	2128	795.199362080556	397
5	2130	795.379204678522	398
5	2132	795.417498021466	399
5	2133	795.662194809137	399
5	2134	795.83285928455	398
5	2136	795.84235616966	398
5	2140	796.302855388294	399
5	2142	796.314892438376	400
5	2143	796.462049217517	400
5	2145	796.566578941528	400
5	2149	796.698975301712	401
5	2151	797.559348512839	402
5	2152	797.862167823258	402
5	2153	797.862829438066	401
5	2154	798.122126594225	400
5	2156	798.245626805277	400
5	2160	800.686448898279	401
5	2162	801.514655156372	402
5	2164	802.189709740129	403
5	2165	802.453054879439	403
5	2166	802.800160072555	402
5	2168	803.663787121958	402
5	2170	804.20391087233	403
5	2171	805.048218101741	403
5	2173	805.730626739078	403
5	2174	805.744905355262	403
5	2176	806.229389216767	403
5	2178	807.926055659074	404
5	2180	809.419449485712	405
5	2182	809.572551071058	406
5	2183	810.016477241383	406
5	2185	812.742583472788	406
5	2187	813.565651452441	407
5	2188	814.975018743656	407
5	2192	816.185224769859	407
5	2193	817.234148649498	407
5	2195	818.062615816174	407
5	2196	818.116226484216	407
5	2197	818.806066059434	406
5	2198	818.932935098164	405
5	2199	819.846995939228	404
5	2201	819.905010879269	404
5	2202	819.968025713604	404
5	2204	821.15141873417	404
5	2205	821.989958179903	404
5	2206	822.330312149021	403
5	2208	822.45347656991	403
5	2209	823.995498458726	403
5	2211	824.344119878088	403
5	2212	824.445277736717	403
5	2213	824.800652856393	402
5	2215	825.215578602458	402
5	2217	825.340198954366	403
5	2219	826.02560539377	404
5	2221	826.250389426925	405
5	2222	826.453802918209	405
5	2224	826.632614318504	405
5	2226	827.372546990528	406
5	2228	827.985121966492	407
5	2230	828.493773347911	408
5	2232	829.193560014621	409
5	2234	829.303254229978	410
5	2236	829.324435084009	411
5	2238	830.204437186541	412
5	2239	833.025442178513	412
5	2240	833.689959392282	411
5	2242	833.973428633212	411
5	2243	834.054166466081	411
5	2245	835.027345741986	411
5	2247	835.876533508055	412
5	2249	836.486049092872	413
5	2250	837.870033809398	413
5	2252	839.049546002844	413
5	2254	839.443986482009	414
5	2255	839.604352988506	414
5	2257	840.031022641939	414
5	2259	840.518610153235	415
5	2260	840.651536475478	415
5	2262	840.935736773482	415
5	2264	841.268909948086	416
5	2266	841.540240003522	417
5	2268	841.697527546537	418
5	2269	841.711404354537	418
5	2270	842.132673819936	417
5	2271	842.231097321694	416
5	2273	843.23781227424	416
5	2274	843.251603126525	416
5	2276	844.591191490328	416
5	2278	844.591557425485	417
5	2280	846.553796801744	418
5	2281	848.359337054189	418
5	2282	851.032815845689	417
5	2284	851.88475237305	417
5	2286	852.091507219374	418
5	2288	852.713112692135	419
5	2289	852.804257955513	419
5	2291	853.057723028429	419
5	2293	854.893045456603	420
5	2295	856.435442649594	421
5	2297	856.661503536894	422
5	2298	856.999007365173	422
5	2299	857.119416708129	421
5	2300	858.038441478621	420
5	2302	858.059680972225	420
5	2304	858.52331938835	421
5	2306	859.130196200251	422
5	2308	859.309635892564	423
5	2310	859.862733148242	424
5	2311	860.014577609816	424
5	2313	860.388445951102	424
5	2315	860.622227349471	425
5	2317	860.778842897345	426
5	2319	863.18149538376	427
5	2321	865.284022305523	428
5	2323	865.389390405383	429
5	2325	865.462866751307	430
5	2327	865.503369662849	431
5	2329	865.851736804631	432
5	2331	865.889662412529	433
5	2333	866.308785025508	434
5	2335	866.412419336028	435
5	2337	866.755363886317	436
5	2339	867.007012705792	437
5	2341	867.363996819513	438
5	2342	867.559760695591	438
5	2343	867.685838384537	437
5	2345	867.938369950993	437
5	2347	868.134456570379	438
5	2349	869.621617754984	439
5	2351	871.244071259804	440
5	2353	871.859716428554	441
5	2355	872.451169482936	442
5	2356	873.55966831546	442
5	2357	874.040618603022	441
5	2359	874.844088389573	441
5	2360	875.014822160316	441
5	2362	875.453782447193	441
5	2363	876.388640397548	441
5	2365	876.768132639816	441
5	2366	877.929604742935	441
5	2368	877.961680397999	441
5	2370	878.14151987308	442
5	2371	879.274352905455	442
5	2372	882.189009182809	441
5	2374	882.876148299334	441
5	2376	883.874773728793	442
5	2378	884.198571254737	443
5	2380	884.525673923483	444
5	2382	886.089274026555	445
5	2384	886.622908116018	446
5	2386	887.264462526084	447
5	2388	888.245472439087	448
5	2394	890.521159078926	449
5	2395	891.26835430387	449
5	2397	891.391737649257	449
5	2398	893.210348666911	449
5	2400	894.399771078529	449
5	2401	894.837573821086	449
5	2403	895.44998871521	449
5	2405	898.320501204266	450
5	2407	898.339576130271	451
5	2409	898.359087913596	452
5	2410	898.386737476223	452
5	2412	898.448634699776	452
5	2414	898.670231181043	453
5	2416	899.40141053439	454
5	2417	899.707007134462	454
5	2420	900.157361292078	453
5	2422	901.598691409199	453
5	2423	903.390176689608	453
5	2427	904.976849671806	453
5	2429	905.068921413895	454
5	2430	905.420167867463	454
5	2432	906.111091337786	454
5	2434	907.729806381233	455
5	2436	907.777169928827	456
5	2437	909.541039021041	456
5	2439	910.173978772085	456
5	2440	910.548377222365	456
5	2441	910.986264858072	455
5	2443	911.172467603922	455
5	2445	911.267772913387	456
5	2447	913.696336468188	457
5	2449	913.944746424243	458
5	2451	916.31751007868	459
5	2453	916.608391441241	460
5	2455	917.014999220424	461
5	2457	917.608929587659	462
5	2459	919.085494595622	463
5	2461	919.448321671678	464
5	2462	920.572106296434	464
5	2463	920.642550218176	463
5	2465	921.379284406454	463
5	2466	921.653747928148	463
5	2468	923.08832277376	463
5	2469	924.112699060668	463
5	2471	924.589712914712	463
5	2473	924.662787970353	464
5	2474	925.00334912435	464
5	2476	925.539824136931	464
5	2478	925.904929139278	465
5	2481	927.367777285369	465
5	2483	927.586990010203	465
5	2485	928.273459662031	466
5	2486	929.253092737592	466
5	2488	929.258714976353	466
5	2490	929.383346707287	467
5	2491	930.675336831998	467
5	2493	932.49528540015	467
5	2494	933.86779978417	467
5	2495	933.89528599951	466
5	2497	934.509260852332	466
5	2498	936.745743138642	466
5	2502	937.057776009468	466
5	2505	938.343263821049	466
5	2507	938.441165075339	466
5	2509	938.592926878779	467
5	2510	938.730215528669	467
5	2514	940.842579666549	467
5	2515	942.498496382938	467
5	2517	944.493944044546	467
5	2518	944.669817549298	467
5	2520	945.334876869045	467
5	2522	945.40149604768	468
5	2524	945.510148815856	469
5	2526	946.157026266307	470
5	2527	946.166533505028	470
5	2529	946.257000569522	470
5	2531	946.44317451217	471
5	2533	947.218267540614	472
5	2534	947.892085506805	472
5	2536	948.095636777557	472
5	2538	950.745802823326	473
5	2540	953.611635203924	474
5	2542	955.583064507048	475
5	2544	956.2707001977	476
5	2546	956.775847854431	477
5	2547	956.932877681357	477
5	2549	957.715197220789	477
5	2550	958.315438756428	477
5	2551	958.344474671107	476
5	2552	958.370668102744	475
5	2554	958.445198152329	475
5	2555	959.083643155241	475
5	2557	960.112992041624	475
5	2559	961.35057683343	476
5	2560	962.582580541686	476
5	2562	964.389403592266	476
5	2564	965.063403672669	477
5	2566	965.186957104665	478
5	2568	966.338928468114	479
5	2570	966.54550909837	480
5	2572	966.674860734291	481
5	2573	966.872390657436	481
5	2575	967.226488829553	481
5	2577	967.617514621645	482
5	2579	972.560566386634	483
5	2581	972.649532122863	484
5	2583	973.478349991231	485
5	2585	974.44945551316	486
5	2587	974.496455185464	487
5	2588	974.558155939472	487
5	2590	975.072434457328	487
5	2592	976.290410166624	488
5	2594	977.376439667108	489
5	2596	977.869194814041	490
5	2598	978.22966974412	491
5	2600	979.454529115176	492
5	2602	980.62641070096	493
5	2603	981.17558426542	493
5	2605	981.23275108654	493
5	2607	981.495188918208	494
5	2609	982.233915490724	495
5	2611	982.518191203869	496
5	2613	982.820980677573	497
5	2615	983.189515653555	498
5	2617	983.490674197515	499
5	2619	983.549679386413	500
5	2621	983.661403833772	501
5	2622	985.149436446339	501
5	2624	986.708149272458	501
5	2626	986.981657115915	502
5	2628	987.673262423964	503
5	2630	987.787059644283	504
5	2631	988.635609789596	504
5	2633	988.976955854345	504
5	2634	989.636984362675	504
5	2635	989.994224567138	503
5	2636	990.038035089076	502
5	2637	990.45960551206	501
5	2639	991.573540933976	501
5	2641	991.746480886426	502
5	2643	991.946170234102	503
5	2644	992.641485179497	503
5	2646	993.057152227187	503
5	2648	993.244967698589	504
5	2650	993.422541231292	505
5	2652	995.497027166716	506
5	2654	995.903271095363	507
5	2655	996.588993977454	507
5	2657	997.098875425628	507
5	2659	997.208285675702	508
5	2660	997.894531876008	508
5	2662	998.8662198382	508
5	2664	999.501250379359	509
6	0	0	0
6	5	1.602981274285	1
6	8	2.300628970653	2
6	16	4.843055636786	3
6	31	10.412414799633	4
6	32	10.475047076812	5
6	33	12.702337926914	6
6	42	15.052825656899	7
6	45	18.012850904047	8
6	60	23.568007843527	9
6	61	23.985694011644	10
6	74	29.660285372484	11
6	75	30.883131233591	12
6	78	31.858922390316	13
6	79	31.859316757692	14
6	80	32.013653214965	15
6	81	32.345983541373	16
6	84	33.675473553552	17
6	95	35.480851758787	18
6	102	37.168883553667	19
6	115	39.668399648969	20
6	120	41.550804385709	21
6	129	44.974408564483	22
6	134	47.346164431414	23
6	141	49.699555767603	24
6	142	49.746419432444	25
6	143	49.871394312433	26
6	162	57.322184228403	27
6	167	62.845372063842	28
6	168	62.860223810169	29
6	169	63.103005608845	30
6	170	64.464618124209	31
6	175	65.588448740104	32
6	176	65.93489986776	33
6	181	66.876576032698	34
6	182	69.755999618486	35
6	185	71.594782178017	36
6	188	72.266074790269	37
6	191	73.63682670533	38
6	192	74.034275895262	39
6	203	79.833407743624	40
6	204	80.243992735033	41
6	209	82.278368426961	42
6	210	82.324417321447	43
6	211	82.381524045841	44
6	214	82.834229107669	45
6	215	83.411934932225	46
6	216	84.232094196784	47
6	217	84.510047267921	48
6	220	85.817111635382	49
6	235	91.201975231297	50
6	244	97.857412628242	51
6	245	98.456376398486	52
6	254	103.361908971764	53
6	257	103.96698461068	54
6	260	104.673817093639	55
6	269	108.109031752927	56
6	270	108.169645895851	57
6	277	110.431206346427	58
6	278	110.44347042101	59
6	279	110.998953064168	60
6	280	111.029483449897	61
6	287	112.051856632664	62
6	288	112.210163653193	63
6	289	114.215549327899	64
6	290	114.705706199883	65
6	305	119.017678597532	66
6	306	120.166542490505	67
6	315	124.264236263589	68
6	326	126.431322455706	69
6	335	132.877496907711	70
6	338	134.219316840514	71
6	339	134.574510401435	72
6	342	135.191853953085	73
6	359	140.279818501258	74
6	360	140.342741760211	75
6	361	141.630223717398	76
6	364	141.909263390306	77
6	373	147.73098008998	78
6	376	148.701366881632	79
6	391	155.031104721385	80
6	398	157.371243449969	81
6	405	160.035729594487	82
6	406	160.201998139971	83
6	409	160.450699128836	84
6	412	161.837342474863	85
6	417	162.989551049807	86
6	424	167.249355694399	87
6	429	168.024675201017	88
6	430	169.113586452372	89
6	449	173.630659611814	90
6	452	175.065940534442	91
6	455	176.698265371579	92
6	458	176.848499988352	93
6	459	177.163060962762	94
6	460	178.219613733951	95
6	463	180.255574013408	96
6	470	186.369383781995	97
6	487	193.890268720832	98
6	488	195.294224791043	99
6	491	196.299067327176	100
6	494	198.615446748611	101
6	503	200.787979695701	102
6	506	202.832912495665	103
6	511	205.387520266176	104
6	512	205.878048665517	105
6	515	207.466290607709	106
6	518	208.717989797751	107
6	539	214.65811477828	108
6	540	214.690021772251	109
6	543	215.275124438955	110
6	562	219.658443731831	111
6	563	220.440291587659	112
6	570	221.809039052689	113
6	571	222.361133581941	114
6	584	226.477833613164	115
6	585	226.93992423435	116
6	590	228.437809607958	117
6	599	231.736613969965	118
6	602	232.310297448703	119
6	615	235.736886272961	120
6	616	235.953872337565	121
6	617	235.956266909081	122
6	626	237.135321248545	123
6	637	242.47913385963	124
6	644	244.931946673404	125
6	655	252.284447724208	126
6	678	261.556208805341	127
6	685	266.449649924118	128
6	688	267.678102060112	129
6	691	268.784868253374	130
6	696	269.475707283	131
6	703	272.00843556263	132
6	704	272.29212077509	133
6	707	273.134839878749	134
6	708	274.996030415212	135
6	709	275.389015096118	136
6	710	275.462251987811	137
6	711	275.971136648214	138
6	714	277.808458636461	139
6	717	279.476346297784	140
6	718	280.505595503735	141
6	729	282.552308448101	142
6	730	282.613367118505	143
6	741	287.993216915634	144
6	742	289.737646497528	145
6	747	291.722090222812	146
6	748	294.782223632922	147
6	749	295.172119876051	148
6	756	301.024421159638	149
6	757	302.052650349658	150
6	760	302.246103271418	151
6	761	303.404098790964	152
6	764	303.75113216476	153
6	765	303.980781892862	154
6	766	303.982108960606	155
6	767	304.477128278243	156
6	768	304.554857099514	157
6	769	305.047556248859	158
6	772	305.768270182201	159
6	777	308.138811004598	160
6	778	308.627774233298	161
6	793	315.542576540521	162
6	800	317.376559533135	163
6	801	317.580416927666	164
6	806	320.562546842013	165
6	811	323.312573775809	166
6	818	324.64275553415	167
6	819	325.396272354956	168
6	822	327.056836536703	169
6	835	328.643498333151	170
6	838	329.332164539942	171
6	843	330.763588420304	172
6	860	338.814436210415	173
6	869	340.685966003689	174
6	870	341.016551115297	175
6	875	343.105849895908	176
6	876	343.211424252215	177
6	879	345.951411464725	178
6	880	346.624782335628	179
6	885	347.305515694426	180
6	886	347.387753435485	181
6	905	351.249163469768	182
6	906	351.328136496316	183
6	907	353.75995261139	184
6	910	354.678486241108	185
6	917	357.903285187987	186
6	926	359.179051300693	187
6	931	361.246018535442	188
6	932	361.627965371502	189
6	933	361.689776320857	190
6	940	362.756936948833	191
6	949	368.017689872241	192
6	956	371.338676510757	193
6	965	377.437083609788	194
6	966	379.342364239168	195
6	967	379.598568975072	196
6	968	379.742882247098	197
6	971	380.749058178968	198
6	974	382.586343821618	199
6	979	385.276118507484	200
6	982	387.631611590679	201
6	987	392.158221309315	202
6	990	392.490346225147	203
6	991	392.540026556022	204
6	1004	397.241480401506	205
6	1007	399.873634706044	206
6	1008	400.24398554123	207
6	1009	400.687331829891	208
6	1028	405.044706546059	209
6	1037	406.639537074248	210
6	1038	408.277653326949	211
6	1051	411.848496897573	212
6	1056	415.290811937282	213
6	1059	418.601734886979	214
6	1060	418.608784937814	215
6	1065	422.075158189319	216
6	1092	429.744661388437	217
6	1093	429.790959600392	218
6	1096	429.951143253552	219
6	1097	431.617220844917	220
6	1098	432.401305187064	221
6	1107	436.634547212943	222
6	1118	440.488866580265	223
[...]
7	2510	938.730215528669	445.41882742416
7	2515	942.498496382938	448.28841737333
7	2518	944.669817549298	450.42870845622
7	2527	946.166533505028	449.88024594432
7	2534	947.892085506805	450.25119785634
7	2547	956.932877681357	457.83245141061
7	2550	958.315438756428	459.04273393427
7	2551	958.344474671107	458.98666237407
7	2552	958.370668102744	457.9238388016
7	2555	959.083643155241	458.56711118945
7	2560	962.582580541686	461.72965643009
7	2573	966.872390657436	465.67000156003
7	2588	974.558155939472	472.7625564254
7	2603	981.17558426542	477.69401145663
7	2622	985.149436446339	480.7738348327
7	2631	988.635609789596	483.69384734748
7	2634	989.636984362675	483.27756701102
7	2635	989.994224567138	482.1009518715
7	2636	990.038035089076	479.93778948253
7	2637	990.45960551206	479.46970590545
7	2644	992.641485179497	480.62122362579
7	2655	996.588993977454	482.57919397468
7	2660	997.894531876008	483.23728477435
8	5	1.602981274285	0.91360809051
8	8	2.300628970653	0.42697039117
8	16	4.843055636786	2.00468531301
8	31	10.412414799633	6.315072779342
8	32	10.475047076812	6.021286353379
8	33	12.702337926914	7.165045044528
8	42	15.052825656899	9.213477452528
8	45	18.012850904047	11.376200577098
8	60	23.568007843527	16.525110178726
8	61	23.985694011644	16.145845937869
8	74	29.660285372484	19.493961988
8	75	30.883131233591	17.527926262885
8	78	31.858922390316	18.052995775751
8	79	31.859316757692	17.956372656835
8	80	32.013653214965	18.104345062072
8	81	32.345983541373	16.542781514937
8	84	33.675473553552	14.975551158094
8	95	35.480851758787	16.27965507764
8	102	37.168883553667	16.536591750408
8	115	39.668399648969	18.571600026825
8	120	41.550804385709	19.530199225071
8	129	44.974408564483	22.22428431482
8	134	47.346164431414	24.274865678884
8	141	49.699555767603	25.667025872092
8	142	49.746419432444	21.210918799038
8	143	49.871394312433	21.216217318667
8	162	57.322184228403	28.11236687707
8	167	62.845372063842	31.384772515156
8	168	62.860223810169	30.045477445041
8	169	63.103005608845	29.228680382328
8	170	64.464618124209	30.265590531053
8	175	65.588448740104	31.252515100297
8	176	65.93489986776	30.5272673937
8	181	66.876576032698	30.405958534583
8	182	69.755999618486	33.135432573615
8	185	71.594782178017	34.14006231077
8	188	72.266074790269	33.604544146212
8	191	73.63682670533	34.763994833183
8	192	74.034275895262	34.725671366434
8	203	79.833407743624	40.421651656557
8	204	80.243992735033	39.571572554643
8	209	82.278368426961	41.341802511988
8	210	82.324417321447	40.312894755286
8	211	82.381524045841	39.372908426029
8	214	82.834229107669	39.040198346435
8	215	83.411934932225	39.003427795914
8	216	84.232094196784	39.133628585334
8	217	84.510047267921	37.982281500571
8	220	85.817111635382	37.351645395991
8	235	91.201975231297	42.624178032129
8	244	97.857412628242	49.233281433519
8	245	98.456376398486	48.327565118607
8	254	103.361908971764	51.656424034318
8	257	103.96698461068	50.548199914034
8	260	104.673817093639	50.620293243542
8	269	108.109031752927	53.656562010003
8	270	108.169645895851	53.425605355346
8	277	110.431206346427	55.678924457758
8	278	110.44347042101	54.717286628273
8	279	110.998953064168	54.660500216072
8	280	111.029483449897	52.648658219512
8	287	112.051856632664	51.704686198104
8	288	112.210163653193	46.83513614571
8	289	114.215549327899	48.637377438208
8	290	114.705706199883	48.212843233311
8	305	119.017678597532	47.684278641395
8	306	120.166542490505	48.43690693796
8	315	124.264236263589	51.89366003419
8	326	126.431322455706	52.324474526828
8	335	132.877496907711	58.03402249629
8	338	134.219316840514	58.599917346543
8	339	134.574510401435	54.932063405086
8	342	135.191853953085	54.566416266993
8	359	140.279818501258	59.155938319771
8	360	140.342741760211	57.90014539946
8	361	141.630223717398	55.890047967291
8	364	141.909263390306	56.055541832319
8	373	147.73098008998	61.570029899624
8	376	148.701366881632	62.498691273049
8	391	155.031104721385	66.230633921481
8	398	157.371243449969	67.492783098441
8	405	160.035729594487	69.873420749293
8	406	160.201998139971	68.062815181864
8	409	160.450699128836	65.183229621953
8	412	161.837342474863	64.410439029735
8	417	162.989551049807	64.03132280653
8	424	167.249355694399	66.732378192164
8	429	168.024675201017	65.990363633185
8	430	169.113586452372	65.734849478105
8	449	173.630659611814	69.055410553329
8	452	175.065940534442	69.956112570687
8	455	176.698265371579	70.041531955096
8	458	176.848499988352	69.306032680092
8	459	177.163060962762	68.534985201262
8	460	178.219613733951	69.234994763662
8	463	180.255574013408	69.904048058223
8	470	186.369383781995	75.10277840318
8	487	193.890268720832	81.930048881338
8	488	195.294224791043	80.433432707676
8	491	196.299067327176	81.403706067395
8	494	198.615446748611	83.340950162207
8	503	200.787979695701	85.442072976754
8	506	202.832912495665	86.566498131547
8	511	205.387520266176	89.091861055873
8	512	205.878048665517	87.241977610699
8	515	207.466290607709	87.284991437853
8	518	208.717989797751	87.33723857184
8	539	214.65811477828	91.260666036855
8	540	214.690021772251	90.709997244394
8	543	215.275124438955	90.48085737115
8	562	219.658443731831	94.516658253984
8	563	220.440291587659	95.148514642992
8	570	221.809039052689	96.321055385165
8	571	222.361133581941	96.381062787991
8	584	226.477833613164	98.171389862219
8	585	226.93992423435	98.439657252026
8	590	228.437809607958	95.95765802899
8	599	231.736613969965	98.836808381037
8	602	232.310297448703	97.695214990906
8	615	235.736886272961	99.132593577001
8	616	235.953872337565	98.465211823008
8	617	235.956266909081	97.642644020112
8	626	237.135321248545	98.487636426158
8	637	242.47913385963	103.48427384797
8	644	244.931946673404	105.06646784855
8	655	252.284447724208	112.34217018841
8	678	261.556208805341	119.87287671381
8	685	266.449649924118	123.93417853773
8	688	267.678102060112	123.29565831406
8	691	268.784868253374	121.59517398733
8	696	269.475707283	121.14259491663
8	703	272.00843556263	122.19816971614
8	704	272.29212077509	121.65265999251
8	707	273.134839878749	121.78846835001
8	708	274.996030415212	121.34090299408
8	709	275.389015096118	121.07058683669
8	710	275.462251987811	120.82044351076
8	711	275.971136648214	119.90301647548
8	714	277.808458636461	121.12102708713
8	717	279.476346297784	120.64213818423
8	718	280.505595503735	121.26358837571
8	729	282.552308448101	122.67039203702
8	730	282.613367118505	122.27997987681
8	741	287.993216915634	126.62651515603
8	742	289.737646497528	127.41268059457
8	747	291.722090222812	128.92263794642
8	748	294.782223632922	129.59386809513
8	749	295.172119876051	129.84182493453
8	756	301.024421159638	135.21972838836
8	757	302.052650349658	134.52987266452
8	760	302.246103271418	132.90607182277
8	761	303.404098790964	133.36084576291
8	764	303.75113216476	133.29807949499
8	765	303.980781892862	133.19435399924
8	766	303.982108960606	131.68483870265
8	767	304.477128278243	131.52667730356
8	768	304.554857099514	131.52650373575
8	769	305.047556248859	131.89529591881
8	772	305.768270182201	132.52201580616
8	777	308.138811004598	133.78528041564
8	778	308.627774233298	133.48529883058
8	793	315.542576540521	137.00751941393
8	800	317.376559533135	136.53648913501
8	801	317.580416927666	134.95899558196
8	806	320.562546842013	133.92316610556
8	811	323.312573775809	135.65388927435
8	818	324.64275553415	136.95571325944
8	819	325.396272354956	136.84975095451
8	822	327.056836536703	137.52550174054
8	835	328.643498333151	136.47992389326
8	838	329.332164539942	133.76145685902
8	843	330.763588420304	133.03888736074
8	860	338.814436210415	140.01218316321
8	869	340.685966003689	141.02937219314
8	870	341.016551115297	141.07713952077
8	875	343.105849895908	143.12314299227
8	876	343.211424252215	141.00844022754
8	879	345.951411464725	142.85832988933
8	880	346.624782335628	139.40975950599
8	885	347.305515694426	139.71256122756
8	886	347.387753435485	138.35673497053
8	905	351.249163469768	141.8979557273
8	906	351.328136496316	140.16045836632
8	907	353.75995261139	142.16222557586
8	910	354.678486241108	142.74268057423
8	917	357.903285187987	145.84444538105
8	926	359.179051300693	146.99992214717
8	931	361.246018535442	147.80577802576
8	932	361.627965371502	147.42839578203
8	933	361.689776320857	146.43454192432
8	940	362.756936948833	147.25485950476
8	949	368.017689872241	152.23616372748
8	956	371.338676510757	155.42216819711
8	965	377.437083609788	160.38802601743
8	966	379.342364239168	162.09742609677
8	967	379.598568975072	162.29243236338
8	968	379.742882247098	161.37430587332
8	971	380.749058178968	161.9710368753
8	974	382.586343821618	162.10086260734
8	979	385.276118507484	163.95065957099
8	982	387.631611590679	165.94872453879
8	987	392.158221309315	169.70226122697
8	990	392.490346225147	169.40547246764
8	991	392.540026556022	169.09197985911
8	1004	397.241480401506	172.51338683251
8	1007	399.873634706044	174.51612379233
8	1008	400.24398554123	174.02563287638
8	1009	400.687331829891	173.38649847018
8	1028	405.044706546059	177.71172146501
8	1037	406.639537074248	177.58471695101
8	1038	408.277653326949	178.7868731129
8	1051	411.848496897573	180.36271759686
8	1056	415.290811937282	183.78077180601
8	1059	418.601734886979	186.50992892766
8	1060	418.608784937814	185.28795692429
8	1065	422.075158189319	188.32865179097
8	1092	429.744661388437	195.77668826991
8	1093	429.790959600392	195.43958031587
8	1096	429.951143253552	195.20166085423
8	1097	431.617220844917	196.7042474907
8	1098	432.401305187064	196.13720767838
8	1107	436.634547212943	200.2226963127
8	1118	440.488866580265	203.89449551182
8	1123	441.752441642552	204.95627837083
8	1128	442.90844491662	205.22621585524
8	1137	447.854220289896	208.13319649929
8	1140	448.544321343374	208.79142393959
8	1149	450.843487332107	208.37906268359
8	1154	452.374380460473	209.10549288047
8	1155	453.700639869029	209.64853901726
8	1158	455.976501421713	211.83060936997
8	1165	459.267489135978	213.79595494852
8	1168	459.604618509602	212.9951760664
8	1169	459.829253220606	211.8816193501
8	1178	462.543134948588	211.64961287855
8	1183	465.076532359967	210.91650818027
8	1192	471.288298674829	216.82523939752
8	1199	473.5020426447	218.39922262892
8	1202	475.845993041958	219.06369236738
8	1205	477.343429812691	220.50924240461
8	1214	480.158963499846	222.7741804307
8	1225	483.122173427708	225.5765770415
8	1242	489.242857636223	230.13105465601
8	1247	491.120566758833	231.28871701329
8	1272	497.770491700441	236.41729957909
8	1273	498.369005720271	236.8772768064
8	1274	498.508166431728	236.25526556813
8	1275	499.017426870774	235.7551968397
8	1302	505.395458479437	240.00798303343
8	1305	507.23536106836	240.31254197259
8	1308	508.399267580244	239.8171838812
8	1315	510.338329233036	241.10398240772
8	1320	513.757426187648	244.20244237165
8	1329	515.895911630141	245.14113998474
8	1332	516.67445805862	244.94283206073
8	1333	516.984835913836	241.00150567941
8	1354	526.151936444587	245.52880815787
8	1371	530.865947137864	249.65526020618
8	1374	533.775957546083	252.21873227967
8	1381	535.756404522174	253.55724316961
8	1398	539.62630786878	257.30349836487
8	1423	547.10792814044	264.26446365196
8	1424	548.747881731742	264.78831967385
8	1431	550.681143720984	264.70047352116
8	1432	553.379432017233	266.28438385647
8	1439	556.903934918978	269.5269442099
8	1442	559.114359777925	268.43707886083
8	1443	559.238866345928	268.45392008962
8	1448	560.293047933865	261.03251488298
8	1453	563.740334500382	264.29904327785
8	1460	566.723125354377	266.3148739311
8	1467	569.46088240463	267.2250896181
8	1468	570.066911257947	266.48031060583
8	1471	570.710779664241	265.08747910337
8	1478	574.172082549494	268.22566316718
8	1479	574.451681244013	268.27282094972
8	1498	579.803733533563	271.074934104
8	1509	581.292142200453	272.17058418211
8	1510	581.557680862212	272.38714434167
8	1523	584.413304690666	271.92284913249
8	1530	585.52341202257	272.41713736778
8	1531	586.754708856851	273.4585800389
8	1542	592.76424418465	278.98463656527
8	1557	596.822210620685	281.23019787422
8	1558	597.101701653977	280.76779338674
8	1561	597.420932873923	280.93408057617
8	1564	598.074758588773	279.99412008261
8	1569	599.320688045232	280.01378197967
8	1570	599.67788008208	278.43248997104
8	1577	603.354979997991	281.28109891465
8	1578	603.94068200855	280.18207920251
8	1587	606.816878689841	282.89424984906
8	1598	611.741744901343	285.00890910629
8	1599	613.217556774248	286.10451761207
8	1600	613.924267837567	286.71507986167
8	1611	617.36386585933	289.83284103674
8	1614	617.937046013854	290.02615509128
8	1619	620.059414139095	292.10383409107
8	1620	621.538239564071	293.01335345181
8	1623	626.122195506179	297.1167311975
8	1628	626.837031106041	296.91956582791
8	1629	628.237743397323	298.13303842632
8	1630	628.281285887082	295.30722453118
8	1635	630.623314586176	296.24246052917
8	1638	631.795103431978	295.45349278536
8	1643	633.823340728007	296.96578075942
8	1644	634.38324083877	296.50306508643
8	1675	640.049442663306	301.43823339984
8	1680	641.793995758933	302.1068857592
8	1681	641.797038180672	301.96823494839
8	1684	642.661177623768	302.35398243386
8	1687	643.776692546737	303.27641932514
8	1690	644.360283208897	303.24307808674
8	1693	645.119728757047	300.28999262588
8	1694	646.031696414532	298.75640209815
8	1703	650.561365495092	302.93715210143
8	1704	651.942770369613	303.9994598756
8	1707	652.459261116612	304.31623068609
8	1712	652.869230955654	304.53767253875
8	1715	653.788975465313	304.16012205535
8	1718	654.307008499083	304.54628089261
8	1721	654.907541833603	304.06307405621
8	1722	655.546322541335	304.4574000411
8	1723	655.582945624876	301.54574391758
8	1728	656.330893041106	299.57093990738
8	1745	660.157125525978	302.93600888105
8	1752	661.578644356559	304.09314727214
8	1759	663.079890863254	304.03151552948
8	1760	663.272489619463	304.20071785035
8	1779	666.681887268481	307.60251196394
8	1782	666.99547428584	307.10544479346
8	1791	669.155700973566	306.84183119259
8	1792	669.756056935145	307.11784799948
8	1793	670.518338255804	307.78705507548
8	1794	670.913541386384	307.47719039091
8	1797	671.230255449237	306.51873022574
8	1820	680.001062743852	314.2814479201
8	1821	680.037246566079	312.12579940091
8	1828	681.712864880606	312.79958914488
8	1833	686.253461214924	317.06377746191
8	1834	686.857569955428	316.30889206112
8	1837	688.910539342981	316.54717044156
8	1844	690.833150065275	318.2180233648
8	1845	692.018137561214	316.36372631429
8	1854	695.674652824962	318.35801091593
8	1861	697.333241648963	316.66399880615
8	1870	701.363250727976	318.8951075766
8	1873	703.679614908366	320.85819979658
8	1882	710.851400866038	326.96620762737
8	1883	710.879714719704	323.96446531153
8	1886	711.040812233296	321.57950050954
8	1887	711.188837337794	319.76392709297
8	1888	712.636353230081	320.40495802145
8	1901	715.42813184135	321.22222498331
8	1902	715.530048731243	320.7704508443
8	1913	718.754772214832	323.8364291043
8	1928	723.587221548991	328.25515858449
8	1935	726.13033344362	329.66404346576
8	1938	728.280741736648	331.39337542998
8	1943	730.508828708036	333.26491265421
8	1944	730.745433173012	330.02425702045
8	1959	735.286478052704	334.38560030221
8	1968	738.051261172672	336.11861061562
8	1983	743.131441967783	340.3607944607
8	1990	744.679657670082	341.6978935743
8	2005	747.527924179661	344.21409896672
8	2006	747.559751383717	343.57677999607
8	2007	749.203750704514	344.31324240715
8	2008	749.353163255819	344.23168120528
8	2017	752.058544481649	346.62839683219
8	2020	754.121692497329	348.28670783154
8	2025	755.814885362475	349.36104703376
8	2026	758.160252644963	348.24523017795
8	2027	758.211205779541	347.15061307771
8	2032	759.536867573794	348.27643474794
8	2035	760.692740813169	349.2124250996
8	2042	765.685936633725	354.19265857127
8	2045	766.924975219573	353.51562508311
8	2060	769.560418261807	355.04118912808
8	2063	770.731979691773	351.41803887435
8	2066	771.24137808598	350.88078876222
8	2067	771.713179838553	349.22078172769
8	2072	772.853788594563	349.70308705762
8	2073	773.296957426202	350.14270899697
8	2080	774.6624473213	349.83853950246
8	2097	782.808693794898	357.4564591493
8	2114	791.755768643298	365.2207444047
8	2133	795.662194809137	369.12321896951
8	2134	795.83285928455	369.25190516239
8	2143	796.462049217517	369.60648293948
8	2152	797.862167823258	370.09312298322
8	2153	797.862829438066	369.01216457971
8	2154	798.122126594225	369.08641908251
8	2165	802.453054879439	373.24777122973
8	2166	802.800160072555	372.96935957059
8	2171	805.048218101741	370.57446781102
8	2174	805.744905355262	370.83469399543
8	2183	810.016477241383	374.53269913217
8	2188	814.975018743656	379.22502982498
8	2193	817.234148649498	380.23003242282
8	2196	818.116226484216	380.57158291775
8	2197	818.806066059434	381.22049126164
8	2198	818.932935098164	379.3871006769
8	2199	819.846995939228	379.47945367761
8	2202	819.968025713604	379.02666923343
8	2205	821.989958179903	380.57161576574
8	2206	822.330312149021	380.28553282464
8	2209	823.995498458726	381.90466604576
8	2212	824.445277736717	380.96790489463
8	2213	824.800652856393	379.42687362512
8	2222	826.453802918209	380.46214165561
8	2239	833.025442178513	385.71802638898
8	2240	833.689959392282	385.70599217021
8	2243	834.054166466081	384.92144014483
8	2250	837.870033809398	388.72306820572
8	2255	839.604352988506	390.06550646651
8	2260	840.651536475478	389.80497927734
8	2269	841.711404354537	389.85332502511
8	2270	842.132673819936	387.88994290694
8	2271	842.231097321694	385.51504573499
8	2274	843.251603126525	384.70431267362
8	2281	848.359337054189	389.23258452087
8	2282	851.032815845689	391.47297074248
8	2289	852.804257955513	392.48465601831
8	2298	856.999007365173	395.41487477946
8	2299	857.119416708129	394.63406251412
8	2300	858.038441478621	393.79761743233
8	2311	860.014577609816	392.5026644244
8	2342	867.559760695591	396.46930006366
8	2343	867.685838384537	396.52499939004
8	2356	873.55966831546	402.33426140735
8	2357	874.040618603022	402.1000376924
8	2360	875.014822160316	401.58456532152
8	2363	876.388640397548	402.94711213959
8	2366	877.929604742935	402.41124715354
8	2371	879.274352905455	401.93899840503
8	2372	882.189009182809	403.24747370153
8	2395	891.26835430387	412.11346160872
8	2398	893.210348666911	413.75678744719
8	2401	894.837573821086	414.90750956955
8	2410	898.386737476223	417.79922822577
8	2417	899.707007134462	418.25082104382
8	2420	900.157361292078	418.39176854985
8	2423	903.390176689608	421.50050291762
8	2430	905.420167867463	422.40234759228
8	2437	909.541039021041	425.9862866764
8	2440	910.548377222365	426.72267406742
8	2441	910.986264858072	425.9324298624
8	2462	920.572106296434	435.50784465671
8	2463	920.642550218176	433.97147366762
8	2466	921.653747928148	433.97131686723
8	2469	924.112699060668	435.3861239414
8	2474	925.00334912435	435.0172885092
8	2481	927.367777285369	436.40648276069
8	2486	929.253092737592	437.86895562188
8	2491	930.675336831998	438.057752931
8	2494	933.86779978417	441.16144962486
8	2495	933.89528599951	441.13967119656
8	2498	936.745743138642	443.79075144965
8	2505	938.343263821049	445.36615705628
8	2510	938.730215528669	445.46586490501
8	2515	942.498496382938	449.18710827843
8	2518	944.669817549298	450.45973853969
8	2527	946.166533505028	451.92542441195
8	2534	947.892085506805	451.60579794609
8	2547	956.932877681357	459.29199003089
8	2550	958.315438756428	459.21501248568
8	2551	958.344474671107	459.07176984894
8	2552	958.370668102744	459.0128558057
8	2555	959.083643155241	458.63681385409
8	2560	962.582580541686	462.0660485759
8	2573	966.872390657436	466.01946654584
8	2588	974.558155939472	473.35576684207
8	2603	981.17558426542	479.37998475135
8	2622	985.149436446339	481.66786363755
8	2631	988.635609789596	484.26000817596
8	2634	989.636984362675	484.69522192056
8	2635	989.994224567138	483.63480721549
8	2636	990.038035089076	482.14476239344
8	2637	990.45960551206	480.35935990552
8	2644	992.641485179497	481.65158557289
8	2655	996.588993977454	484.56873242374
8	2660	997.894531876008	483.88473187323
9	5	1.602981274285	0.62305891705
9	8	2.300628970653	0.42697039117
10	9	2.413175013921	0.539516434438
11	2665	1000	0.001
12	2665	1000	0.483

