version 2
run Consistency_test_bosses_defeated-64-20221207-16:14:12-7121
attr configname Consistency_test_bosses_defeated
attr datetime 20221207-16:14:12
attr experiment Consistency_test_bosses_defeated
attr inifile omnetpp.ini
attr iterationvars $0=2
attr iterationvarsf 2-
attr measurement $0=2
attr network Network
attr processid 7121
attr repetition 64
attr replication #64
attr resultdir results
attr runnumber 64
attr seedset 64
param *.boss.arrival_mean 1
param *.boss.service_mean 2
param **.minion.arrival_distribution 0
param **.minion.service_distribution 0
param *.minion.arrival_mean 10
param *.minion.service_mean 1
param **.boss.arrival_distribution 0
param **.boss.service_distribution 0

vector 0 Network.player minion_jobs_number_stat:vector ETV
attr source signal_minion_jobs_number
vector 1 Network.player minion_jobs_queue_number_stat:vector ETV
attr source signal_minion_jobs_queue_number
vector 2 Network.player minion_recovered_stat:vector ETV
attr source signal_minion_recovered
vector 3 Network.player minion_defeated_stat:vector ETV
attr source signal_minion_defeated
vector 4 Network.player boss_jobs_number_stat:vector ETV
attr source signal_boss_jobs_number
vector 5 Network.player boss_jobs_queue_number_stat:vector ETV
attr source signal_boss_jobs_queue_number
vector 6 Network.player boss_defeated_stat:vector ETV
attr source signal_boss_defeated
vector 7 Network.player boss_waiting_time_stat:vector ETV
attr source signal_boss_waiting_time
vector 8 Network.player boss_response_time_stat:vector ETV
attr source signal_boss_response_time
vector 9 Network.player minion_throughput:vector ETV
attr source signal_minion_throughput
vector 10 Network.player boss_throughput:vector ETV
attr source signal_boss_throughput
0	0	0	0
0	6	0.468650036678	1
0	42	18.450269349305	2
0	66	27.272078380474	3
0	84	34.802610689995	4
0	89	37.074626610661	5
0	113	43.962862241327	6
0	119	44.842905518251	7
0	164	56.418988120557	8
0	166	56.682347538869	9
0	269	91.987318219822	10
0	283	97.144648763832	11
0	296	101.590389518664	12
0	313	106.349992437403	13
0	386	126.393731016499	14
0	388	126.936605317539	15
0	410	135.461837510685	16
0	461	151.827725088202	17
0	463	152.521029053899	18
0	479	157.295664542805	19
0	522	171.935037012079	20
0	550	176.668257503576	21
0	588	187.822131446039	22
0	620	201.702113190612	23
0	646	209.049049020026	24
0	672	216.910352161864	25
0	681	221.245461164575	26
0	711	228.651519321223	27
0	719	230.235417757928	28
0	807	261.088472669382	29
0	833	269.351005912765	30
0	847	274.194492219711	31
0	878	289.415109789576	32
0	891	294.726968850689	33
0	911	302.119712804355	34
0	927	307.413688047581	35
0	929	309.743530350449	36
0	941	312.383849993382	37
0	963	320.592711775578	38
0	999	328.016291057495	39
0	1009	333.126642857012	40
0	1037	347.244502980739	41
0	1039	347.877630683425	42
0	1097	374.062136171649	43
0	1114	380.204286022397	44
0	1130	390.463179637778	45
0	1149	395.552635990104	46
0	1171	405.803763202807	47
0	1173	406.486311803795	48
0	1194	412.228733879154	49
0	1242	426.519812952819	50
0	1296	448.260345486561	51
0	1299	448.516529058292	52
0	1340	460.610198268314	53
0	1367	467.966567219342	54
0	1421	487.667300458012	55
0	1427	488.824296834298	56
0	1440	495.331779112743	57
0	1447	497.82787032113	58
0	1455	498.886958829284	59
0	1480	506.744906591057	60
0	1490	508.469977490105	61
0	1499	512.246348950534	62
0	1513	514.944571138126	63
0	1566	534.111045947201	64
0	1633	559.26990354676	65
0	1637	559.707698162426	66
0	1736	591.377380624204	67
0	1788	606.645467193619	68
0	1811	615.56397525526	69
0	1815	617.441732660661	70
0	1822	622.703525106476	71
0	1836	627.7568447671	72
0	1899	650.326686067369	73
0	1917	652.934480565644	74
0	1936	660.534486845827	75
0	1943	666.003879168751	76
0	2001	686.984293311367	77
0	2017	690.009984770465	78
0	2019	690.160295613778	79
0	2031	693.526171651594	80
0	2089	712.672352076494	81
0	2140	734.841748414983	82
0	2189	755.554723426216	83
0	2245	778.622528136562	84
0	2268	790.559533823363	85
0	2278	793.199504606455	86
0	2280	794.179226419105	87
0	2297	801.77315794682	88
0	2317	808.991889353803	89
0	2319	810.207803808724	90
0	2368	829.576686497797	91
0	2370	830.071950208942	92
0	2405	840.050469932134	93
0	2439	852.147106516469	94
0	2444	853.417244873579	95
0	2534	885.563152641607	96
0	2544	889.060315984939	97
0	2589	907.338006501888	98
0	2596	909.483846386349	99
0	2620	916.303882723897	100
0	2624	917.884747001905	101
0	2667	932.931940213465	102
0	2673	935.243199651689	103
0	2696	944.190791147037	104
0	2713	948.844666420078	105
0	2715	949.184394634672	106
0	2786	972.205999742252	107
0	2788	973.362766448828	108
0	2816	979.632768477456	109
0	2837	987.090095833971	110
0	2839	987.406319271268	111
0	2846	994.63362748214	112
1	0	0	0
1	6	0.468650036678	0
1	42	18.450269349305	1
1	66	27.272078380474	2
1	84	34.802610689995	3
1	89	37.074626610661	4
1	113	43.962862241327	5
1	119	44.842905518251	6
1	164	56.418988120557	7
1	166	56.682347538869	8
1	269	91.987318219822	9
1	283	97.144648763832	10
1	296	101.590389518664	11
1	313	106.349992437403	12
1	386	126.393731016499	13
1	388	126.936605317539	14
1	410	135.461837510685	15
1	461	151.827725088202	16
1	463	152.521029053899	17
1	479	157.295664542805	18
1	522	171.935037012079	19
1	550	176.668257503576	20
1	588	187.822131446039	21
1	620	201.702113190612	22
1	646	209.049049020026	23
1	672	216.910352161864	24
1	681	221.245461164575	25
1	711	228.651519321223	26
1	719	230.235417757928	27
1	807	261.088472669382	28
1	833	269.351005912765	29
1	847	274.194492219711	30
1	878	289.415109789576	31
1	891	294.726968850689	32
1	911	302.119712804355	33
1	927	307.413688047581	34
1	929	309.743530350449	35
1	941	312.383849993382	36
1	963	320.592711775578	37
1	999	328.016291057495	38
1	1009	333.126642857012	39
1	1037	347.244502980739	40
1	1039	347.877630683425	41
1	1097	374.062136171649	42
1	1114	380.204286022397	43
1	1130	390.463179637778	44
1	1149	395.552635990104	45
1	1171	405.803763202807	46
1	1173	406.486311803795	47
1	1194	412.228733879154	48
1	1242	426.519812952819	49
1	1296	448.260345486561	50
1	1299	448.516529058292	51
1	1340	460.610198268314	52
1	1367	467.966567219342	53
1	1421	487.667300458012	54
1	1427	488.824296834298	55
1	1440	495.331779112743	56
1	1447	497.82787032113	57
1	1455	498.886958829284	58
1	1480	506.744906591057	59
1	1490	508.469977490105	60
1	1499	512.246348950534	61
1	1513	514.944571138126	62
1	1566	534.111045947201	63
1	1633	559.26990354676	64
1	1637	559.707698162426	65
1	1736	591.377380624204	66
1	1788	606.645467193619	67
1	1811	615.56397525526	68
1	1815	617.441732660661	69
1	1822	622.703525106476	70
1	1836	627.7568447671	71
1	1899	650.326686067369	72
1	1917	652.934480565644	73
1	1936	660.534486845827	74
1	1943	666.003879168751	75
1	2001	686.984293311367	76
1	2017	690.009984770465	77
1	2019	690.160295613778	78
1	2031	693.526171651594	79
1	2089	712.672352076494	80
1	2140	734.841748414983	81
1	2189	755.554723426216	82
1	2245	778.622528136562	83
1	2268	790.559533823363	84
1	2278	793.199504606455	85
1	2280	794.179226419105	86
1	2297	801.77315794682	87
1	2317	808.991889353803	88
1	2319	810.207803808724	89
1	2368	829.576686497797	90
1	2370	830.071950208942	91
1	2405	840.050469932134	92
1	2439	852.147106516469	93
1	2444	853.417244873579	94
1	2534	885.563152641607	95
1	2544	889.060315984939	96
1	2589	907.338006501888	97
1	2596	909.483846386349	98
1	2620	916.303882723897	99
1	2624	917.884747001905	100
1	2667	932.931940213465	101
1	2673	935.243199651689	102
1	2696	944.190791147037	103
1	2713	948.844666420078	104
1	2715	949.184394634672	105
1	2786	972.205999742252	106
1	2788	973.362766448828	107
1	2816	979.632768477456	108
1	2837	987.090095833971	109
1	2839	987.406319271268	110
1	2846	994.63362748214	111
2	0	0	0
3	0	0	0
4	0	0	0
4	2	0.088423862612	1
4	4	0.118665423084	2
4	8	1.19141676843	3
4	10	1.430789829901	4
4	12	1.963941458003	5
4	16	6.553998233075	4
4	19	7.784213278328	4
4	21	8.85172580134	5
4	23	8.873009613549	6
4	25	9.730372275742	7
4	28	11.499376814781	7
4	30	11.663011340123	8
4	33	13.942190688451	8
4	36	14.941673011914	8
4	38	15.497597905518	9
4	40	18.015818149528	10
4	45	18.667764869868	10
4	47	18.959267363799	11
4	49	19.913863715861	12
4	51	20.913418953468	13
4	54	22.098973651564	13
4	56	22.489697072373	14
4	58	22.937920475054	15
4	60	23.128081583382	16
4	62	23.583454642773	17
4	68	28.425050459007	16
4	72	29.559668527162	15
4	74	31.222929532464	16
4	76	31.500469117254	17
4	80	33.374770103247	16
4	82	33.749063967134	17
4	87	36.230019557335	17
4	91	37.381224121446	18
4	94	38.499008548423	18
4	96	40.591539096739	19
4	98	40.667643604496	20
4	100	40.886023777138	21
4	102	41.365422805529	22
4	105	41.903782691589	22
4	108	43.173336390549	22
4	110	43.228175203392	23
4	115	44.0363764977	23
4	117	44.133709146177	24
4	121	45.079589853484	25
4	124	45.409934646156	25
4	126	45.43028331831	26
4	128	46.187641237757	27
4	132	48.022678230138	26
4	135	48.712753199588	26
4	137	49.559358574695	27
4	140	51.075231066613	27
4	142	51.622784662155	28
4	144	51.81756290576	29
4	146	52.208199684293	30
4	149	52.65146112657	30
4	151	53.243081398005	31
4	153	54.038993563938	32
4	155	54.291628163778	33
4	158	55.498532651685	33
4	160	55.731296109247	34
4	162	56.212372904743	35
4	168	57.245934057797	36
4	170	57.756906346364	37
4	172	57.765963799359	38
4	174	58.234363069964	39
4	176	58.406423970338	40
4	178	58.810263103338	41
4	181	59.389671102547	41
4	183	60.618940856697	42
4	185	61.079662132587	43
4	189	62.131895455831	42
4	191	62.269830906888	43
4	193	63.333700915713	44
4	195	63.683208314297	45
4	197	64.076372810235	46
4	199	64.111879683111	47
4	201	64.562801794952	48
4	203	66.222970722219	49
4	205	67.399503900902	50
4	207	67.706579415697	51
4	209	67.821444280193	52
4	211	68.39075521279	53
4	213	68.572322906136	54
4	215	69.052532394782	55
4	217	70.077739291518	56
4	219	71.350507682679	57
4	221	71.384845003145	58
4	223	71.551982454708	59
4	227	75.326967544992	58
4	229	75.431152359553	59
4	232	77.942540081678	59
4	235	78.330860130725	59
4	237	79.271481225871	60
4	242	82.425745981637	58
4	245	82.659315535589	58
4	247	83.278902302836	59
4	249	83.953792996194	60
4	251	84.39197283957	61
4	254	84.923415256997	61
4	256	85.079929235216	62
4	259	86.957258581811	62
4	261	87.467516069926	63
4	263	87.733159282027	64
4	265	88.169276606234	65
4	273	92.601581196417	62
4	275	93.687304198169	63
4	277	95.022787346477	64
4	279	95.474975352081	65
4	288	99.770571676106	61
4	290	100.144487902344	62
4	292	100.262393383245	63
4	294	100.565648327706	64
4	298	101.606436965662	65
4	300	103.6275427689	66
4	302	103.6921440783	67
4	304	104.276517143659	68
4	307	105.320279979781	68
4	309	105.707391612374	69
4	311	106.026591082343	70
4	315	106.55797470603	71
4	318	106.971337970769	71
4	321	108.42742087637	71
4	324	109.410184413152	71
4	326	109.567275728991	72
4	328	109.813551479031	73
4	330	110.638457170476	74
4	332	110.737310974051	75
4	334	111.238670020987	76
4	336	112.549289416841	77
4	338	112.698771518859	78
4	340	113.2814778476	79
4	342	114.257755284199	80
4	344	114.414816278676	81
4	347	116.171042951741	81
4	349	116.895668731635	82
4	351	117.158170842648	83
4	354	118.369392064227	83
4	359	118.862599061373	81
4	362	119.088706347485	81
4	364	119.120741360202	82
4	366	119.7293457886	83
4	368	120.244710025549	84
4	370	120.273640898178	85
4	372	120.664133540643	86
4	374	121.983387784134	87
4	376	122.321746455774	88
4	379	123.623201245372	88
4	382	124.857831677488	88
4	384	126.098223257637	89
4	391	127.924572134956	89
4	393	128.33072862779	90
4	396	129.315630092617	90
4	398	130.263223835396	91
4	401	133.571008112054	91
4	404	134.328582843511	91
4	406	135.025340060673	92
4	408	135.318154476303	93
4	412	135.558325343766	94
4	414	135.785334704836	95
4	417	137.12586887845	95
4	419	138.126038668547	96
4	424	140.762282012787	94
4	426	141.060743139554	95
4	428	141.246528731452	96
4	430	143.134301170241	97
4	432	144.015300748267	98
4	434	144.219694102967	99
4	436	144.75230865914	100
4	438	145.475946754689	101
4	441	145.674418964342	101
4	444	146.398330016433	101
4	446	148.147546781584	102
4	448	148.638836329773	103
4	450	149.459578056413	104
4	452	150.107456484397	105
4	455	150.373637082269	105
4	458	150.712382297881	105
4	465	152.712917494521	105
4	467	153.258323599172	106
4	469	154.230227467652	107
4	471	154.321276749202	108
4	473	154.752994378087	109
4	475	156.406564041244	110
4	477	156.768212827613	111
4	481	158.575314000085	112
4	483	159.336908167793	113
4	485	159.693361406433	114
4	487	160.232031741216	115
4	489	160.409541106663	116
4	491	161.16389466793	117
4	493	161.855954431192	118
4	495	162.884067551302	119
4	498	163.546902963288	119
4	500	165.152967715698	120
4	508	168.385087055236	115
4	511	168.882720473931	115
4	513	169.911191825463	116
4	515	169.924288506368	117
4	517	170.695975125651	118
4	519	170.73815173405	119
4	524	171.973321164414	119
4	528	173.048775157314	118
4	533	174.459994473729	116
4	536	175.222576193165	116
4	538	175.605863957811	117
4	540	175.642725375572	118
4	542	175.822931279955	119
4	544	175.829878712737	120
4	546	176.23005286236	121
4	548	176.308906488313	122
4	552	176.705541458776	123
4	554	177.002506479073	124
4	556	177.152816452244	125
4	558	178.010165448036	126
4	561	179.182990988059	126
4	563	179.980342505503	127
4	565	180.030136719574	128
4	567	180.71570645606	129
4	570	181.436323368229	129
4	573	182.108464408462	129
4	575	182.312739814335	130
4	578	183.938089088998	130
4	580	184.136360250277	131
4	582	185.718421863666	132
4	584	185.743453736946	133
4	586	187.261794670011	134
4	590	188.166256833227	135
4	594	189.804457122571	134
4	596	189.897676013261	135
4	598	192.726391233083	136
4	600	192.766132260159	137
4	602	195.753600646899	138
4	605	196.569273399855	138
4	607	196.715323510583	139
4	611	199.037033520182	138
4	614	199.809182121274	138
4	616	200.68561092917	139
4	618	201.679036021522	140
4	622	201.828956533285	141
4	625	203.424567915625	141
4	627	204.711389157864	142
4	629	205.08783466737	143
4	631	205.184652459924	144
4	633	205.203696318384	145
4	635	205.537854572591	146
4	637	206.232316175405	147
4	639	207.847025788425	148
4	643	208.170313578916	147
4	648	209.885278401991	147
4	650	209.90444211058	148
4	652	210.218404843422	149
4	655	212.424799444426	149
4	658	213.255998481178	149
4	660	214.526464349606	150
4	662	215.150508097802	151
4	664	215.588278192732	152
4	666	215.901771571792	153
4	668	215.915072759283	154
4	670	215.93275056653	155
4	674	217.208332299526	156
4	678	218.426876764244	155
4	683	221.591777339244	155
4	685	221.840966900231	156
4	688	222.58701924133	156
4	690	223.330528669721	157
4	692	223.527100013733	158
4	694	223.739727733272	159
4	696	224.183804575919	160
4	699	224.317691082621	160
4	701	224.830403233143	161
4	703	225.508645682907	162
4	705	225.691159959155	163
4	707	226.566137862469	164
4	709	227.723193714883	165
4	713	228.863915204355	166
4	716	230.060608614535	166
4	721	230.300549046631	166
4	728	233.292529121245	162
4	730	233.480856067645	163
4	732	233.938684652883	164
4	734	234.353790603501	165
4	737	236.45376438355	165
4	739	236.921142247122	166
4	741	238.162380720113	167
4	743	239.521402348992	168
4	746	240.495088217013	168
4	748	240.590737441943	169
4	750	240.601320772976	170
4	752	242.296314000141	171
4	757	244.980737792809	169
4	761	246.294531828902	168
4	763	246.365414736564	169
4	765	246.957791263129	170
4	768	247.356707560681	170
4	770	247.800198919502	171
4	772	248.530833846918	172
4	774	249.484578752236	173
4	776	250.267823618532	174
4	778	251.70125615254	175
4	781	254.080336633792	175
4	783	254.103317444643	176
4	785	254.554350873147	177
4	787	256.363498495286	178
4	791	257.64763528827	177
4	794	258.290659181134	177
4	796	259.322577942065	178
4	798	260.372972553138	179
4	800	260.41261298052	180
4	803	260.741662887798	180
4	805	260.78193263641	181
4	809	261.369530174102	182
4	812	263.318308727084	182
4	814	263.494810109576	183
4	816	264.048677298272	184
4	818	264.182719022484	185
4	822	264.655327609717	184
4	824	264.795673929514	185
4	826	265.504676445599	186
4	830	268.932047249887	185
4	835	269.744949155735	185
4	837	270.304762317095	186
4	839	270.725711753552	187
4	841	270.995595318584	188
4	843	272.22889946146	189
4	845	272.756237214972	190
4	849	274.775631760193	191
4	851	275.138714071762	192
4	853	276.812282610883	193
4	858	280.354492161264	191
4	860	281.093368426739	192
4	863	282.294356135965	192
4	865	282.635842437409	193
4	867	283.180572541977	194
4	869	285.800455885065	195
4	871	287.212809793204	196
4	873	288.563364370801	197
4	875	288.669276868974	198
4	880	289.700151296079	198
4	885	293.907304423477	196
4	887	294.461848098031	197
4	889	294.726863904674	198
4	893	294.740537952598	199
4	895	295.182427008068	200
4	897	295.827365123193	201
4	899	296.865804158881	202
4	902	298.314245728072	202
4	904	299.14942738694	203
4	906	301.037292397171	204
4	909	301.265639993016	204
4	913	302.141813537813	205
4	915	303.67860656407	206
4	917	304.194219865779	207
4	919	304.330846821755	208
4	921	304.606015123293	209
4	925	306.980787023874	208
4	932	310.32753829482	208
4	935	311.222789047636	208
4	937	311.764545118018	209
4	939	312.088216839393	210
4	944	312.798072440721	210
4	946	313.669606696104	211
4	948	314.690530631548	212
4	950	315.193749529168	213
4	952	315.326797495183	214
4	954	316.437996731032	215
4	956	317.368397997327	216
4	958	319.076000930068	217
4	960	320.102924132663	218
4	965	320.808299638341	218
4	967	321.150946732701	219
4	969	321.592307590676	220
4	971	321.758427457602	221
4	973	321.826705440438	222
4	975	321.853097265605	223
4	977	322.576737048631	224
4	979	323.095808791313	225
4	981	323.505781452758	226
4	983	323.854503487225	227
4	985	324.014888487601	228
4	987	324.960410760283	229
4	989	325.14036671484	230
4	991	325.29177365684	231
4	993	327.14677073279	232
4	995	327.358944563318	233
4	997	327.60376887256	234
4	1001	328.988867507605	235
4	1003	331.360637356981	236
4	1006	332.407395777938	236
4	1011	334.349844988989	236
4	1013	334.424638600015	237
4	1015	335.197531622645	238
4	1017	335.320084385554	239
4	1019	335.462665087905	240
4	1022	337.350031685868	240
4	1026	340.397836670375	239
4	1028	341.370430767058	240
4	1031	342.578651054451	240
4	1034	344.557746873835	240
4	1041	348.226215193921	240
4	1043	348.530702686148	241
4	1046	350.473359720087	241
4	1054	353.389698728367	236
4	1056	353.720508580695	237
4	1061	357.783420164565	235
4	1063	359.735814660988	236
4	1065	360.561187925706	237
4	1068	361.672877884043	237
4	1070	361.723084139647	238
4	1072	362.467392832605	239
4	1074	363.252997875543	240
4	1077	363.534959592404	240
4	1079	363.628983599778	241
4	1081	364.162628028063	242
4	1083	366.826406222722	243
4	1085	371.735439908862	244
4	1087	371.827787220241	245
4	1089	371.875553104981	246
4	1091	372.331164301677	247
4	1093	372.866355985233	248
4	1099	374.112464734354	247
4	1102	374.549137477724	247
4	1104	375.582932173386	248
4	1106	376.577976826215	249
4	1109	379.484566258955	249
4	1111	379.540242903959	250
4	1117	382.582800285701	249
4	1119	384.636312610536	250
4	1121	385.820109781474	251
4	1124	388.312528994647	251
4	1127	389.906418593449	251
4	1132	391.046701661957	251
4	1134	391.491208230893	252
4	1136	392.737749019914	253
4	1139	393.657250899295	253
4	1141	393.89575095473	254
4	1144	394.235808988724	254
4	1147	395.476434925739	254
4	1153	397.421097372514	253
4	1155	399.137167510142	254
4	1157	399.462473734118	255
4	1159	400.38606394208	256
4	1161	401.683590505207	257
4	1163	402.176767615873	258
4	1165	402.944430241961	259
4	1167	403.544408443081	260
4	1169	405.441245143315	261
4	1175	406.5703239084	262
4	1177	406.693300214626	263
4	1179	407.145806968936	264
4	1181	408.786707795344	265
4	1183	408.837832714218	266
4	1185	408.899415479076	267
4	1187	409.943137456451	268
4	1190	411.862936673235	268
4	1192	412.102038019341	269
4	1196	412.39131324876	270
4	1201	413.995582632241	268
4	1203	415.254182299735	269
4	1205	415.674392440233	270
4	1207	416.035530270723	271
4	1209	417.377759474852	272
4	1211	418.330758054514	273
4	1213	418.790042339195	274
4	1216	419.768542662594	274
4	1218	420.222053995042	275
4	1220	420.255331778091	276
4	1222	420.86162747393	277
4	1225	423.342303736673	277
4	1227	423.752236785988	278
4	1229	423.801195418098	279
4	1231	424.136721471628	280
4	1233	424.250336721094	281
4	1235	425.454109711344	282
4	1240	426.322510706865	280
4	1244	427.036177157215	281
4	1246	427.108377749687	282
4	1248	427.3515989276	283
4	1250	427.599636935158	284
4	1252	428.629451578469	285
4	1254	428.83921370704	286
4	1257	429.528317852486	286
4	1259	429.922410945868	287
4	1262	430.474463854659	287
4	1264	430.834203270188	288
4	1266	431.328187303256	289
4	1268	431.49341437878	290
4	1271	431.96090991315	290
4	1274	434.121874709672	290
4	1278	435.242794374662	289
4	1281	437.247276279582	289
4	1283	437.6615187883	290
4	1287	439.111777565497	289
4	1291	446.631499581453	288
4	1293	446.956666823819	289
4	1301	449.185692229897	288
4	1303	450.732275926159	289
4	1305	451.434478327935	290
4	1308	452.389727883541	290
4	1311	452.880932381178	290
4	1313	453.325417826587	291
4	1316	454.437699574645	291
4	1321	455.235990089431	289
4	1326	458.322375302918	287
4	1328	458.644460959349	288
4	1330	458.790536114963	289
4	1332	458.796453783581	290
4	1334	459.129911491876	291
4	1336	459.322596765306	292
4	1338	459.724059734077	293
4	1342	462.516293619869	294
4	1344	463.10966300255	295
4	1346	463.404435372283	296
4	1350	463.951755972298	295
4	1352	465.362948473698	296
4	1354	466.166283776177	297
4	1356	466.820744773008	298
4	1358	466.895821700554	299
4	1361	467.243170888071	299
4	1363	467.66131935412	300
4	1365	467.683852754461	301
4	1369	468.789130578093	302
4	1374	470.457802471436	300
4	1376	470.694954772441	301
4	1378	471.915222155728	302
4	1380	472.038323649178	303
4	1382	472.466467271732	304
4	1384	473.91707543496	305
4	1386	474.407637536466	306
4	1389	475.531750159054	306
4	1391	476.448591149741	307
4	1393	476.962964468568	308
4	1396	477.290412185846	308
4	1398	477.682570617108	309
4	1401	479.049694818927	309
4	1404	480.852252765476	309
4	1406	481.811252414409	310
4	1408	484.283774064371	311
4	1410	484.399651126335	312
4	1412	485.033927096583	313
4	1415	486.932432237779	313
4	1417	487.148384678401	314
4	1419	487.614465609323	315
4	1423	488.148640478174	316
4	1425	488.352496097919	317
4	1429	488.972784255795	318
4	1432	491.685713179083	318
4	1434	491.896340625988	319
4	1436	492.592381609701	320
4	1438	493.63673878334	321
4	1442	495.874410339519	322
4	1445	497.767375427367	322
4	1449	497.828111568518	323
4	1453	498.874303068346	322
4	1457	498.944996451521	323
4	1462	501.512464716434	321
4	1464	501.587042783588	322
4	1466	501.611612118869	323
4	1468	501.739788184911	324
4	1471	502.161105070813	324
4	1473	502.478724144085	325
4	1475	503.289615039355	326
4	1477	505.538472051905	327
4	1482	507.288173733751	327
4	1484	507.439361554786	328
4	1486	507.769129371661	329
4	1488	508.119605417144	330
4	1492	509.585428147338	331
4	1495	511.019365517325	331
4	1497	511.186171918555	332
4	1502	512.999356995314	332
4	1504	513.030857601566	333
4	1506	513.348793080021	334
4	1508	513.520867753242	335
4	1511	514.556041263891	335
4	1516	515.813810732102	335
4	1519	518.105032424758	335
4	1521	518.97706364251	336
4	1523	519.41323207365	337
4	1526	520.077959764399	337
4	1528	520.48355822898	338
4	1533	523.513315964592	336
4	1535	523.672522502499	337
4	1537	524.163943908242	338
4	1539	524.288435169785	339
4	1542	525.159868428089	339
4	1544	525.223834511643	340
4	1546	526.074584291864	341
4	1548	526.181408125338	342
4	1550	527.710744396811	343
4	1552	528.138012073527	344
4	1555	529.8426314804	344
4	1557	531.38359016526	345
4	1559	531.396505504806	346
4	1564	533.736514749902	344
4	1568	534.327723082553	345
4	1570	535.063429312745	346
4	1572	535.145981729031	347
4	1574	535.42186525755	348
4	1576	537.164699423264	349
4	1578	537.209492413508	350
4	1581	537.707016500015	350
4	1583	538.773978379555	351
4	1586	539.745671541648	351
4	1589	541.65370556888	351
4	1591	542.828509555038	352
4	1593	543.268153288101	353
4	1597	544.762325939606	352
4	1599	545.750257117412	353
4	1601	546.231080784837	354
4	1604	546.652631220872	354
4	1607	547.315046686351	354
4	1609	547.849733151582	355
4	1611	547.862372239994	356
4	1613	548.293055539407	357
4	1616	551.851598305126	357
4	1618	551.971740325729	358
4	1620	554.092756283988	359
4	1622	554.575456003885	360
4	1624	554.5774871494	361
4	1627	556.724439250207	361
4	1629	557.503639865359	362
4	1635	559.614590730989	361
4	1639	559.807041439266	362
4	1641	559.810756182137	363
4	1643	560.231852588059	364
4	1645	560.440813748055	365
4	1648	560.679568374504	365
4	1650	561.094848176592	366
4	1652	562.2219037617	367
4	1654	562.223619608026	368
4	1656	562.355938530543	369
4	1659	563.389647922605	369
4	1663	565.704297701937	368
4	1665	566.257630723929	369
4	1667	567.563344291654	370
4	1669	567.645247242057	371
4	1671	568.564889719319	372
4	1674	569.165441709158	372
4	1680	573.459265226413	369
4	1682	574.303659629216	370
4	1685	574.741271950455	370
4	1687	576.293342547187	371
4	1690	577.197189751566	371
4	1692	578.914242531679	372
4	1694	580.50266214306	373
4	1696	580.627534009915	374
4	1698	580.912368747422	375
4	1700	580.927034526601	376
4	1703	581.191058266428	376
4	1705	581.755557369728	377
4	1708	583.529931969782	377
4	1711	584.614520860383	377
4	1716	587.713979755085	375
4	1718	588.48425980724	376
4	1720	588.596510753966	377
4	1722	588.680651523331	378
4	1724	588.933648542688	379
4	1727	589.97988356022	379
4	1730	590.630111617688	379
4	1732	591.087851050508	380
4	1734	591.205342744987	381
4	1739	592.022997871633	381
4	1741	592.432127155915	382
4	1745	593.476537727124	381
4	1747	594.031373312886	382
4	1750	594.622799038595	382
4	1752	594.998894519932	383
4	1756	596.42403586708	382
4	1758	596.496028582521	383
4	1760	597.521101281109	384
4	1762	598.619028105943	385
4	1764	599.137390013969	386
4	1766	600.800161315078	387
4	1768	601.063680695155	388
4	1771	601.49297149197	388
4	1773	602.261897632948	389
4	1776	603.196757838085	389
4	1778	603.543167983724	390
4	1780	604.650749118269	391
4	1783	605.369549538914	391
4	1786	606.513748239984	391
4	1790	606.990512458998	392
4	1794	609.953430429584	391
4	1796	612.191456048881	392
4	1798	612.258569780984	393
4	1800	612.776412866347	394
4	1802	613.511865736802	395
4	1804	613.597938028529	396
4	1806	614.282018877499	397
4	1808	614.793905541815	398
4	1817	618.291569680544	396
4	1820	621.52795978489	396
4	1825	623.533694256312	396
4	1827	623.940635034694	397
4	1830	625.445923582565	397
4	1832	626.816352287305	398
4	1834	627.354052133729	399
4	1838	627.983237915532	400
4	1842	628.864402141113	399
4	1846	629.317645000651	398
4	1850	630.219426318299	397
4	1852	630.461111191537	398
4	1854	631.038967940145	399
4	1856	632.062725517311	400
4	1859	634.791270855087	400
4	1861	635.692114955524	401
4	1864	636.785142991357	401
4	1866	636.954544725128	402
4	1868	637.796211413939	403
4	1872	639.587424166082	402
4	1874	639.607797090669	403
4	1876	640.115961385538	404
4	1880	642.488649725981	403
4	1882	642.617777923065	404
4	1884	643.06921023278	405
4	1887	643.882882516626	405
4	1889	644.56353526263	406
4	1893	645.55720972825	405
4	1895	646.799446557091	406
4	1897	647.795039387347	407
4	1901	650.824433875133	408
4	1903	651.02137230517	409
4	1905	651.156573230182	410
4	1907	651.290922193017	411
4	1909	651.606263371161	412
4	1911	652.243838895136	413
4	1913	652.638825675478	414
4	1915	652.878468146397	415
4	1919	653.097215213598	416
4	1922	654.474749742857	416
4	1924	655.974959978735	417
4	1926	656.038930869394	418
4	1928	656.458798386084	419
4	1930	657.638666727639	420
4	1932	659.301590227143	421
4	1934	660.408811316731	422
4	1938	661.952704253222	423
4	1941	664.125958158641	423
4	1950	671.277944000184	419
4	1952	671.357745295425	420
4	1954	672.819023177566	421
4	1956	673.046466721105	422
4	1958	673.13633460417	423
4	1960	674.207297442372	424
4	1962	674.242250755264	425
4	1965	675.196097762609	425
4	1967	675.393106675883	426
4	1969	676.799224540355	427
4	1971	677.453990833405	428
4	1973	677.591497209388	429
4	1975	678.488589247138	430
4	1977	678.765216600153	431
4	1981	682.053290073631	430
4	1984	683.40822046872	430
4	1986	683.893167553884	431
4	1989	684.455285815913	431
4	1991	684.46764178287	432
4	1993	684.630999595094	433
4	1995	685.441295435851	434
4	1997	685.745638262088	435
4	1999	686.523141531813	436
4	2003	687.752826646655	437
4	2005	688.090302998599	438
4	2007	688.133052536633	439
4	2009	688.472442671931	440
4	2011	689.317648810091	441
4	2013	689.603475387018	442
4	2015	689.755516310346	443
4	2021	690.187839307829	444
4	2024	691.027245604331	444
4	2027	691.525249478579	444
4	2033	694.263379449322	443
4	2035	695.04231220884	444
4	2039	696.186789559005	443
4	2042	697.085785834602	443
4	2044	698.125340172819	444
4	2046	698.913705939242	445
4	2048	700.981346728341	446
4	2050	702.357502702834	447
4	2053	702.819919955039	447
4	2055	703.473665955096	448
4	2057	703.475766978778	449
4	2060	705.313042354789	449
4	2062	706.440913376215	450
4	2064	706.481722238242	451
4	2066	706.493422753798	452
4	2068	706.568297932583	453
4	2070	707.031791981694	454
4	2072	708.487298543597	455
4	2074	708.71800488245	456
4	2076	709.110736030914	457
4	2078	709.112320096237	458
4	2080	709.590259055407	459
4	2082	711.295630509737	460
4	2084	711.536008674743	461
4	2087	712.591499800492	461
4	2091	713.121716934247	462
4	2093	713.191872275268	463
4	2096	714.458544534197	463
4	2098	714.554033655308	464
4	2100	715.408378354035	465
4	2102	715.554339493385	466
4	2104	716.179164901465	467
4	2106	716.751176535456	468
4	2108	717.990382911006	469
4	2110	718.190171735292	470
4	2113	720.521898520267	470
4	2115	720.932258126418	471
4	2118	722.337726755479	471
4	2120	722.760829644111	472
4	2124	724.425550522008	471
4	2126	724.892382453675	472
4	2129	727.70881869222	472
4	2131	728.889703642234	473
4	2133	728.965732383107	474
4	2136	732.743142567911	474
4	2138	733.947305647743	475
4	2142	736.373232595254	476
4	2147	737.136896248121	474
4	2149	738.778432868599	475
4	2151	739.012539993538	476
4	2153	739.733883446851	477
4	2157	743.413567726456	476
4	2160	746.742478707494	476
4	2162	747.293453144551	477
4	2164	748.10916665855	478
4	2168	751.213199331618	477
4	2171	752.197528607638	477
4	2174	752.486558044196	477
4	2176	752.6904499809	478
4	2179	754.622234587277	478
4	2181	755.028356790732	479
4	2183	755.230109876227	480
4	2185	755.369300498556	481
4	2187	755.449732502111	482
4	2191	756.349531633965	483
4	2193	756.367210625181	484
4	2196	757.458896514617	484
4	2198	757.647715260046	485
4	2201	757.824669910745	485
4	2204	759.341185335839	485
4	2206	760.997468499444	486
4	2209	761.645976891782	486
4	2211	761.654482314218	487
4	2213	762.520327490582	488
4	2215	763.006408501252	489
4	2217	763.31446374423	490
4	2221	766.063542834715	489
4	2225	767.429969577556	488
4	2227	770.536538361578	489
4	2230	771.912104903568	489
4	2232	771.94699742414	490
4	2234	772.365102895942	491
4	2236	774.074164436004	492
4	2238	775.440821211506	493
4	2240	775.977806541093	494
4	2243	777.560076355634	494
4	2248	782.541622499152	494
4	2251	785.054152247814	494
4	2253	785.864770599929	495
4	2255	786.315894930411	496
4	2257	786.684078858902	497
4	2262	790.347911060801	495
4	2264	790.446207099601	496
4	2266	790.457041018772	497
4	2270	791.106248452751	498
4	2273	792.176245320524	498
4	2275	792.387186965605	499
4	2282	794.36022633446	499
4	2284	794.57135874133	500
4	2286	794.577193618304	501
4	2288	795.611402547278	502
4	2290	795.710484898589	503
4	2292	797.12228536675	504
4	2294	797.274924995126	505
4	2299	802.121935755722	505
4	2301	802.535318746888	506
4	2303	803.139247462973	507
4	2305	805.143809651239	508
4	2307	805.487154630842	509
4	2309	807.055294862992	510
4	2312	807.415884221824	510
4	2314	807.695514279475	511
4	2322	812.115035703435	510
4	2325	812.693352637106	510
4	2327	813.077025829973	511
4	2329	813.706537447846	512
4	2331	814.381740868474	513
4	2333	814.874710277394	514
4	2335	815.493178842406	515
4	2337	817.912864437137	516
4	2340	818.00966656766	516
4	2342	818.082287039243	517
4	2344	818.138964565517	518
4	2347	819.822582444791	518
4	2349	820.300977408126	519
4	2351	820.624135879771	520
4	2353	822.085821054071	521
4	2356	825.771203881472	521
4	2358	826.362420375834	522
4	2360	827.808980858086	523
4	2363	828.509516945587	523
4	2365	828.635969447387	524
4	2372	831.17766064197	524
4	2375	832.285411108345	524
4	2378	832.975811431225	524
4	2380	833.184431484561	525
4	2382	833.186345253538	526
4	2384	833.202488803281	527
4	2390	835.488647732381	524
4	2392	835.797473652633	525
4	2394	837.204219737856	526
4	2396	837.703912711481	527
4	2398	838.092616452592	528
4	2400	838.351368608807	529
4	2402	839.112836528165	530
4	2409	843.54640311441	528
4	2412	844.065273192852	528
4	2414	844.372629751178	529
4	2416	844.510288662272	530
4	2418	844.774218121623	531
4	2420	845.045019328725	532
4	2424	846.407465877896	531
4	2427	847.109428083026	531
4	2430	849.092999988656	531
4	2433	850.58269134015	531
4	2435	850.946827264264	532
4	2437	851.691254013376	533
4	2442	852.947791147399	533
4	2446	854.630169314487	534
4	2449	855.086615500547	534
4	2451	855.150809187314	535
4	2453	856.715818957194	536
4	2455	856.785693827084	537
4	2459	858.761627781697	536
4	2462	860.487275570764	536
4	2464	861.379116532568	537
4	2466	861.690756552912	538
4	2468	862.221884148446	539
4	2470	862.2402240513	540
4	2473	863.490997723478	540
4	2475	863.884006545781	541
4	2477	865.723806013628	542
4	2479	866.013914202021	543
4	2481	866.294937827846	544
4	2487	868.530404120953	541
4	2490	868.984100352622	541
4	2492	869.01356102647	542
4	2494	869.210682042424	543
4	2497	870.703792956649	543
4	2499	871.105253929453	544
4	2501	872.640399808838	545
4	2503	873.936950369451	546
4	2505	874.480464154116	547
4	2508	875.348217489387	547
4	2510	875.718241425615	548
4	2512	875.939752132354	549
4	2514	877.247659366089	550
4	2516	877.417956598133	551
4	2518	879.744166864686	552
4	2520	879.787051682604	553
4	2523	882.171983553244	553
4	2525	882.492545095036	554
4	2527	883.102126875154	555
4	2530	884.726167247347	555
4	2536	886.994702880822	554
4	2538	888.133319135151	555
4	2540	888.646049691647	556
4	2542	888.734654838827	557
4	2546	889.792211666485	558
4	2548	889.938007218764	559
4	2550	890.050514159075	560
4	2552	890.112860109839	561
4	2554	890.419070109098	562
4	2557	891.621034507931	562
4	2559	891.622172548314	563
4	2561	891.655019687457	564
4	2563	891.67623148072	565
4	2565	893.062176209037	566
4	2567	894.61135611394	567
4	2572	895.961873234849	565
4	2574	896.831086708303	566
4	2576	896.907929945302	567
4	2578	897.012687127968	568
4	2582	899.109899882488	567
4	2584	899.893339265877	568
4	2587	905.88933275955	568
4	2592	908.849861782805	568
4	2594	909.237982432711	569
4	2598	909.777618571542	570
4	2600	909.878167304183	571
4	2602	910.359725106477	572
4	2604	911.658979723933	573
4	2607	912.427409503514	573
4	2611	915.228720630957	572
4	2614	915.470716631935	572
4	2616	915.504955968118	573
4	2618	915.628729722059	574
4	2622	917.424768815845	575
4	2626	918.065358407425	576
4	2628	920.137039078044	577
4	2632	923.555896065389	576
4	2635	924.570533242371	576
4	2637	925.008974534053	577
4	2639	925.366025297082	578
4	2641	925.596776309996	579
4	2643	927.088945308183	580
4	2645	928.06143274347	581
4	2647	929.005256243219	582
4	2649	929.175306394725	583
4	2651	930.051271528565	584
4	2653	930.054669571033	585
4	2656	930.881943036586	585
4	2663	932.339046921383	581
4	2665	932.641511227418	582
4	2671	934.67716132844	581
4	2676	935.329801637556	581
4	2678	935.42700563919	582
4	2680	935.464036047614	583
4	2682	936.360557649988	584
4	2684	938.334622131201	585
4	2688	940.587029671683	584
4	2692	942.732611916608	583
4	2694	943.176698716612	584
4	2698	944.976047999629	585
4	2700	945.068611489141	586
4	2702	945.879231097627	587
4	2707	948.076537033956	585
4	2711	948.60621442249	584
4	2717	949.260716913971	585
4	2719	949.486123075716	586
4	2721	949.850145280996	587
4	2724	951.34946448765	587
4	2726	951.37907957287	588
4	2728	951.442215056796	589
4	2730	952.67645354597	590
4	2732	953.334479129302	591
4	2735	953.69559138955	591
4	2737	953.751571074551	592
4	2739	954.234375839443	593
4	2742	956.236191934401	593
4	2745	957.848081073566	593
4	2749	958.784586061124	592
4	2752	960.428268195306	592
4	2754	960.692237311316	593
4	2756	961.30301747203	594
4	2759	961.915808039332	594
4	2762	963.878505255151	594
4	2764	965.039559768953	595
4	2766	965.462729334606	596
4	2768	965.466935738462	597
4	2770	966.950391439942	598
4	2772	967.23356312399	599
4	2774	968.449221393205	600
4	2779	969.176352479938	598
4	2783	971.610122051802	597
4	2791	974.311985046249	596
4	2793	975.468608702791	597
4	2795	975.817684670577	598
4	2797	975.984554665418	599
4	2799	976.097695845387	600
4	2802	976.437621459792	600
4	2804	976.527339205491	601
4	2807	976.760393263067	601
4	2810	978.534701514082	601
4	2814	979.050208941974	600
4	2818	980.456275032583	601
4	2820	980.792163778074	602
4	2823	981.241965006348	602
4	2827	982.89950042123	601
4	2831	985.15067703479	600
4	2834	986.16307969717	600
4	2842	988.919889803065	599
4	2849	994.923959493825	597
4	2851	995.014023619959	598
4	2855	996.659936633438	597
4	2857	996.943062700571	598
4	2859	997.113504087169	599
4	2862	997.628301493495	599
4	2864	998.583966142251	600
4	2866	999.339381826427	601
5	0	0	0
5	2	0.088423862612	0
5	4	0.118665423084	1
5	8	1.19141676843	2
5	10	1.430789829901	3
5	12	1.963941458003	4
5	13	2.432209060441	4
5	14	6.548833567105	3
5	16	6.553998233075	3
5	17	6.761434580967	3
5	19	7.784213278328	3
5	21	8.85172580134	4
5	23	8.873009613549	5
5	25	9.730372275742	6
5	26	11.455116111711	6
5	28	11.499376814781	6
5	30	11.663011340123	7
5	31	12.073977886286	7
5	33	13.942190688451	7
5	34	14.299266429729	7
5	36	14.941673011914	7
5	38	15.497597905518	8
5	40	18.015818149528	9
5	43	18.464975680971	9
5	45	18.667764869868	9
5	47	18.959267363799	10
5	49	19.913863715861	11
5	51	20.913418953468	12
5	52	21.320689549518	12
5	54	22.098973651564	12
5	56	22.489697072373	13
5	58	22.937920475054	14
5	60	23.128081583382	15
5	62	23.583454642773	16
5	63	23.78632686305	16
5	64	24.505517898333	15
5	68	28.425050459007	15
5	69	28.485469382005	15
5	70	28.487039127862	14
5	72	29.559668527162	14
5	74	31.222929532464	15
5	76	31.500469117254	16
5	77	31.818330905033	16
5	78	33.104900583476	15
5	80	33.374770103247	15
5	82	33.749063967134	16
5	85	34.962894602699	16
5	87	36.230019557335	16
5	91	37.381224121446	17
5	92	37.45846788938	17
5	94	38.499008548423	17
5	96	40.591539096739	18
5	98	40.667643604496	19
5	100	40.886023777138	20
5	102	41.365422805529	21
5	103	41.65992837951	21
5	105	41.903782691589	21
5	106	42.997388614686	21
5	108	43.173336390549	21
5	110	43.228175203392	22
5	111	43.659009158819	22
5	115	44.0363764977	22
5	117	44.133709146177	23
5	121	45.079589853484	24
5	122	45.164698560394	24
5	124	45.409934646156	24
5	126	45.43028331831	25
5	128	46.187641237757	26
5	129	47.698823755451	26
5	130	47.863738687834	25
5	132	48.022678230138	25
5	133	48.556059310987	25
5	135	48.712753199588	25
5	137	49.559358574695	26
5	138	50.930536652528	26
5	140	51.075231066613	26
5	142	51.622784662155	27
5	144	51.81756290576	28
5	146	52.208199684293	29
5	147	52.220630586026	29
5	149	52.65146112657	29
5	151	53.243081398005	30
5	153	54.038993563938	31
5	155	54.291628163778	32
5	156	55.007412744021	32
5	158	55.498532651685	32
5	160	55.731296109247	33
5	162	56.212372904743	34
5	168	57.245934057797	35
5	170	57.756906346364	36
5	172	57.765963799359	37
5	174	58.234363069964	38
5	176	58.406423970338	39
5	178	58.810263103338	40
5	179	58.895474242835	40
5	181	59.389671102547	40
5	183	60.618940856697	41
5	185	61.079662132587	42
5	186	61.161607493509	42
5	187	62.019692492525	41
5	189	62.131895455831	41
5	191	62.269830906888	42
5	193	63.333700915713	43
5	195	63.683208314297	44
5	197	64.076372810235	45
5	199	64.111879683111	46
5	201	64.562801794952	47
5	203	66.222970722219	48
5	205	67.399503900902	49
5	207	67.706579415697	50
5	209	67.821444280193	51
5	211	68.39075521279	52
5	213	68.572322906136	53
5	215	69.052532394782	54
5	217	70.077739291518	55
5	219	71.350507682679	56
5	221	71.384845003145	57
5	223	71.551982454708	58
5	224	74.216536999757	58
5	225	74.797826787923	57
5	227	75.326967544992	57
5	229	75.431152359553	58
5	230	76.304848669039	58
5	232	77.942540081678	58
5	233	78.223167989671	58
5	235	78.330860130725	58
5	237	79.271481225871	59
5	238	79.373710852229	59
5	239	80.01777781309	58
5	240	81.300861149415	57
5	242	82.425745981637	57
5	243	82.656828720828	57
5	245	82.659315535589	57
5	247	83.278902302836	58
5	249	83.953792996194	59
5	251	84.39197283957	60
5	252	84.43317030901	60
5	254	84.923415256997	60
5	256	85.079929235216	61
5	257	86.588030569208	61
5	259	86.957258581811	61
5	261	87.467516069926	62
5	263	87.733159282027	63
5	265	88.169276606234	64
5	266	88.26870426516	64
5	267	90.903231126273	63
5	270	92.341781746995	62
5	271	92.590266090478	61
5	273	92.601581196417	61
5	275	93.687304198169	62
5	277	95.022787346477	63
5	279	95.474975352081	64
5	280	96.641012845909	64
5	281	97.133003702143	63
5	284	97.569157725747	62
5	285	97.962405232756	61
5	286	98.566196425753	60
5	288	99.770571676106	60
5	290	100.144487902344	61
5	292	100.262393383245	62
5	294	100.565648327706	63
5	298	101.606436965662	64
5	300	103.6275427689	65
5	302	103.6921440783	66
5	304	104.276517143659	67
5	305	104.936401012672	67
5	307	105.320279979781	67
5	309	105.707391612374	68
5	311	106.026591082343	69
5	315	106.55797470603	70
5	316	106.720449288887	70
5	318	106.971337970769	70
5	319	107.951465871464	70
5	321	108.42742087637	70
5	322	109.082918631327	70
5	324	109.410184413152	70
5	326	109.567275728991	71
5	328	109.813551479031	72
5	330	110.638457170476	73
5	332	110.737310974051	74
5	334	111.238670020987	75
5	336	112.549289416841	76
5	338	112.698771518859	77
5	340	113.2814778476	78
5	342	114.257755284199	79
5	344	114.414816278676	80
5	345	115.056979045448	80
5	347	116.171042951741	80
5	349	116.895668731635	81
5	351	117.158170842648	82
5	352	117.72841235367	82
5	354	118.369392064227	82
5	355	118.650413214296	82
5	356	118.670011936044	81
5	357	118.672207647938	80
5	359	118.862599061373	80
5	360	118.885830919067	80
5	362	119.088706347485	80
5	364	119.120741360202	81
5	366	119.7293457886	82
5	368	120.244710025549	83
5	370	120.273640898178	84
5	372	120.664133540643	85
5	374	121.983387784134	86
5	376	122.321746455774	87
5	377	123.252138505778	87
5	379	123.623201245372	87
5	380	123.83019793844	87
5	382	124.857831677488	87
5	384	126.098223257637	88
5	389	127.401952320454	88
5	391	127.924572134956	88
5	393	128.33072862779	89
5	394	129.00775004938	89
5	396	129.315630092617	89
5	398	130.263223835396	90
5	399	133.446581385181	90
5	401	133.571008112054	90
5	402	133.720012058011	90
5	404	134.328582843511	90
5	406	135.025340060673	91
5	408	135.318154476303	92
5	412	135.558325343766	93
5	414	135.785334704836	94
5	415	136.809784863014	94
5	417	137.12586887845	94
5	419	138.126038668547	95
5	420	139.626870727953	95
5	421	139.726117398276	94
5	422	140.620793811304	93
5	424	140.762282012787	93
5	426	141.060743139554	94
5	428	141.246528731452	95
5	430	143.134301170241	96
5	432	144.015300748267	97
5	434	144.219694102967	98
5	436	144.75230865914	99
5	438	145.475946754689	100
5	439	145.616318526657	100
5	441	145.674418964342	100
5	442	145.810985626196	100
5	444	146.398330016433	100
5	446	148.147546781584	101
5	448	148.638836329773	102
5	450	149.459578056413	103
5	452	150.107456484397	104
5	453	150.220729120672	104
5	455	150.373637082269	104
5	456	150.662296273872	104
5	458	150.712382297881	104
5	459	151.384016207092	104
5	465	152.712917494521	104
5	467	153.258323599172	105
5	469	154.230227467652	106
5	471	154.321276749202	107
5	473	154.752994378087	108
5	475	156.406564041244	109
5	477	156.768212827613	110
5	481	158.575314000085	111
5	483	159.336908167793	112
5	485	159.693361406433	113
5	487	160.232031741216	114
5	489	160.409541106663	115
5	491	161.16389466793	116
5	493	161.855954431192	117
5	495	162.884067551302	118
5	496	162.928863762824	118
5	498	163.546902963288	118
5	500	165.152967715698	119
5	501	165.168447083149	119
5	502	166.220542620123	118
5	503	166.996564016327	117
5	504	167.482887478843	116
5	505	168.142393335619	115
5	506	168.244416288581	114
5	508	168.385087055236	114
5	509	168.820582240027	114
5	511	168.882720473931	114
5	513	169.911191825463	115
5	515	169.924288506368	116
5	517	170.695975125651	117
5	519	170.73815173405	118
5	520	171.503298456638	118
5	524	171.973321164414	118
5	525	172.555051846835	118
5	526	172.737498033784	117
5	528	173.048775157314	117
5	529	173.403574125193	117
5	530	173.765739554894	116
5	531	174.291306120103	115
5	533	174.459994473729	115
5	534	174.907242453878	115
5	536	175.222576193165	115
5	538	175.605863957811	116
5	540	175.642725375572	117
5	542	175.822931279955	118
5	544	175.829878712737	119
5	546	176.23005286236	120
5	548	176.308906488313	121
5	552	176.705541458776	122
5	554	177.002506479073	123
5	556	177.152816452244	124
5	558	178.010165448036	125
5	559	178.082076185084	125
5	561	179.182990988059	125
5	563	179.980342505503	126
5	565	180.030136719574	127
5	567	180.71570645606	128
5	568	181.086053014492	128
5	570	181.436323368229	128
5	571	181.968669147906	128
5	573	182.108464408462	128
5	575	182.312739814335	129
5	576	183.33369253957	129
5	578	183.938089088998	129
5	580	184.136360250277	130
5	582	185.718421863666	131
5	584	185.743453736946	132
5	586	187.261794670011	133
5	590	188.166256833227	134
5	591	188.366532016592	134
5	592	189.11742574856	133
5	594	189.804457122571	133
5	596	189.897676013261	134
5	598	192.726391233083	135
5	600	192.766132260159	136
5	602	195.753600646899	137
5	603	196.044692310833	137
5	605	196.569273399855	137
5	607	196.715323510583	138
5	608	197.891556648261	138
5	609	198.578877779109	137
5	611	199.037033520182	137
5	612	199.250046490859	137
5	614	199.809182121274	137
5	616	200.68561092917	138
5	618	201.679036021522	139
5	622	201.828956533285	140
5	623	202.170729265897	140
5	625	203.424567915625	140
5	627	204.711389157864	141
5	629	205.08783466737	142
5	631	205.184652459924	143
5	633	205.203696318384	144
5	635	205.537854572591	145
5	637	206.232316175405	146
5	639	207.847025788425	147
5	640	207.97529833491	147
5	641	207.990465470775	146
5	643	208.170313578916	146
5	644	208.781160750815	146
5	648	209.885278401991	146
5	650	209.90444211058	147
5	652	210.218404843422	148
5	653	212.311680537171	148
5	655	212.424799444426	148
5	656	213.139975279305	148
5	658	213.255998481178	148
5	660	214.526464349606	149
5	662	215.150508097802	150
5	664	215.588278192732	151
5	666	215.901771571792	152
5	668	215.915072759283	153
5	670	215.93275056653	154
5	674	217.208332299526	155
5	675	217.305844090845	155
5	676	217.378593117415	154
5	678	218.426876764244	154
5	679	219.041767558206	154
5	683	221.591777339244	154
5	685	221.840966900231	155
5	686	221.869242217251	155
5	688	222.58701924133	155
5	690	223.330528669721	156
5	692	223.527100013733	157
5	694	223.739727733272	158
5	696	224.183804575919	159
5	697	224.31686705486	159
5	699	224.317691082621	159
5	701	224.830403233143	160
5	703	225.508645682907	161
5	705	225.691159959155	162
5	707	226.566137862469	163
5	709	227.723193714883	164
5	713	228.863915204355	165
5	714	229.26531998043	165
5	716	230.060608614535	165
5	717	230.169217625787	165
5	721	230.300549046631	165
5	722	231.089624253842	165
5	723	231.50125974656	164
5	724	231.791961867161	163
5	725	232.145924685838	162
5	726	232.605104458812	161
5	728	233.292529121245	161
5	730	233.480856067645	162
5	732	233.938684652883	163
5	734	234.353790603501	164
5	735	236.329454082209	164
5	737	236.45376438355	164
5	739	236.921142247122	165
5	741	238.162380720113	166
5	743	239.521402348992	167
5	744	240.160620499266	167
5	746	240.495088217013	167
5	748	240.590737441943	168
5	750	240.601320772976	169
5	752	242.296314000141	170
5	753	242.462129917256	170
5	754	242.991346199039	169
5	755	243.856939740362	168
5	757	244.980737792809	168
5	758	245.762372703707	168
5	759	245.916432171954	167
5	761	246.294531828902	167
5	763	246.365414736564	168
5	765	246.957791263129	169
5	766	247.007640304521	169
5	768	247.356707560681	169
5	770	247.800198919502	170
5	772	248.530833846918	171
5	774	249.484578752236	172
5	776	250.267823618532	173
5	778	251.70125615254	174
5	779	252.141490044341	174
5	781	254.080336633792	174
5	783	254.103317444643	175
5	785	254.554350873147	176
5	787	256.363498495286	177
5	788	257.402889195117	177
5	789	257.614210475977	176
5	791	257.64763528827	176
5	792	258.007568920628	176
5	794	258.290659181134	176
5	796	259.322577942065	177
5	798	260.372972553138	178
5	800	260.41261298052	179
5	801	260.713337255073	179
5	803	260.741662887798	179
5	805	260.78193263641	180
5	809	261.369530174102	181
5	810	261.540231856383	181
5	812	263.318308727084	181
5	814	263.494810109576	182
5	816	264.048677298272	183
5	818	264.182719022484	184
5	819	264.288759535291	184
5	820	264.607898359426	183
5	822	264.655327609717	183
5	824	264.795673929514	184
5	826	265.504676445599	185
5	827	265.679892288634	185
5	828	266.497535110732	184
5	830	268.932047249887	184
5	831	269.279992948877	184
5	835	269.744949155735	184
5	837	270.304762317095	185
5	839	270.725711753552	186
5	841	270.995595318584	187
5	843	272.22889946146	188
5	845	272.756237214972	189
5	849	274.775631760193	190
5	851	275.138714071762	191
5	853	276.812282610883	192
5	854	277.136464010042	192
5	855	278.219484053938	191
5	856	280.059575327455	190
5	858	280.354492161264	190
5	860	281.093368426739	191
5	861	281.84709305285	191
5	863	282.294356135965	191
5	865	282.635842437409	192
5	867	283.180572541977	193
5	869	285.800455885065	194
5	871	287.212809793204	195
5	873	288.563364370801	196
5	875	288.669276868974	197
5	876	289.086657923135	197
5	880	289.700151296079	197
5	881	290.335838756213	197
5	882	292.09896332234	196
5	883	292.604321406811	195
5	885	293.907304423477	195
5	887	294.461848098031	196
5	889	294.726863904674	197
5	893	294.740537952598	198
5	895	295.182427008068	199
5	897	295.827365123193	200
5	899	296.865804158881	201
5	900	297.852501023174	201
5	902	298.314245728072	201
5	904	299.14942738694	202
5	906	301.037292397171	203
5	907	301.20516352407	203
5	909	301.265639993016	203
5	913	302.141813537813	204
5	915	303.67860656407	205
5	917	304.194219865779	206
5	919	304.330846821755	207
5	921	304.606015123293	208
5	922	304.655993389673	208
5	923	306.719999788911	207
5	925	306.980787023874	207
5	930	310.222076027977	207
5	932	310.32753829482	207
5	933	310.954414592619	207
5	935	311.222789047636	207
5	937	311.764545118018	208
5	939	312.088216839393	209
5	942	312.409812762412	209
5	944	312.798072440721	209
5	946	313.669606696104	210
5	948	314.690530631548	211
5	950	315.193749529168	212
5	952	315.326797495183	213
5	954	316.437996731032	214
5	956	317.368397997327	215
5	958	319.076000930068	216
5	960	320.102924132663	217
5	961	320.359250772788	217
5	965	320.808299638341	217
5	967	321.150946732701	218
5	969	321.592307590676	219
5	971	321.758427457602	220
5	973	321.826705440438	221
5	975	321.853097265605	222
5	977	322.576737048631	223
5	979	323.095808791313	224
5	981	323.505781452758	225
5	983	323.854503487225	226
5	985	324.014888487601	227
5	987	324.960410760283	228
5	989	325.14036671484	229
5	991	325.29177365684	230
5	993	327.14677073279	231
5	995	327.358944563318	232
5	997	327.60376887256	233
5	1001	328.988867507605	234
5	1003	331.360637356981	235
5	1004	332.164708387529	235
5	1006	332.407395777938	235
5	1007	332.884547223609	235
5	1011	334.349844988989	235
5	1013	334.424638600015	236
5	1015	335.197531622645	237
5	1017	335.320084385554	238
5	1019	335.462665087905	239
5	1020	336.868187797759	239
5	1022	337.350031685868	239
5	1023	338.335054320957	239
5	1024	339.329916943175	238
5	1026	340.397836670375	238
5	1028	341.370430767058	239
5	1029	342.364196843215	239
5	1031	342.578651054451	239
5	1032	343.672954377316	239
5	1034	344.557746873835	239
5	1035	345.440141045219	239
5	1041	348.226215193921	239
5	1043	348.530702686148	240
5	1044	349.578736745805	240
5	1046	350.473359720087	240
5	1047	350.937109748025	240
5	1048	351.157984895922	239
5	1049	351.646770311262	238
5	1050	351.72484908792	237
5	1051	352.500655713743	236
5	1052	352.564882940885	235
5	1054	353.389698728367	235
5	1056	353.720508580695	236
5	1057	353.86388043144	236
5	1058	354.340121999385	235
5	1059	355.151566719452	234
5	1061	357.783420164565	234
5	1063	359.735814660988	235
5	1065	360.561187925706	236
5	1066	361.349818530163	236
5	1068	361.672877884043	236
5	1070	361.723084139647	237
5	1072	362.467392832605	238
5	1074	363.252997875543	239
5	1075	363.304482153066	239
5	1077	363.534959592404	239
5	1079	363.628983599778	240
5	1081	364.162628028063	241
5	1083	366.826406222722	242
5	1085	371.735439908862	243
5	1087	371.827787220241	244
5	1089	371.875553104981	245
5	1091	372.331164301677	246
5	1093	372.866355985233	247
5	1094	373.27708318533	247
5	1095	373.363537025277	246
5	1099	374.112464734354	246
5	1100	374.127339085083	246
5	1102	374.549137477724	246
5	1104	375.582932173386	247
5	1106	376.577976826215	248
5	1107	377.148840552521	248
5	1109	379.484566258955	248
5	1111	379.540242903959	249
5	1112	379.99141170156	249
5	1115	381.234062917255	248
5	1117	382.582800285701	248
5	1119	384.636312610536	249
5	1121	385.820109781474	250
5	1122	387.890441350436	250
5	1124	388.312528994647	250
5	1125	389.459604421201	250
5	1127	389.906418593449	250
5	1128	390.236515254745	250
5	1132	391.046701661957	250
5	1134	391.491208230893	251
5	1136	392.737749019914	252
5	1137	392.99489111542	252
5	1139	393.657250899295	252
5	1141	393.89575095473	253
5	1142	393.972214462915	253
5	1144	394.235808988724	253
5	1145	394.839036448958	253
5	1147	395.476434925739	253
5	1150	395.743653782058	253
5	1151	396.493528500137	252
5	1153	397.421097372514	252
5	1155	399.137167510142	253
5	1157	399.462473734118	254
5	1159	400.38606394208	255
5	1161	401.683590505207	256
5	1163	402.176767615873	257
5	1165	402.944430241961	258
5	1167	403.544408443081	259
5	1169	405.441245143315	260
5	1175	406.5703239084	261
5	1177	406.693300214626	262
5	1179	407.145806968936	263
5	1181	408.786707795344	264
5	1183	408.837832714218	265
5	1185	408.899415479076	266
5	1187	409.943137456451	267
5	1188	410.452337967638	267
5	1190	411.862936673235	267
5	1192	412.102038019341	268
5	1196	412.39131324876	269
5	1197	412.913319698674	269
5	1198	412.943068493205	268
5	1199	413.685106493695	267
5	1201	413.995582632241	267
5	1203	415.254182299735	268
5	1205	415.674392440233	269
5	1207	416.035530270723	270
5	1209	417.377759474852	271
5	1211	418.330758054514	272
5	1213	418.790042339195	273
5	1214	419.120238198073	273
5	1216	419.768542662594	273
5	1218	420.222053995042	274
5	1220	420.255331778091	275
5	1222	420.86162747393	276
5	1223	422.130540403473	276
5	1225	423.342303736673	276
5	1227	423.752236785988	277
5	1229	423.801195418098	278
5	1231	424.136721471628	279
5	1233	424.250336721094	280
5	1235	425.454109711344	281
5	1236	425.486887734296	281
5	1237	425.56450323854	280
5	1238	426.212957327133	279
5	1240	426.322510706865	279
5	1244	427.036177157215	280
5	1246	427.108377749687	281
5	1248	427.3515989276	282
5	1250	427.599636935158	283
5	1252	428.629451578469	284
5	1254	428.83921370704	285
5	1255	428.880841139157	285
5	1257	429.528317852486	285
5	1259	429.922410945868	286
5	1260	430.120135255701	286
5	1262	430.474463854659	286
5	1264	430.834203270188	287
5	1266	431.328187303256	288
5	1268	431.49341437878	289
5	1269	431.607109412902	289
5	1271	431.96090991315	289
5	1272	434.060546873719	289
5	1274	434.121874709672	289
5	1275	434.17257325998	289
5	1276	434.964596327789	288
5	1278	435.242794374662	288
5	1279	437.063247361167	288
5	1281	437.247276279582	288
5	1283	437.6615187883	289
5	1284	437.699154274133	289
5	1285	438.799091641061	288
5	1287	439.111777565497	288
5	1288	442.304875568742	288
5	1289	445.045911805192	287
5	1291	446.631499581453	287
5	1293	446.956666823819	288
5	1294	447.798606138313	288
5	1297	448.262200230397	287
5	1301	449.185692229897	287
5	1303	450.732275926159	288
5	1305	451.434478327935	289
5	1306	452.309425238437	289
5	1308	452.389727883541	289
5	1309	452.722783296391	289
5	1311	452.880932381178	289
5	1313	453.325417826587	290
5	1314	454.255717221587	290
5	1316	454.437699574645	290
5	1317	454.478370434321	290
5	1318	454.794119759249	289
5	1319	454.807916681301	288
5	1321	455.235990089431	288
5	1322	455.751957202598	288
5	1323	456.056979824791	287
5	1324	458.211234841761	286
5	1326	458.322375302918	286
5	1328	458.644460959349	287
5	1330	458.790536114963	288
5	1332	458.796453783581	289
5	1334	459.129911491876	290
5	1336	459.322596765306	291
5	1338	459.724059734077	292
5	1342	462.516293619869	293
5	1344	463.10966300255	294
5	1346	463.404435372283	295
5	1347	463.536079803522	295
5	1348	463.553408437374	294
5	1350	463.951755972298	294
5	1352	465.362948473698	295
5	1354	466.166283776177	296
5	1356	466.820744773008	297
5	1358	466.895821700554	298
5	1359	466.940679571118	298
5	1361	467.243170888071	298
5	1363	467.66131935412	299
5	1365	467.683852754461	300
5	1369	468.789130578093	301
5	1370	468.986817816699	301
5	1371	469.197971366524	300
5	1372	470.095038015586	299
5	1374	470.457802471436	299
5	1376	470.694954772441	300
5	1378	471.915222155728	301
5	1380	472.038323649178	302
5	1382	472.466467271732	303
5	1384	473.91707543496	304
5	1386	474.407637536466	305
5	1387	474.60918506813	305
5	1389	475.531750159054	305
5	1391	476.448591149741	306
5	1393	476.962964468568	307
5	1394	477.212974502114	307
5	1396	477.290412185846	307
5	1398	477.682570617108	308
5	1399	479.000890551706	308
5	1401	479.049694818927	308
5	1402	480.303583644245	308
5	1404	480.852252765476	308
5	1406	481.811252414409	309
5	1408	484.283774064371	310
5	1410	484.399651126335	311
5	1412	485.033927096583	312
5	1413	486.781265968677	312
5	1415	486.932432237779	312
5	1417	487.148384678401	313
5	1419	487.614465609323	314
5	1423	488.148640478174	315
5	1425	488.352496097919	316
5	1429	488.972784255795	317
5	1430	490.840123649047	317
5	1432	491.685713179083	317
5	1434	491.896340625988	318
5	1436	492.592381609701	319
5	1438	493.63673878334	320
5	1442	495.874410339519	321
5	1443	496.559906042033	321
5	1445	497.767375427367	321
5	1449	497.828111568518	322
5	1450	498.18972909845	322
5	1451	498.698636698253	321
5	1453	498.874303068346	321
5	1457	498.944996451521	322
5	1458	499.22488986103	322
5	1459	500.136896696731	321
5	1460	500.334092065294	320
5	1462	501.512464716434	320
5	1464	501.587042783588	321
5	1466	501.611612118869	322
5	1468	501.739788184911	323
5	1469	501.820576181245	323
5	1471	502.161105070813	323
5	1473	502.478724144085	324
5	1475	503.289615039355	325
5	1477	505.538472051905	326
5	1478	506.187282439128	326
5	1482	507.288173733751	326
5	1484	507.439361554786	327
5	1486	507.769129371661	328
5	1488	508.119605417144	329
5	1492	509.585428147338	330
5	1493	510.76099393005	330
5	1495	511.019365517325	330
5	1497	511.186171918555	331
5	1500	512.744573638372	331
5	1502	512.999356995314	331
5	1504	513.030857601566	332
5	1506	513.348793080021	333
5	1508	513.520867753242	334
5	1509	514.314701235097	334
5	1511	514.556041263891	334
5	1514	514.971904241045	334
5	1516	515.813810732102	334
5	1517	517.556505758424	334
5	1519	518.105032424758	334
5	1521	518.97706364251	335
5	1523	519.41323207365	336
5	1524	519.556720965516	336
5	1526	520.077959764399	336
5	1528	520.48355822898	337
5	1529	522.53256581744	337
5	1530	522.651488160873	336
5	1531	523.494317014307	335
5	1533	523.513315964592	335
5	1535	523.672522502499	336
5	1537	524.163943908242	337
5	1539	524.288435169785	338
5	1540	524.412950527431	338
5	1542	525.159868428089	338
5	1544	525.223834511643	339
5	1546	526.074584291864	340
5	1548	526.181408125338	341
5	1550	527.710744396811	342
5	1552	528.138012073527	343
5	1553	529.770654018304	343
5	1555	529.8426314804	343
5	1557	531.38359016526	344
5	1559	531.396505504806	345
5	1560	532.365244728645	345
5	1561	532.741391026681	344
5	1562	533.631493771063	343
5	1564	533.736514749902	343
5	1568	534.327723082553	344
5	1570	535.063429312745	345
5	1572	535.145981729031	346
5	1574	535.42186525755	347
5	1576	537.164699423264	348
5	1578	537.209492413508	349
5	1579	537.579167400708	349
5	1581	537.707016500015	349
5	1583	538.773978379555	350
5	1584	539.030327972516	350
5	1586	539.745671541648	350
5	1587	540.046456120856	350
5	1589	541.65370556888	350
5	1591	542.828509555038	351
5	1593	543.268153288101	352
5	1594	543.497760428638	352
5	1595	543.646386906033	351
5	1597	544.762325939606	351
5	1599	545.750257117412	352
5	1601	546.231080784837	353
5	1602	546.637823791002	353
5	1604	546.652631220872	353
5	1605	547.213985366587	353
5	1607	547.315046686351	353
5	1609	547.849733151582	354
5	1611	547.862372239994	355
5	1613	548.293055539407	356
5	1614	549.553857806524	356
5	1616	551.851598305126	356
5	1618	551.971740325729	357
5	1620	554.092756283988	358
5	1622	554.575456003885	359
5	1624	554.5774871494	360
5	1625	555.968419146609	360
5	1627	556.724439250207	360
5	1629	557.503639865359	361
5	1630	557.566391305682	361
5	1631	557.593157735608	360
5	1635	559.614590730989	360
5	1639	559.807041439266	361
5	1641	559.810756182137	362
5	1643	560.231852588059	363
5	1645	560.440813748055	364
5	1646	560.631615690601	364
5	1648	560.679568374504	364
5	1650	561.094848176592	365
5	1652	562.2219037617	366
5	1654	562.223619608026	367
5	1656	562.355938530543	368
5	1657	562.906748301683	368
5	1659	563.389647922605	368
5	1660	564.238848881328	368
5	1661	565.6678534095	367
5	1663	565.704297701937	367
5	1665	566.257630723929	368
5	1667	567.563344291654	369
5	1669	567.645247242057	370
5	1671	568.564889719319	371
5	1672	568.772467960153	371
5	1674	569.165441709158	371
5	1675	571.131420463595	371
5	1676	571.560723264418	370
5	1677	571.637586017315	369
5	1678	571.933352673457	368
5	1680	573.459265226413	368
5	1682	574.303659629216	369
5	1683	574.67848162925	369
5	1685	574.741271950455	369
5	1687	576.293342547187	370
5	1688	576.734366582326	370
5	1690	577.197189751566	370
5	1692	578.914242531679	371
5	1694	580.50266214306	372
5	1696	580.627534009915	373
5	1698	580.912368747422	374
5	1700	580.927034526601	375
5	1701	581.135536110308	375
5	1703	581.191058266428	375
5	1705	581.755557369728	376
5	1706	582.968924828543	376
5	1708	583.529931969782	376
5	1709	583.800221597355	376
5	1711	584.614520860383	376
5	1712	584.700292847078	376
5	1713	585.247922590199	375
5	1714	585.850883449378	374
5	1716	587.713979755085	374
5	1718	588.48425980724	375
5	1720	588.596510753966	376
5	1722	588.680651523331	377
5	1724	588.933648542688	378
5	1725	589.100085542716	378
5	1727	589.97988356022	378
5	1728	590.291046845383	378
5	1730	590.630111617688	378
5	1732	591.087851050508	379
5	1734	591.205342744987	380
5	1737	591.738136534717	380
5	1739	592.022997871633	380
5	1741	592.432127155915	381
5	1742	593.084023421155	381
5	1743	593.402371466976	380
5	1745	593.476537727124	380
5	1747	594.031373312886	381
5	1748	594.033632005645	381
5	1750	594.622799038595	381
5	1752	594.998894519932	382
5	1753	595.012269027436	382
5	1754	596.423693624049	381
5	1756	596.42403586708	381
5	1758	596.496028582521	382
5	1760	597.521101281109	383
5	1762	598.619028105943	384
5	1764	599.137390013969	385
5	1766	600.800161315078	386
5	1768	601.063680695155	387
5	1769	601.206859610438	387
5	1771	601.49297149197	387
5	1773	602.261897632948	388
5	1774	603.127282131819	388
5	1776	603.196757838085	388
5	1778	603.543167983724	389
5	1780	604.650749118269	390
5	1781	604.693373794626	390
5	1783	605.369549538914	390
5	1784	606.49400349524	390
5	1786	606.513748239984	390
5	1790	606.990512458998	391
5	1791	607.04667187065	391
5	1792	609.883879165219	390
5	1794	609.953430429584	390
5	1796	612.191456048881	391
5	1798	612.258569780984	392
5	1800	612.776412866347	393
5	1802	613.511865736802	394
5	1804	613.597938028529	395
5	1806	614.282018877499	396
5	1808	614.793905541815	397
5	1809	615.50648578513	397
5	1812	616.490228156571	396
5	1813	616.738354270731	395
5	1817	618.291569680544	395
5	1818	620.945173312498	395
5	1820	621.52795978489	395
5	1823	623.154947758693	395
5	1825	623.533694256312	395
5	1827	623.940635034694	396
5	1828	624.265038179624	396
5	1830	625.445923582565	396
5	1832	626.816352287305	397
5	1834	627.354052133729	398
5	1838	627.983237915532	399
5	1839	628.394338535794	399
5	1840	628.605105744375	398
5	1842	628.864402141113	398
5	1843	629.078063832432	398
5	1844	629.172840905239	397
5	1846	629.317645000651	397
5	1847	629.991812218628	397
5	1848	630.11132908664	396
5	1850	630.219426318299	396
5	1852	630.461111191537	397
5	1854	631.038967940145	398
5	1856	632.062725517311	399
5	1857	633.514447487772	399
5	1859	634.791270855087	399
5	1861	635.692114955524	400
5	1862	636.196916309914	400
5	1864	636.785142991357	400
5	1866	636.954544725128	401
5	1868	637.796211413939	402
5	1869	637.845395395819	402
5	1870	638.437373648551	401
5	1872	639.587424166082	401
5	1874	639.607797090669	402
5	1876	640.115961385538	403
5	1877	641.800744508149	403
5	1878	641.934357513011	402
5	1880	642.488649725981	402
5	1882	642.617777923065	403
5	1884	643.06921023278	404
5	1885	643.850427844424	404
5	1887	643.882882516626	404
5	1889	644.56353526263	405
5	1890	644.660421798884	405
5	1891	645.527309981217	404
5	1893	645.55720972825	404
5	1895	646.799446557091	405
5	1897	647.795039387347	406
5	1901	650.824433875133	407
5	1903	651.02137230517	408
5	1905	651.156573230182	409
5	1907	651.290922193017	410
5	1909	651.606263371161	411
5	1911	652.243838895136	412
5	1913	652.638825675478	413
5	1915	652.878468146397	414
5	1919	653.097215213598	415
5	1920	653.292005554622	415
5	1922	654.474749742857	415
5	1924	655.974959978735	416
5	1926	656.038930869394	417
5	1928	656.458798386084	418
5	1930	657.638666727639	419
5	1932	659.301590227143	420
5	1934	660.408811316731	421
5	1938	661.952704253222	422
5	1939	663.482990469759	422
5	1941	664.125958158641	422
5	1944	666.094926386537	422
5	1945	667.126944653645	421
5	1946	668.452560237406	420
5	1947	669.551593589385	419
5	1948	670.64485903951	418
5	1950	671.277944000184	418
5	1952	671.357745295425	419
5	1954	672.819023177566	420
5	1956	673.046466721105	421
5	1958	673.13633460417	422
5	1960	674.207297442372	423
5	1962	674.242250755264	424
5	1963	674.70491873081	424
5	1965	675.196097762609	424
5	1967	675.393106675883	425
5	1969	676.799224540355	426
5	1971	677.453990833405	427
5	1973	677.591497209388	428
5	1975	678.488589247138	429
5	1977	678.765216600153	430
5	1978	679.90787219302	430
5	1979	680.176955707472	429
5	1981	682.053290073631	429
5	1982	682.2380829766	429
5	1984	683.40822046872	429
5	1986	683.893167553884	430
5	1987	684.215324618106	430
5	1989	684.455285815913	430
5	1991	684.46764178287	431
5	1993	684.630999595094	432
5	1995	685.441295435851	433
5	1997	685.745638262088	434
5	1999	686.523141531813	435
5	2003	687.752826646655	436
5	2005	688.090302998599	437
5	2007	688.133052536633	438
5	2009	688.472442671931	439
5	2011	689.317648810091	440
5	2013	689.603475387018	441
5	2015	689.755516310346	442
5	2021	690.187839307829	443
5	2022	691.015240915643	443
5	2024	691.027245604331	443
5	2025	691.414436661759	443
5	2027	691.525249478579	443
5	2028	691.965007986658	443
5	2029	692.276660978837	442
5	2033	694.263379449322	442
5	2035	695.04231220884	443
5	2036	695.698962231962	443
5	2037	696.081352323461	442
5	2039	696.186789559005	442
5	2040	696.853900869516	442
5	2042	697.085785834602	442
5	2044	698.125340172819	443
5	2046	698.913705939242	444
5	2048	700.981346728341	445
5	2050	702.357502702834	446
5	2051	702.655742619139	446
5	2053	702.819919955039	446
5	2055	703.473665955096	447
5	2057	703.475766978778	448
5	2058	704.475608672876	448
5	2060	705.313042354789	448
5	2062	706.440913376215	449
5	2064	706.481722238242	450
5	2066	706.493422753798	451
5	2068	706.568297932583	452
5	2070	707.031791981694	453
5	2072	708.487298543597	454
5	2074	708.71800488245	455
5	2076	709.110736030914	456
5	2078	709.112320096237	457
5	2080	709.590259055407	458
5	2082	711.295630509737	459
5	2084	711.536008674743	460
5	2085	712.525345496879	460
5	2087	712.591499800492	460
5	2091	713.121716934247	461
5	2093	713.191872275268	462
5	2094	713.355316485022	462
5	2096	714.458544534197	462
5	2098	714.554033655308	463
5	2100	715.408378354035	464
5	2102	715.554339493385	465
5	2104	716.179164901465	466
5	2106	716.751176535456	467
5	2108	717.990382911006	468
5	2110	718.190171735292	469
5	2111	719.593486808483	469
5	2113	720.521898520267	469
5	2115	720.932258126418	470
5	2116	721.734563319961	470
5	2118	722.337726755479	470
5	2120	722.760829644111	471
5	2121	723.718564528103	471
5	2122	723.764256587651	470
5	2124	724.425550522008	470
5	2126	724.892382453675	471
5	2127	726.468904137642	471
5	2129	727.70881869222	471
5	2131	728.889703642234	472
5	2133	728.965732383107	473
5	2134	730.349800738177	473
5	2136	732.743142567911	473
5	2138	733.947305647743	474
5	2142	736.373232595254	475
5	2143	736.569037169412	475
5	2144	736.640145452637	474
5	2145	737.048035863076	473
5	2147	737.136896248121	473
5	2149	738.778432868599	474
5	2151	739.012539993538	475
5	2153	739.733883446851	476
5	2154	741.09608786434	476
5	2155	742.675817977718	475
5	2157	743.413567726456	475
5	2158	746.314891051272	475
5	2160	746.742478707494	475
5	2162	747.293453144551	476
5	2164	748.10916665855	477
5	2165	749.492438856322	477
5	2166	749.676194486894	476
5	2168	751.213199331618	476
5	2169	751.649190890696	476
5	2171	752.197528607638	476
5	2172	752.486250242203	476
5	2174	752.486558044196	476
5	2176	752.6904499809	477
5	2177	753.66119531648	477
5	2179	754.622234587277	477
5	2181	755.028356790732	478
5	2183	755.230109876227	479
5	2185	755.369300498556	480
5	2187	755.449732502111	481
5	2191	756.349531633965	482
5	2193	756.367210625181	483
5	2194	756.380376112997	483
5	2196	757.458896514617	483
5	2198	757.647715260046	484
5	2199	757.813077900977	484
5	2201	757.824669910745	484
5	2202	758.209798296717	484
5	2204	759.341185335839	484
5	2206	760.997468499444	485
5	2207	761.067103978928	485
5	2209	761.645976891782	485
5	2211	761.654482314218	486
5	2213	762.520327490582	487
5	2215	763.006408501252	488
5	2217	763.31446374423	489
5	2218	763.392303444341	489
5	2219	764.779273376145	488
5	2221	766.063542834715	488
5	2222	766.755782778898	488
5	2223	767.074599126758	487
5	2225	767.429969577556	487
5	2227	770.536538361578	488
5	2228	770.635597583066	488
5	2230	771.912104903568	488
5	2232	771.94699742414	489
5	2234	772.365102895942	490
5	2236	774.074164436004	491
5	2238	775.440821211506	492
5	2240	775.977806541093	493
5	2241	777.389818774661	493
5	2243	777.560076355634	493
5	2246	778.667568668846	493
5	2248	782.541622499152	493
5	2249	783.605997844455	493
5	2251	785.054152247814	493
5	2253	785.864770599929	494
5	2255	786.315894930411	495
5	2257	786.684078858902	496
5	2258	787.468477051849	496
5	2259	788.017885976687	495
5	2260	790.340202861398	494
5	2262	790.347911060801	494
5	2264	790.446207099601	495
5	2266	790.457041018772	496
5	2270	791.106248452751	497
5	2271	791.230093095927	497
5	2273	792.176245320524	497
5	2275	792.387186965605	498
5	2276	792.621639695022	498
5	2282	794.36022633446	498
5	2284	794.57135874133	499
5	2286	794.577193618304	500
5	2288	795.611402547278	501
5	2290	795.710484898589	502
5	2292	797.12228536675	503
5	2294	797.274924995126	504
5	2295	800.093705803445	504
5	2299	802.121935755722	504
5	2301	802.535318746888	505
5	2303	803.139247462973	506
5	2305	805.143809651239	507
5	2307	805.487154630842	508
5	2309	807.055294862992	509
5	2310	807.356190085849	509
5	2312	807.415884221824	509
5	2314	807.695514279475	510
5	2315	808.646589063333	510
5	2320	811.251209980982	509
5	2322	812.115035703435	509
5	2323	812.676768507151	509
5	2325	812.693352637106	509
5	2327	813.077025829973	510
5	2329	813.706537447846	511
5	2331	814.381740868474	512
5	2333	814.874710277394	513
5	2335	815.493178842406	514
5	2337	817.912864437137	515
5	2338	818.000563028605	515
5	2340	818.00966656766	515
5	2342	818.082287039243	516
5	2344	818.138964565517	517
5	2345	819.330148745374	517
5	2347	819.822582444791	517
5	2349	820.300977408126	518
5	2351	820.624135879771	519
5	2353	822.085821054071	520
5	2354	822.21544826642	520
5	2356	825.771203881472	520
5	2358	826.362420375834	521
5	2360	827.808980858086	522
5	2361	828.22552792991	522
5	2363	828.509516945587	522
5	2365	828.635969447387	523
5	2366	829.275958741349	523
5	2372	831.17766064197	523
5	2373	831.72084452944	523
5	2375	832.285411108345	523
5	2376	832.542088528089	523
5	2378	832.975811431225	523
5	2380	833.184431484561	524
5	2382	833.186345253538	525
5	2384	833.202488803281	526
5	2385	833.320757320352	526
5	2386	834.583522653031	525
5	2387	834.593118791877	524
5	2388	835.253880584039	523
5	2390	835.488647732381	523
5	2392	835.797473652633	524
5	2394	837.204219737856	525
5	2396	837.703912711481	526
5	2398	838.092616452592	527
5	2400	838.351368608807	528
5	2402	839.112836528165	529
5	2403	840.014903123439	529
5	2406	840.721723152065	528
5	2407	841.230445103135	527
5	2409	843.54640311441	527
5	2410	843.720450502367	527
5	2412	844.065273192852	527
5	2414	844.372629751178	528
5	2416	844.510288662272	529
5	2418	844.774218121623	530
5	2420	845.045019328725	531
5	2421	845.821451816841	531
5	2422	846.261484265058	530
5	2424	846.407465877896	530
5	2425	846.999603485715	530
5	2427	847.109428083026	530
5	2428	847.894455925108	530
5	2430	849.092999988656	530
5	2431	849.13335965101	530
5	2433	850.58269134015	530
5	2435	850.946827264264	531
5	2437	851.691254013376	532
5	2440	852.530048465568	532
5	2442	852.947791147399	532
5	2446	854.630169314487	533
5	2447	854.792599529421	533
5	2449	855.086615500547	533
5	2451	855.150809187314	534
5	2453	856.715818957194	535
5	2455	856.785693827084	536
5	2456	857.903179802717	536
5	2457	858.11156118169	535
5	2459	858.761627781697	535
5	2460	858.801520644371	535
5	2462	860.487275570764	535
5	2464	861.379116532568	536
5	2466	861.690756552912	537
5	2468	862.221884148446	538
5	2470	862.2402240513	539
5	2471	862.990557006915	539
5	2473	863.490997723478	539
5	2475	863.884006545781	540
5	2477	865.723806013628	541
5	2479	866.013914202021	542
5	2481	866.294937827846	543
5	2482	867.825943006495	543
5	2483	867.888901171555	542
5	2484	867.892335936787	541
5	2485	867.934623510314	540
5	2487	868.530404120953	540
5	2488	868.857279410412	540
5	2490	868.984100352622	540
5	2492	869.01356102647	541
5	2494	869.210682042424	542
5	2495	870.338818567171	542
5	2497	870.703792956649	542
5	2499	871.105253929453	543
5	2501	872.640399808838	544
5	2503	873.936950369451	545
5	2505	874.480464154116	546
5	2506	875.29345721086	546
5	2508	875.348217489387	546
5	2510	875.718241425615	547
5	2512	875.939752132354	548
5	2514	877.247659366089	549
5	2516	877.417956598133	550
5	2518	879.744166864686	551
5	2520	879.787051682604	552
5	2521	880.020487071395	552
5	2523	882.171983553244	552
5	2525	882.492545095036	553
5	2527	883.102126875154	554
5	2528	883.181934449717	554
5	2530	884.726167247347	554
5	2531	884.800218095893	554
5	2532	884.897441007442	553
5	2536	886.994702880822	553
5	2538	888.133319135151	554
5	2540	888.646049691647	555
5	2542	888.734654838827	556
5	2546	889.792211666485	557
5	2548	889.938007218764	558
5	2550	890.050514159075	559
5	2552	890.112860109839	560
5	2554	890.419070109098	561
5	2555	890.91085114409	561
5	2557	891.621034507931	561
5	2559	891.622172548314	562
5	2561	891.655019687457	563
5	2563	891.67623148072	564
5	2565	893.062176209037	565
5	2567	894.61135611394	566
5	2568	894.686114809266	566
5	2569	895.53237401936	565
5	2570	895.771090377186	564
5	2572	895.961873234849	564
5	2574	896.831086708303	565
5	2576	896.907929945302	566
5	2578	897.012687127968	567
5	2579	898.08525589859	567
5	2580	898.638816524846	566
5	2582	899.109899882488	566
5	2584	899.893339265877	567
5	2585	901.354911246798	567
5	2587	905.88933275955	567
5	2590	907.624308715794	567
5	2592	908.849861782805	567
5	2594	909.237982432711	568
5	2598	909.777618571542	569
5	2600	909.878167304183	570
5	2602	910.359725106477	571
5	2604	911.658979723933	572
5	2605	912.394915082336	572
5	2607	912.427409503514	572
5	2608	912.88350255297	572
5	2609	913.962330568142	571
5	2611	915.228720630957	571
5	2612	915.255368386569	571
5	2614	915.470716631935	571
5	2616	915.504955968118	572
5	2618	915.628729722059	573
5	2622	917.424768815845	574
5	2626	918.065358407425	575
5	2628	920.137039078044	576
5	2629	920.672227914621	576
5	2630	921.3300796866	575
5	2632	923.555896065389	575
5	2633	924.320252355255	575
5	2635	924.570533242371	575
5	2637	925.008974534053	576
5	2639	925.366025297082	577
5	2641	925.596776309996	578
5	2643	927.088945308183	579
5	2645	928.06143274347	580
5	2647	929.005256243219	581
5	2649	929.175306394725	582
5	2651	930.051271528565	583
5	2653	930.054669571033	584
5	2654	930.69228864135	584
5	2656	930.881943036586	584
5	2657	930.955883078748	584
5	2658	930.964300676341	583
5	2659	931.3499367182	582
5	2660	932.218620943322	581
5	2661	932.297024768019	580
5	2663	932.339046921383	580
5	2665	932.641511227418	581
5	2668	933.941178728026	581
5	2669	934.075161331001	580
5	2671	934.67716132844	580
5	2674	935.304067854229	580
5	2676	935.329801637556	580
5	2678	935.42700563919	581
5	2680	935.464036047614	582
5	2682	936.360557649988	583
5	2684	938.334622131201	584
5	2685	939.89440423351	584
5	2686	940.074422507098	583
5	2688	940.587029671683	583
5	2689	941.064102441321	583
5	2690	941.177572192709	582
5	2692	942.732611916608	582
5	2694	943.176698716612	583
5	2698	944.976047999629	584
5	2700	945.068611489141	585
5	2702	945.879231097627	586
5	2703	946.532420281852	586
5	2704	947.45340493166	585
5	2705	947.757435991461	584
5	2707	948.076537033956	584
5	2708	948.112732719867	584
5	2709	948.305728298515	583
5	2711	948.60621442249	583
5	2717	949.260716913971	584
5	2719	949.486123075716	585
5	2721	949.850145280996	586
5	2722	951.297361132875	586
5	2724	951.34946448765	586
5	2726	951.37907957287	587
5	2728	951.442215056796	588
5	2730	952.67645354597	589
5	2732	953.334479129302	590
5	2733	953.375365976568	590
5	2735	953.69559138955	590
5	2737	953.751571074551	591
5	2739	954.234375839443	592
5	2740	954.61940154299	592
5	2742	956.236191934401	592
5	2743	956.924911550624	592
5	2745	957.848081073566	592
5	2746	957.971867966439	592
5	2747	958.454963349212	591
5	2749	958.784586061124	591
5	2750	958.893978923272	591
5	2752	960.428268195306	591
5	2754	960.692237311316	592
5	2756	961.30301747203	593
5	2757	961.499856674022	593
5	2759	961.915808039332	593
5	2760	963.439628370297	593
5	2762	963.878505255151	593
5	2764	965.039559768953	594
5	2766	965.462729334606	595
5	2768	965.466935738462	596
5	2770	966.950391439942	597
5	2772	967.23356312399	598
5	2774	968.449221393205	599
5	2775	968.472068113136	599
5	2776	968.531135448671	598
5	2777	968.564092152469	597
5	2779	969.176352479938	597
5	2780	970.622477307181	597
5	2781	971.41141962284	596
5	2783	971.610122051802	596
5	2784	971.665872370958	596
5	2789	974.170455822759	595
5	2791	974.311985046249	595
5	2793	975.468608702791	596
5	2795	975.817684670577	597
5	2797	975.984554665418	598
5	2799	976.097695845387	599
5	2800	976.16199466179	599
5	2802	976.437621459792	599
5	2804	976.527339205491	600
5	2805	976.68622047844	600
5	2807	976.760393263067	600
5	2808	977.982065194823	600
5	2810	978.534701514082	600
5	2811	978.896932074242	600
5	2812	978.96390714496	599
5	2814	979.050208941974	599
5	2818	980.456275032583	600
5	2820	980.792163778074	601
5	2821	981.215066376792	601
5	2823	981.241965006348	601
5	2824	981.301993394228	601
5	2825	982.781502936948	600
5	2827	982.89950042123	600
5	2828	983.263901427301	600
5	2829	984.734479787237	599
5	2831	985.15067703479	599
5	2832	985.739798164773	599
5	2834	986.16307969717	599
5	2835	986.386141362105	599
5	2840	987.87829260263	598
5	2842	988.919889803065	598
5	2843	990.896635423935	598
5	2844	994.283493112744	597
5	2847	994.70224036199	596
5	2849	994.923959493825	596
5	2851	995.014023619959	597
5	2852	995.052662157766	597
5	2853	996.639296104433	596
5	2855	996.659936633438	596
5	2857	996.943062700571	597
5	2859	997.113504087169	598
5	2860	997.167740004228	598
5	2862	997.628301493495	598
5	2864	998.583966142251	599
5	2866	999.339381826427	600
5	2867	999.596735921108	600
6	0	0	0
6	13	2.432209060441	1
6	14	6.548833567105	2
6	17	6.761434580967	3
6	26	11.455116111711	4
6	31	12.073977886286	5
6	34	14.299266429729	6
6	43	18.464975680971	7
6	52	21.320689549518	8
6	63	23.78632686305	9
6	64	24.505517898333	10
6	69	28.485469382005	11
6	70	28.487039127862	12
6	77	31.818330905033	13
[...]
7	2776	968.531135448671	554.53555281643
7	2777	968.564092152469	553.30990985273
7	2780	970.622477307181	554.94808486695
7	2781	971.41141962284	555.37588935212
7	2784	971.665872370958	554.28811289611
7	2789	974.170455822759	555.83969776824
7	2800	976.16199466179	557.3719523226
7	2805	976.68622047844	556.91767781585
7	2808	977.982065194823	557.76001119978
7	2811	978.896932074242	558.64160029615
7	2812	978.96390714496	558.10227967103
7	2821	981.215066376792	557.87276264012
7	2824	981.301993394228	557.54975660824
7	2825	982.781502936948	558.98030751885
7	2828	983.263901427301	559.12717995567
7	2829	984.734479787237	560.48414306614
7	2832	985.739798164773	560.28568845343
7	2835	986.386141362105	560.06363065524
7	2840	987.87829260263	560.84211544541
7	2843	990.896635423935	563.78825767425
7	2844	994.283493112744	566.93189418514
7	2847	994.70224036199	567.10260342683
7	2852	995.052662157766	566.4232105793
7	2853	996.639296104433	567.80008239739
7	2860	997.167740004228	567.63942215174
7	2867	999.596735921108	569.67432497524
8	13	2.432209060441	2.343785197829
8	14	6.548833567105	6.430168144021
8	17	6.761434580967	5.570017812537
8	26	11.455116111711	10.02432628181
8	31	12.073977886286	10.110036428283
8	34	14.299266429729	7.745268196654
8	43	18.464975680971	10.680762402643
8	52	21.320689549518	12.468963748178
8	63	23.78632686305	14.913317249501
8	64	24.505517898333	14.775145622591
8	69	28.485469382005	16.986092567224
8	70	28.487039127862	16.824027787739
8	77	31.818330905033	17.876140216582
8	78	33.104900583476	18.163227571562
8	85	34.962894602699	19.465296697181
8	92	37.45846788938	19.442649739852
8	103	41.65992837951	22.992163509642
8	106	42.997388614686	24.038121250887
8	111	43.659009158819	23.745145442958
8	122	45.164698560394	24.251279606926
8	129	47.698823755451	25.599850103887
8	130	47.863738687834	25.374041615461
8	133	48.556059310987	25.618138835933
8	138	50.930536652528	27.802455069146
8	147	52.220630586026	28.637175943253
8	156	55.007412744021	26.582362285014
8	179	58.895474242835	29.335805715673
8	186	61.161607493509	29.938677961045
8	187	62.019692492525	30.519223375271
8	224	74.216536999757	40.84176689651
8	225	74.797826787923	41.048762820789
8	230	76.304848669039	40.074829111704
8	233	78.223167989671	40.841943868225
8	238	79.373710852229	40.874702303806
8	239	80.01777781309	39.426238716351
8	240	81.300861149415	40.633217544919
8	243	82.656828720828	41.77080494369
8	252	84.43317030901	43.067747503481
8	257	86.588030569208	44.684247877619
8	266	88.26870426516	45.095367874611
8	267	90.903231126273	47.675055922881
8	270	92.341781746995	48.305405249295
8	271	92.590266090478	48.456556944301
8	280	96.641012845909	51.561422992425
8	281	97.133003702143	51.723069055987
8	284	97.569157725747	52.138874407437
8	285	97.962405232756	51.774763994999
8	286	98.566196425753	50.543518195615
8	305	104.936401012672	56.223647813084
8	316	106.720449288887	57.161090714192
8	319	107.951465871464	56.876234804851
8	322	109.082918631327	57.460133969172
8	345	115.056979045448	63.239416139688
8	352	117.72841235367	65.520212669377
8	355	118.650413214296	65.998952087726
8	356	118.670011936044	65.426930538039
8	357	118.672207647938	64.633214084
8	360	118.885830919067	64.594202755289
8	377	123.252138505778	67.753605854093
8	380	123.83019793844	68.098901829193
8	389	127.401952320454	71.189579415711
8	394	129.00775004938	71.761815991583
8	399	133.446581385181	75.689675038817
8	402	133.720012058011	75.954048258652
8	415	136.809784863014	78.57542179305
8	420	139.626870727953	81.220446757615
8	421	139.726117398276	80.915854294938
8	422	140.620793811304	81.231122708757
8	439	145.616318526657	84.99737766996
8	442	145.810985626196	84.731323493609
8	453	150.220729120672	88.088833664841
8	456	150.662296273872	88.392465366984
8	459	151.384016207092	88.050315291379
8	496	162.928863762824	99.245655448527
8	501	165.168447083149	101.09207427291
8	502	166.220542620123	102.10866293701
8	503	166.996564016327	102.43376222137
8	504	167.482887478843	101.25991675662
8	505	168.142393335619	100.74288943472
8	506	168.244416288581	100.53783687288
8	509	168.820582240027	100.99913795983
8	520	171.503298456638	103.11254324385
8	525	172.555051846835	103.9827289407
8	526	172.737498033784	103.684965639
8	529	173.403574125193	103.32583483368
8	530	173.765739554894	102.41523187222
8	531	174.291306120103	102.90646111696
8	534	174.907242453878	103.35525999917
8	559	178.082076185084	102.75510864009
8	568	181.086053014492	105.65490065494
8	571	181.968669147906	104.02612906623
8	576	183.33369253957	105.00283240884
8	591	188.366532016592	109.09505079072
8	592	189.11742574856	106.69167976692
8	603	196.044692310833	113.38537677524
8	608	197.891556648261	114.61265434542
8	609	198.578877779109	114.62508478291
8	612	199.250046490859	114.85807365129
8	623	202.170729265897	117.2473140089
8	640	207.97529833491	122.89536909969
8	641	207.990465470775	121.03320688896
8	644	208.781160750815	121.31364468089
8	653	212.311680537171	124.57852125514
8	656	213.139975279305	124.97069867307
8	675	217.305844090845	124.70426289443
8	676	217.378593117415	123.69128891925
8	679	219.041767558206	124.01898021173
8	686	221.869242217251	126.39426686517
8	697	224.31686705486	124.54629537875
8	714	229.26531998043	129.12083207809
8	717	230.169217625787	129.90682424254
8	722	231.089624253842	130.52397592614
8	723	231.50125974656	129.8948227809
8	724	231.791961867161	128.16441909826
8	725	232.145924685838	128.45378060754
8	726	232.605104458812	128.32858731515
8	735	236.329454082209	131.00917410243
8	744	240.160620499266	134.45322888689
8	753	242.462129917256	136.43553883491
8	754	242.991346199039	136.43337149301
8	755	243.856939740362	136.88560176959
8	758	245.762372703707	137.33495182734
8	759	245.916432171954	136.5062477588
8	766	247.007640304521	137.44036457553
8	779	252.141490044341	142.32793856531
8	788	257.402889195117	146.76443202464
8	789	257.614210475977	146.87689950193
8	792	258.007568920628	146.76889889964
8	801	260.713337255073	148.16404783823
8	810	261.540231856383	148.84146033752
8	819	264.288759535291	151.00728168769
8	820	264.607898359426	150.35014307523
8	827	265.679892288634	151.26507600996
8	828	266.497535110732	150.32649215899
8	831	269.279992948877	152.38432421724
8	854	277.136464010042	159.97829316739
8	855	278.219484053938	159.85009198971
8	856	280.059575327455	161.19697626608
8	861	281.84709305285	162.75838670536
8	876	289.086657923135	169.96591656293
8	881	290.335838756213	170.60649296761
8	882	292.09896332234	171.85425329679
8	883	292.604321406811	172.33068050863
8	900	297.852501023174	177.18836748253
8	907	301.20516352407	179.22177573994
8	922	304.655993389673	182.3342469339
8	923	306.719999788911	183.09679854354
8	930	310.222076027977	185.36424435049
8	933	310.954414592619	184.85619133498
8	942	312.409812762412	184.48524062746
8	961	320.359250772788	192.028522145
8	1004	332.164708387529	202.84907829491
8	1007	332.884547223609	202.62132338821
8	1020	336.868187797759	203.29717968571
8	1023	338.335054320957	204.00647147745
8	1024	339.329916943175	204.3045768825
8	1029	342.364196843215	207.04604236691
8	1032	343.672954377316	208.11462903355
8	1035	345.440141045219	209.65480634038
8	1044	349.578736745805	212.45286786735
8	1047	350.937109748025	212.81107107948
8	1048	351.157984895922	210.39570288313
8	1049	351.646770311262	210.58602717171
8	1050	351.72484908792	210.47832035647
8	1051	352.500655713743	209.3663545435
8	1052	352.564882940885	208.54958219262
8	1057	353.86388043144	209.64418632847
8	1058	354.340121999385	209.58781334024
8	1059	355.151566719452	209.67561996476
8	1066	361.349818530163	215.67539956582
8	1075	363.304482153066	216.90615213663
8	1094	373.27708318533	225.12953640375
8	1095	373.363537025277	224.7247006955
8	1100	374.127339085083	224.66776102867
8	1107	377.148840552521	227.04138406812
8	1112	379.99141170156	229.61777461929
8	1115	381.234062917255	230.52168061937
8	1122	387.890441350436	235.17752385591
8	1125	389.459604421201	236.20128082203
8	1128	390.236515254745	236.00628778709
8	1137	392.99489111542	238.67361436622
8	1142	393.972214462915	239.21922008483
8	1145	394.839036448958	238.43247240771
8	1150	395.743653782058	238.97544095444
8	1151	396.493528500137	237.91821450005
8	1188	410.452337967638	251.11542979985
8	1197	412.913319698674	253.21995829224
8	1198	412.943068493205	252.71103675199
8	1199	413.685106493695	253.27556538703
8	1214	419.120238198073	257.95634353014
8	1223	422.130540403473	260.27458597228
8	1236	425.486887734296	262.60282018299
8	1237	425.56450323854	262.01760027525
8	1238	426.212957327133	261.05998961144
8	1255	428.880841139157	260.49575408392
8	1260	430.120135255701	261.23741478177
8	1269	431.607109412902	261.69591758744
8	1272	434.060546873719	264.13625836735
8	1275	434.17257325998	263.47659813433
8	1276	434.964596327789	264.22644459374
8	1279	437.063247361167	265.08992619675
8	1284	437.699154274133	264.65037911682
8	1285	438.799091641061	264.33909716733
8	1288	442.304875568742	267.08229937558
8	1289	445.045911805192	269.44004784738
8	1294	447.798606138313	272.15588076274
8	1297	448.262200230397	272.43926895044
8	1306	452.309425238437	276.4795465257
8	1309	452.722783296391	276.49273043403
8	1314	454.255717221587	277.94681073327
8	1317	454.478370434321	277.77282897554
8	1318	454.794119759249	277.79161328018
8	1319	454.807916681301	277.65510022906
8	1322	455.751957202598	277.74179175456
8	1323	456.056979824791	276.87398883673
8	1324	458.211234841761	278.23089233626
8	1347	463.536079803522	283.50594308395
8	1348	463.553408437374	282.83770198131
8	1359	466.940679571118	285.50435620289
8	1370	468.986817816699	286.87835340824
8	1371	469.197971366524	286.88523155219
8	1372	470.095038015586	286.15694892659
8	1387	474.60918506813	290.47282481785
8	1394	477.212974502114	291.49455263845
8	1399	479.000890551706	293.25743681476
8	1402	480.303583644245	293.04178897423
8	1413	486.781265968677	298.61500913545
8	1430	490.840123649047	301.03566652648
8	1443	496.559906042033	306.66223002877
8	1450	498.18972909845	305.46333786537
8	1451	498.698636698253	305.93250443809
8	1458	499.22488986103	303.47128921413
8	1459	500.136896696731	303.56762329688
8	1460	500.334092065294	303.61876855471
8	1469	501.820576181245	302.78354266106
8	1478	506.187282439128	306.37810031785
8	1493	510.76099393005	310.07538300088
8	1500	512.744573638372	311.06553761685
8	1509	514.314701235097	312.48574470181
8	1514	514.971904241045	311.54733632542
8	1517	517.556505758424	312.84511660056
8	1524	519.556720965516	314.46888629815
8	1529	522.53256581744	317.34791335752
8	1530	522.651488160873	317.44779184249
8	1531	523.494317014307	317.95646244172
8	1540	524.412950527431	318.18063435203
8	1553	529.770654018304	321.92362822988
8	1560	532.365244728645	324.19493114973
8	1561	532.741391026681	322.85611262469
8	1562	533.631493771063	323.72705166048
8	1579	537.579167400708	327.36076255729
8	1584	539.030327972516	326.60552852809
8	1587	540.046456120856	326.79045763968
8	1594	543.497760428638	328.97129607903
8	1595	543.646386906033	328.49587880823
8	1602	546.637823791002	331.04954559827
8	1605	547.213985366587	331.3122137948
8	1614	549.553857806524	333.63878504724
8	1625	555.968419146609	340.03566858008
8	1630	557.566391305682	340.35805900616
8	1631	557.593157735608	339.16628097136
8	1646	560.631615690601	339.03983835136
8	1657	562.906748301683	341.06578140145
8	1660	564.238848881328	341.65182964
8	1661	565.6678534095	342.33732473978
8	1672	568.772467960153	345.24536794642
8	1675	571.131420463595	347.39169273032
8	1676	571.560723264418	347.3769186885
8	1677	571.637586017315	347.31989493469
8	1678	571.933352673457	347.10294944031
8	1683	574.67848162925	349.16983594634
8	1688	576.734366582326	351.04320662317
8	1701	581.135536110308	354.56939824784
8	1706	582.968924828543	355.24573111366
8	1709	583.800221597355	354.936306393
8	1712	584.700292847078	354.63968423254
8	1713	585.247922590199	354.94737354357
8	1714	585.850883449378	352.55835432813
8	1725	589.100085542716	355.61922947507
8	1728	590.291046845383	356.3523621925
8	1737	591.738136534717	357.38434593122
8	1742	593.084023421155	356.63025903761
8	1743	593.402371466976	356.48122921985
8	1748	594.033632005645	355.87125128553
8	1753	595.012269027436	355.49086667844
8	1754	596.423693624049	355.92860540704
8	1769	601.206859610438	360.61612216849
8	1774	603.127282131819	362.52596135884
8	1781	604.693373794626	362.39705979449
8	1784	606.49400349524	361.51326570243
8	1791	607.04667187065	360.75214004175
8	1792	609.883879165219	363.51846442865
8	1809	615.50648578513	368.548694522
8	1812	616.490228156571	369.13352059589
8	1813	616.738354270731	368.93815535123
8	1818	620.945173312498	372.41433946558
8	1823	623.154947758693	373.67036900646
8	1828	624.265038179624	373.99721456109
8	1839	628.394338535794	376.69308238325
8	1840	628.605105744375	374.52476911058
8	1843	629.078063832432	374.97474638779
8	1844	629.172840905239	374.61849003209
8	1847	629.991812218628	373.62831372334
8	1848	630.11132908664	372.46369379837
8	1857	633.514447487772	375.22378830664
8	1862	636.196916309914	376.87433836785
8	1869	637.845395395819	377.47242284268
8	1870	638.437373648551	378.02476066803
8	1877	641.800744508149	381.05908162035
8	1878	641.934357513011	381.1524248766
8	1885	643.850427844424	382.48089767032
8	1890	644.660421798884	381.3421130718
8	1891	645.527309981217	382.03249987164
8	1920	653.292005554622	389.24332825635
8	1939	663.482990469759	399.30027144728
8	1944	666.094926386537	401.43959877682
8	1945	667.126944653645	402.33127072413
8	1946	668.452560237406	402.94788379181
8	1947	669.551593589385	400.6195463395
8	1948	670.64485903951	400.89990988377
8	1963	674.70491873081	404.40015641371
8	1978	679.90787219302	409.18216043947
8	1979	680.176955707472	409.18136038889
8	1982	682.2380829766	410.00918351514
8	1987	684.215324618106	411.45908740313
8	2022	691.015240915643	416.23960915545
8	2025	691.414436661759	416.27572259
8	2028	691.965007986658	415.15272537577
8	2029	692.276660978837	411.92216881757
8	2036	695.698962231962	414.60559380522
8	2037	696.081352323461	413.7869961875
8	2040	696.853900869516	414.21805843211
8	2051	702.655742619139	419.47517007716
8	2058	704.475608672876	418.67515278781
8	2085	712.525345496879	425.31253570367
8	2094	713.355316485022	424.79195211422
8	2111	719.593486808483	430.92420993951
8	2116	721.734563319961	432.03441202388
8	2121	723.718564528103	429.81126010463
8	2122	723.764256587651	429.30240848962
8	2127	726.468904137642	431.74204023297
8	2134	730.349800738177	435.60926278558
8	2143	736.569037169412	441.38661016134
8	2144	736.640145452637	440.81278032944
8	2145	737.048035863076	440.18223170419
8	2154	741.09608786434	442.78184213627
8	2155	742.675817977718	443.52639059078
8	2158	746.314891051272	445.2775986541
8	2165	749.492438856322	448.22679886331
8	2166	749.676194486894	447.53438094908
8	2169	751.649190890696	447.97058432663
8	2172	752.486250242203	448.29203037642
8	2177	753.66119531648	449.33034849473
8	2194	756.380376112997	451.7743609897
8	2199	757.813077900977	450.8322908771
8	2202	758.209798296717	447.8822600019
8	2207	761.067103978928	449.84431493129
8	2218	763.392303444341	451.62775832632
8	2219	764.779273376145	452.69105653675
8	2222	766.755782778898	453.95771033818
8	2223	767.074599126758	453.40499243065
8	2228	770.635597583066	455.94506695152
8	2241	777.389818774661	462.19606924549
8	2246	778.667568668846	463.34077117366
8	2249	783.605997844455	467.16800111342
8	2258	787.468477051849	470.10007905452
8	2259	788.017885976687	468.94188504662
8	2260	790.340202861398	470.23727872873
8	2271	791.230093095927	470.42179345759
8	2276	792.621639695022	471.47069296232
8	2295	800.093705803445	478.50139821277
8	2310	807.356190085849	485.59776262825
8	2315	808.646589063333	486.81988362289
8	2320	811.251209980982	489.39811271538
8	2323	812.676768507151	490.10003145852
8	2338	818.000563028605	494.90475423729
8	2345	819.330148745374	495.82436729262
8	2354	822.21544826642	498.36094477919
8	2361	828.22552792991	504.21063944231
8	2366	829.275958741349	504.31554798107
8	2373	831.72084452944	506.5804778146
8	2376	832.542088528089	507.25031487125
8	2385	833.320757320352	506.17398658756
8	2386	834.583522653031	507.22457808971
8	2387	834.593118791877	506.98934991932
8	2388	835.253880584039	506.26501307643
8	2403	840.014903123439	508.65426576646
8	2406	840.721723152065	508.31432737413
8	2407	841.230445103135	506.88060011415
8	2410	843.720450502367	509.29581190235
8	2421	845.821451816841	510.6239201942
8	2422	846.261484265058	510.9413998795
8	2425	846.999603485715	511.53693839781
8	2428	847.894455925108	510.54442423924
8	2431	849.13335965101	508.73552298063
8	2440	852.530048465568	511.15961769851
8	2447	854.792599529421	512.21394847497
8	2456	857.903179802717	513.34543292888
8	2457	858.11156118169	509.88534598777
8	2460	858.801520644371	510.27081795822
8	2471	862.990557006915	512.51719728683
8	2482	867.825943006495	514.43624427813
8	2483	867.888901171555	514.16839259086
8	2484	867.892335936787	510.10891577222
8	2485	867.934623510314	508.19880884933
8	2488	868.857279410412	508.29609148471
8	2495	870.338818567171	508.66594068313
8	2506	875.29345721086	513.57037307121
8	2521	880.020487071395	517.55309423879
8	2528	883.181934449717	519.92893657417
8	2531	884.800218095893	521.26525850349
8	2532	884.897441007442	521.26845740766
8	2555	890.91085114409	526.74822311603
8	2568	894.686114809266	527.85970858654
8	2569	895.53237401936	523.7969341105
8	2570	895.771090377186	523.94330315695
8	2579	898.08525589859	526.20970279361
8	2580	898.638816524846	526.30765222317
8	2585	901.354911246798	528.48855526157
8	2590	907.624308715794	533.51184398144
8	2605	912.394915082336	537.84577760461
8	2608	912.88350255297	537.30057037958
8	2609	913.962330568142	537.38435374193
8	2612	915.255368386569	535.77080212761
8	2629	920.672227914621	541.13198501066
8	2630	921.3300796866	538.7472794009
8	2633	924.320252355255	539.68393974472
8	2654	930.69228864135	544.87217885988
8	2657	930.955883078748	542.6433540841
8	2658	930.964300676341	541.05788208289
8	2659	931.3499367182	540.30323505624
8	2660	932.218620943322	540.72741271243
8	2661	932.297024768019	539.5592757481
8	2668	933.941178728026	540.28392782873
8	2669	934.075161331001	540.17941037627
8	2674	935.304067854229	541.0682588655
8	2685	939.89440423351	544.41796930777
8	2686	940.074422507098	542.65332513458
8	2689	941.064102441321	541.92693493118
8	2690	941.177572192709	541.71509845859
8	2703	946.532420281852	546.14635633977
8	2704	947.45340493166	545.76981442645
8	2705	947.757435991461	545.58066837559
8	2708	948.112732719867	545.16830247791
8	2709	948.305728298515	544.76131985543
8	2722	951.297361132875	545.85611598956
8	2733	953.375365976568	546.80504206817
8	2740	954.61940154299	547.92610132836
8	2743	956.924911550624	549.77910458169
8	2746	957.971867966439	549.18516017109
8	2747	958.454963349212	549.61713063499
8	2750	958.893978923272	549.9945634442
8	2757	961.499856674022	551.55671921757
8	2760	963.439628370297	551.57669169706
8	2775	968.472068113136	556.37003009379
8	2776	968.531135448671	556.13982219991
8	2777	968.564092152469	554.56850952023
8	2780	970.622477307181	555.36829500745
8	2781	971.41141962284	555.73702718261
8	2784	971.665872370958	555.63034210023
8	2789	974.170455822759	556.79269634791
8	2800	976.16199466179	557.83123660728
8	2805	976.68622047844	557.89617813924
8	2808	977.982065194823	558.21352253223
8	2811	978.896932074242	558.6748780792
8	2812	978.96390714496	558.70857536687
8	2821	981.215066376792	560.35343890286
8	2824	981.301993394228	557.95968965756
8	2825	982.781502936948	559.02926615096
8	2828	983.263901427301	559.4627060092
8	2829	984.734479787237	560.59775831561
8	2832	985.739798164773	561.48946144368
8	2835	986.386141362105	560.93203165076
8	2840	987.87829260263	561.55578189576
8	2843	990.896635423935	563.86045826672
8	2844	994.283493112744	567.17511536306
8	2847	994.70224036199	567.35064143439
8	2852	995.052662157766	567.45302522261
8	2853	996.639296104433	568.00984452596
8	2860	997.167740004228	568.32852629719
8	2867	999.596735921108	570.06841806862
9	2868	1000	0
10	2868	1000	0.481

