version 2
run Consistency_test_bosses_defeated-78-20221207-16:14:14-7191
attr configname Consistency_test_bosses_defeated
attr datetime 20221207-16:14:14
attr experiment Consistency_test_bosses_defeated
attr inifile omnetpp.ini
attr iterationvars $0=2
attr iterationvarsf 2-
attr measurement $0=2
attr network Network
attr processid 7191
attr repetition 78
attr replication #78
attr resultdir results
attr runnumber 78
attr seedset 78
param *.boss.arrival_mean 1
param *.boss.service_mean 2
param **.minion.arrival_distribution 0
param **.minion.service_distribution 0
param *.minion.arrival_mean 10
param *.minion.service_mean 1
param **.boss.arrival_distribution 0
param **.boss.service_distribution 0

scalar Network.player boss_throughput:mean 0.49
attr source signal_boss_throughput
scalar Network.player boss_throughput:last 0.49
attr source signal_boss_throughput
scalar Network.player boss_defeated_stat:count 491
attr source signal_boss_defeated
scalar Network.player boss_defeated_stat:mean 245
attr source signal_boss_defeated
scalar Network.player boss_waiting_time_stat:mean 276.22579032145
attr source signal_boss_waiting_time
scalar Network.player boss_response_time_stat:mean 277.77203733833
attr source signal_boss_response_time
scalar Network.player minion_throughput:mean 0.002
attr source signal_minion_throughput
scalar Network.player minion_throughput:last 0.002
attr source signal_minion_throughput
scalar Network.player minion_recovered_stat:count 3
attr source signal_minion_recovered
scalar Network.player minion_recovered_stat:mean 1
attr source signal_minion_recovered
scalar Network.player minion_defeated_stat:count 3
attr source signal_minion_defeated
scalar Network.player minion_defeated_stat:mean 1
attr source signal_minion_defeated
scalar Network.player minion_waiting_time_stat:mean 2.5788970212592
attr source signal_minion_waiting_time
scalar Network.player minion_response_time_stat:mean 3.302379806597
attr source signal_minion_response_time

