file 109267 1670426068                                          
version 2
run Consistency_test_bosses_defeated-142-20221207-16:14:28-7511
attr configname Consistency_test_bosses_defeated
attr datetime 20221207-16:14:28
attr experiment Consistency_test_bosses_defeated
attr inifile omnetpp.ini
attr iterationvars $0=3
attr iterationvarsf 3-
attr measurement $0=3
attr network Network
attr processid 7511
attr repetition 42
attr replication #42
attr resultdir results
attr runnumber 142
attr seedset 42
param *.boss.arrival_mean 1
param *.boss.service_mean 3
param **.minion.arrival_distribution 0
param **.minion.service_distribution 0
param *.minion.arrival_mean 10
param *.minion.service_mean 1
param **.boss.arrival_distribution 0
param **.boss.service_distribution 0

vector 0 Network.player minion_jobs_number_stat:vector ETV
attr source signal_minion_jobs_number
vector 1 Network.player minion_jobs_queue_number_stat:vector ETV
attr source signal_minion_jobs_queue_number
vector 2 Network.player minion_recovered_stat:vector ETV
attr source signal_minion_recovered
vector 3 Network.player minion_defeated_stat:vector ETV
attr source signal_minion_defeated
vector 4 Network.player boss_jobs_number_stat:vector ETV
attr source signal_boss_jobs_number
vector 5 Network.player boss_jobs_queue_number_stat:vector ETV
attr source signal_boss_jobs_queue_number
vector 6 Network.player boss_defeated_stat:vector ETV
attr source signal_boss_defeated
vector 7 Network.player boss_waiting_time_stat:vector ETV
attr source signal_boss_waiting_time
vector 8 Network.player boss_response_time_stat:vector ETV
attr source signal_boss_response_time
vector 9 Network.player minion_throughput:vector ETV
attr source signal_minion_throughput
vector 10 Network.player boss_throughput:vector ETV
attr source signal_boss_throughput
0	1751 2446 0 2544 0 984.594934292387 94 0 93 4371 272459
1	4197 2445 0 2544 0 984.594934292387 94 0 92 4278 263810
2	6642 8 0 0 0 0 1 0 0 0 0
3	6650 8 0 0 0 0 1 0 0 0 0
4	6658 27866 0 2589 0 999.849404368543 1026 0 672 345106 156279648
5	34524 37431 0 2589 0 999.849404368543 1379 0 671 462706 210251786
6	71955 9548 0 2585 0 998.610787507227 354 0 353 62481 14724689
7	81503 13871 2 2585 0.054081832561 998.610787507227 354 0 642.42984236925 114697.89804909 50297623.057963
8	95374 13859 13 2585 3.27068979459 998.610787507227 353 3.216607962029 642.61743261801 115054.0249124 50520722.908315
9	109233 14 2590 2590 1000 1000 1 0 0 0 0
10	109247 19 2590 2590 1000 1000 1 0.353 0.353 0.353 0.124609

