version 2
run Consistency_test_bosses_defeated-81-20221207-16:14:15-7206
attr configname Consistency_test_bosses_defeated
attr datetime 20221207-16:14:15
attr experiment Consistency_test_bosses_defeated
attr inifile omnetpp.ini
attr iterationvars $0=2
attr iterationvarsf 2-
attr measurement $0=2
attr network Network
attr processid 7206
attr repetition 81
attr replication #81
attr resultdir results
attr runnumber 81
attr seedset 81
param *.boss.arrival_mean 1
param *.boss.service_mean 2
param **.minion.arrival_distribution 0
param **.minion.service_distribution 0
param *.minion.arrival_mean 10
param *.minion.service_mean 1
param **.boss.arrival_distribution 0
param **.boss.service_distribution 0

vector 0 Network.player minion_jobs_number_stat:vector ETV
attr source signal_minion_jobs_number
vector 1 Network.player minion_jobs_queue_number_stat:vector ETV
attr source signal_minion_jobs_queue_number
vector 2 Network.player minion_recovered_stat:vector ETV
attr source signal_minion_recovered
vector 3 Network.player minion_defeated_stat:vector ETV
attr source signal_minion_defeated
vector 4 Network.player boss_jobs_number_stat:vector ETV
attr source signal_boss_jobs_number
vector 5 Network.player boss_jobs_queue_number_stat:vector ETV
attr source signal_boss_jobs_queue_number
vector 6 Network.player boss_defeated_stat:vector ETV
attr source signal_boss_defeated
vector 7 Network.player minion_waiting_time_stat:vector ETV
attr source signal_minion_waiting_time
vector 8 Network.player boss_waiting_time_stat:vector ETV
attr source signal_boss_waiting_time
vector 9 Network.player boss_response_time_stat:vector ETV
attr source signal_boss_response_time
vector 10 Network.player minion_throughput:vector ETV
attr source signal_minion_throughput
vector 11 Network.player boss_throughput:vector ETV
attr source signal_boss_throughput
0	0	0	0
0	2	0.622123939876	1
0	10	3.568194106607	2
0	33	10.783271300574	3
0	52	15.088236529603	4
0	56	15.683132414895	5
0	84	21.761361233627	6
0	89	25.85429230865	7
0	122	39.571349914348	8
0	150	47.082756303822	9
0	165	57.167217728635	10
0	231	85.567953861376	11
0	246	89.205633567043	12
0	250	91.999363189165	13
0	252	92.931022724891	14
0	277	102.070832694031	15
0	300	110.163384932598	16
0	303	113.034950808639	17
0	312	117.194418291223	18
0	344	128.707645082289	19
0	371	138.379248152	20
0	373	138.54355536091	21
0	388	146.875199192267	22
0	463	173.463457172624	23
0	487	182.309251339685	24
0	506	188.554480185982	25
0	517	192.345712665236	26
0	549	205.830316799783	27
0	596	218.660477642583	28
0	622	226.662069045826	29
0	633	231.434553924765	30
0	635	231.903057575967	31
0	657	238.715598804739	32
0	669	244.665882788145	33
0	673	245.679506758892	34
0	681	249.535675305645	35
0	691	254.480782477096	36
0	740	272.319735846581	37
0	747	274.021905808207	38
0	779	284.550427569376	39
0	852	313.590172750351	40
0	917	339.688155801443	41
0	927	344.172836875787	42
0	929	344.937896341844	43
0	936	345.581871170853	44
0	960	353.107557451966	45
0	962	354.016781849678	46
0	1015	371.286580075885	47
0	1035	375.598172729544	48
0	1051	381.120010731483	49
0	1072	389.930996306636	50
0	1078	392.021590310528	51
0	1080	392.402252173875	52
0	1085	394.461091382592	53
0	1110	400.560107317332	54
0	1135	413.021375993078	55
0	1142	415.646990990921	56
0	1200	432.989727384609	57
0	1203	434.26495508551	58
0	1221	443.12264843417	59
0	1251	452.968161080864	60
0	1258	455.51937316953	61
0	1265	460.125484522504	62
0	1339	484.430789755527	63
0	1400	506.861430003673	64
0	1408	510.481165502661	65
0	1432	522.274091979659	66
0	1434	523.641270647156	67
0	1494	545.410541226049	68
0	1518	554.362285496033	69
0	1523	555.795229637871	70
0	1545	564.635354276302	71
0	1608	587.905763083504	72
0	1612	588.326089937819	73
0	1656	606.934860407772	74
0	1694	626.421862325447	75
0	1767	647.783185285092	76
0	1790	655.636601267514	77
0	1841	670.775416809318	78
0	1867	678.771294728996	79
0	1919	707.351007854391	80
0	1956	729.113817739041	81
0	2006	750.026626372523	82
0	2013	751.405793525589	83
0	2057	768.596333370943	84
0	2090	784.912356199478	85
0	2099	786.993105427922	86
0	2115	794.954475928098	87
0	2177	812.919401075111	88
0	2347	879.580067911702	89
0	2380	889.125951713166	90
0	2397	893.889910529666	91
0	2432	904.233255912882	92
0	2476	924.348239020896	93
0	2479	925.810897755113	94
0	2491	929.031974500671	95
0	2541	943.352464534292	96
0	2565	950.633938653879	97
0	2575	953.85607743413	98
0	2605	965.175581285374	99
0	2623	972.235901718718	100
0	2692	993.457321337722	101
1	0	0	0
1	2	0.622123939876	0
1	10	3.568194106607	1
1	33	10.783271300574	2
1	52	15.088236529603	3
1	56	15.683132414895	4
1	84	21.761361233627	5
1	89	25.85429230865	6
1	122	39.571349914348	7
1	150	47.082756303822	8
1	165	57.167217728635	9
1	231	85.567953861376	10
1	246	89.205633567043	11
1	250	91.999363189165	12
1	252	92.931022724891	13
1	277	102.070832694031	14
1	300	110.163384932598	15
1	303	113.034950808639	16
1	312	117.194418291223	17
1	344	128.707645082289	18
1	371	138.379248152	19
1	373	138.54355536091	20
1	388	146.875199192267	21
1	463	173.463457172624	22
1	487	182.309251339685	23
1	506	188.554480185982	24
1	517	192.345712665236	25
1	549	205.830316799783	26
1	596	218.660477642583	27
1	622	226.662069045826	28
1	633	231.434553924765	29
1	635	231.903057575967	30
1	657	238.715598804739	31
1	669	244.665882788145	32
1	673	245.679506758892	33
1	681	249.535675305645	34
1	691	254.480782477096	35
1	740	272.319735846581	36
1	747	274.021905808207	37
1	779	284.550427569376	38
1	852	313.590172750351	39
1	917	339.688155801443	40
1	927	344.172836875787	41
1	929	344.937896341844	42
1	936	345.581871170853	43
1	960	353.107557451966	44
1	962	354.016781849678	45
1	1015	371.286580075885	46
1	1035	375.598172729544	47
1	1051	381.120010731483	48
1	1072	389.930996306636	49
1	1078	392.021590310528	50
1	1080	392.402252173875	51
1	1085	394.461091382592	52
1	1110	400.560107317332	53
1	1135	413.021375993078	54
1	1142	415.646990990921	55
1	1200	432.989727384609	56
1	1203	434.26495508551	57
1	1221	443.12264843417	58
1	1251	452.968161080864	59
1	1258	455.51937316953	60
1	1265	460.125484522504	61
1	1339	484.430789755527	62
1	1400	506.861430003673	63
1	1408	510.481165502661	64
1	1432	522.274091979659	65
1	1434	523.641270647156	66
1	1494	545.410541226049	67
1	1518	554.362285496033	68
1	1523	555.795229637871	69
1	1545	564.635354276302	70
1	1608	587.905763083504	71
1	1612	588.326089937819	72
1	1656	606.934860407772	73
1	1694	626.421862325447	74
1	1767	647.783185285092	75
1	1790	655.636601267514	76
1	1841	670.775416809318	77
1	1867	678.771294728996	78
1	1919	707.351007854391	79
1	1956	729.113817739041	80
1	2006	750.026626372523	81
1	2013	751.405793525589	82
1	2057	768.596333370943	83
1	2090	784.912356199478	84
1	2099	786.993105427922	85
1	2115	794.954475928098	86
1	2177	812.919401075111	87
1	2347	879.580067911702	88
1	2380	889.125951713166	89
1	2397	893.889910529666	90
1	2432	904.233255912882	91
1	2476	924.348239020896	92
1	2479	925.810897755113	93
1	2491	929.031974500671	94
1	2541	943.352464534292	95
1	2565	950.633938653879	96
1	2575	953.85607743413	97
1	2605	965.175581285374	98
1	2623	972.235901718718	99
1	2692	993.457321337722	100
2	0	0	0
2	4	0.732973562719	1
2	7	2.205087475468	2
2	12	4.123742802979	3
3	0	0	0
4	0	0	0
4	4	0.732973562719	1
4	7	2.205087475468	1
4	12	4.123742802979	1
4	14	5.117819223172	2
4	16	5.815868221063	3
4	18	6.385435915906	4
4	20	6.422101850198	5
4	23	6.793711734133	5
4	27	9.341154047306	4
4	30	10.321626535793	4
4	35	11.301048983544	4
4	38	11.760004592541	4
4	40	12.037312649611	5
4	42	13.554069854917	6
4	45	14.125648666291	6
4	48	14.396346953658	6
4	50	14.693980736405	7
4	54	15.364396669869	8
4	58	16.001230786882	9
4	60	16.004288659006	10
4	62	16.278823093375	11
4	64	16.47942698104	12
4	67	16.615337649729	12
4	72	18.25420243286	10
4	75	19.054879440411	10
4	78	20.511967673654	10
4	80	20.520013703478	11
4	82	20.865283726461	12
4	91	26.168225095977	10
4	93	26.214622154058	11
4	95	27.070785233825	12
4	97	29.588641694375	13
4	99	29.639905623907	14
4	101	29.656068068397	15
4	106	31.769569819551	13
4	110	35.840294027727	12
4	114	36.686225292632	11
4	118	37.937288393999	10
4	120	38.222993499303	11
4	124	39.852722747134	12
4	126	40.054142896164	13
4	129	41.215139486471	13
4	131	42.230835333104	14
4	136	43.63086225701	12
4	138	43.808633090805	13
4	140	44.016853454113	14
4	142	45.412983327226	15
4	144	45.69197496255	16
4	153	47.557506673804	12
4	155	48.166247384954	13
4	159	52.936379520376	12
4	168	58.441611437695	8
4	170	58.583874917719	9
4	172	59.394719898735	10
4	174	60.800794975625	11
4	176	61.412046634136	12
4	178	62.38340256029	13
4	180	62.408482263793	14
4	182	63.900794735538	15
4	186	67.470415647292	14
4	191	70.295403903308	12
4	193	70.296890033727	13
4	195	73.567262338261	14
4	198	74.851568283377	14
4	203	77.610001251276	12
4	205	77.724948323837	13
4	209	80.499331350251	12
4	211	81.172637195466	13
4	213	81.864494472521	14
4	216	82.145272424993	14
4	218	82.625356173441	15
4	221	83.730967878881	15
4	223	84.168068316966	16
4	225	84.687448452745	17
4	227	85.165138797767	18
4	229	85.322378594189	19
4	233	85.656101523415	20
4	235	85.861220615852	21
4	238	86.240382587697	21
4	240	86.503416853749	22
4	243	88.236014561823	22
4	254	93.331113994925	20
4	256	94.958404823534	21
4	258	95.666835280994	22
4	262	98.570162649275	21
4	264	98.686262258312	22
4	266	98.972530416507	23
4	268	99.260420462497	24
4	271	99.711460512941	24
4	273	100.165097740417	25
4	281	103.632531506467	22
4	286	106.297531012193	20
4	288	106.317773684283	21
4	290	106.49813388751	22
4	292	107.289330098865	23
4	296	109.192519996724	22
4	298	109.426189036956	23
4	307	113.719853982464	21
4	309	114.496897635921	22
4	315	119.266334782507	21
4	317	119.863382865459	22
4	319	121.434625263823	23
4	322	122.333850147834	23
4	325	122.95617890189	23
4	327	123.904164871506	24
4	329	124.031065528755	25
4	331	124.507280862093	26
4	333	125.688361205063	27
4	335	127.095018804126	28
4	337	127.272090337212	29
4	340	128.136921127857	29
4	342	128.566594221701	30
4	346	128.762831542066	31
4	348	128.839686273389	32
4	353	130.976381742244	30
4	355	131.965301077186	31
4	357	132.330953961955	32
4	359	132.783643092046	33
4	361	133.899827513031	34
4	363	135.202319842721	35
4	365	135.542737706555	36
4	367	136.062468267574	37
4	369	136.771897066814	38
4	376	140.1444017092	38
4	378	142.266658173567	39
4	382	144.938345629167	38
4	384	144.970733855201	39
4	386	145.811944178836	40
4	391	147.569497760921	40
4	393	147.586169378316	41
4	395	148.507948264832	42
4	397	148.712635939331	43
4	399	148.834018628923	44
4	402	150.782885770619	44
4	404	151.202092481445	45
4	406	151.651495170817	46
4	408	152.338313889039	47
4	410	152.836719096264	48
4	412	153.061514283472	49
4	415	155.089159207659	49
4	417	155.142505915255	50
4	419	156.508732805494	51
4	421	157.427242251489	52
4	424	158.362889893817	52
4	427	159.536608787294	52
4	429	159.635967994206	53
4	433	160.057243854874	52
4	435	160.584936649981	53
4	437	160.748173846152	54
4	439	161.297614695867	55
4	441	162.636609510181	56
4	445	164.910734538726	55
4	448	166.476616500465	55
4	451	167.371009312477	55
4	453	168.771821857959	56
4	461	171.786008448694	51
4	465	173.533783329939	52
4	471	176.009356339714	49
4	474	177.19394864148	49
4	476	177.385933437437	50
4	478	179.01975486385	51
4	481	179.90825515922	51
4	489	182.454738418307	48
4	492	183.048745403131	48
4	496	185.077469156814	47
4	498	185.170384943929	48
4	500	187.698386660456	49
4	502	188.39171628885	50
4	504	188.547169459601	51
4	508	188.981602096098	52
4	510	189.070330809482	53
4	513	189.646784240352	53
4	515	191.151075394196	54
4	520	193.494625104084	54
4	524	194.642294624603	53
4	528	196.67720032048	52
4	531	198.651194095628	52
4	533	199.09193953284	53
4	535	199.163518189482	54
4	537	199.895030346923	55
4	541	202.016102766046	54
4	544	204.131836941437	54
4	546	204.522582559561	55
4	552	206.011016285862	54
4	554	206.447140039976	55
4	556	206.689739245424	56
4	558	206.973430538954	57
4	560	207.682469937909	58
4	562	208.587901236024	59
4	564	208.796119694891	60
4	568	209.266212394952	59
4	570	209.654065910208	60
4	575	211.193888589249	58
4	577	211.813025191731	59
4	581	214.189305978175	58
4	583	215.402410877295	59
4	585	215.407051856173	60
4	587	215.524369724142	61
4	589	215.915869214631	62
4	591	216.927004684883	63
4	598	219.460913981378	61
4	600	219.464587493442	62
4	602	219.608602084974	63
4	604	220.232150231236	64
4	607	221.404455987948	64
4	609	221.48028446755	65
4	611	221.669426530366	66
4	614	223.812092649847	66
4	617	224.343271897876	66
4	620	226.394152935213	66
4	624	227.820662079311	67
4	626	229.068692559956	68
4	629	229.994216730119	68
4	631	230.850129171259	69
4	637	231.953434308178	70
4	639	232.212662426388	71
4	641	232.45026915004	72
4	646	233.576346675511	70
4	648	233.752252637713	71
4	651	236.45695638191	71
4	653	237.247518422606	72
4	655	237.877020236639	73
4	659	239.252972910683	74
4	661	241.621660615923	75
4	663	241.731338412599	76
4	667	243.992499318946	75
4	671	245.343922234744	76
4	675	246.436741963695	77
4	678	248.548104937486	77
4	684	250.384194289532	76
4	687	252.522670197538	76
4	689	253.257095584176	77
4	693	255.175673576849	78
4	697	256.801548316265	77
4	700	257.542046070551	77
4	702	257.550874545135	78
4	704	257.724948821884	79
4	706	258.813100308251	80
4	708	259.109113410532	81
4	710	259.640603908749	82
4	713	261.163084012528	82
4	715	262.424033279034	83
4	721	265.622194001045	80
4	724	266.355619565926	80
4	726	266.441316671271	81
4	728	267.397081967026	82
4	730	268.197555384515	83
4	732	268.97552161032	84
4	734	269.433515303027	85
4	737	272.157201267167	85
4	742	273.681194807205	85
4	744	273.862497459803	86
4	752	277.320976265273	83
4	754	277.448715329336	84
4	756	277.756987147752	85
4	758	278.047035146631	86
4	760	278.312585060785	87
4	763	279.733468366746	87
4	767	280.361275121299	86
4	773	282.528077622025	83
4	775	283.464980701356	84
4	777	284.383783353342	85
4	783	285.853825495443	84
4	785	286.994642593404	85
4	787	286.99671416596	86
4	789	287.005103879371	87
4	791	288.674796036966	88
4	793	289.092621249137	89
4	795	289.838207501437	90
4	799	290.626833449449	89
4	802	291.758806352836	89
4	805	292.230031220509	89
4	808	295.130018609298	89
4	810	295.331685788672	90
4	813	296.659903487269	90
4	815	296.774023159861	91
4	820	298.055370368118	89
4	822	298.418554953369	90
4	824	299.047745564986	91
4	828	301.976532203366	90
4	832	304.465661501705	89
4	834	304.708930913159	90
4	836	304.961025010559	91
4	839	305.710047887876	91
4	841	306.129560421808	92
4	843	307.435680288039	93
4	846	309.762116065247	93
4	848	311.619961078727	94
4	850	311.810813118057	95
4	855	314.264545717913	95
4	857	314.621380355578	96
4	861	316.171028929361	95
4	863	317.916345655636	96
4	865	319.883991403321	97
4	870	323.941236561381	95
4	872	325.301137426409	96
4	874	326.101909981432	97
4	877	327.272601685365	97
4	879	327.288003430206	98
4	881	327.664871177403	99
4	883	327.699581495774	100
4	885	327.701296281601	101
4	887	327.739362170684	102
4	890	329.405466895135	102
4	895	331.548710356954	100
4	897	331.990557562739	101
4	899	332.250528302014	102
4	901	333.585264494989	103
4	903	333.867940878235	104
4	905	333.953780532821	105
4	912	337.862081260104	101
4	915	339.091310551941	101
4	920	341.789909486395	101
4	923	342.676162981553	101
4	925	342.676588403559	102
4	931	344.962467163012	103
4	933	344.989233188554	104
4	938	345.911026611187	104
4	940	346.533438095528	105
4	943	349.164811023537	105
4	945	349.698301419523	106
4	947	349.877123318804	107
4	950	351.270140283609	107
4	952	351.554270978943	108
4	954	352.172954166431	109
4	956	352.304374460279	110
4	958	352.420749643403	111
4	964	354.328553060057	112
4	966	356.549567905543	113
4	969	357.068386535833	113
4	972	359.756143950521	113
4	975	360.491182676733	113
4	977	360.686193447829	114
4	979	361.065237180964	115
4	982	362.078564345883	115
4	984	362.877275338507	116
4	986	362.927145502395	117
4	988	363.612945245405	118
4	993	364.794851285019	116
4	995	364.807959663095	117
4	997	364.952055325049	118
4	999	365.637269280192	119
4	1003	367.395645181639	118
4	1005	367.479963753027	119
4	1007	367.549108878391	120
4	1009	368.222669605383	121
4	1011	368.845112909118	122
4	1013	371.200283473767	123
4	1017	371.794566112022	124
4	1019	371.877493610301	125
4	1021	372.767091757789	126
4	1023	373.115707108012	127
4	1025	373.511152313386	128
4	1027	373.837715109837	129
4	1029	374.684255233757	130
4	1031	375.233924484017	131
4	1033	375.557789756498	132
4	1037	376.399782594699	133
4	1040	377.168548227162	133
4	1042	377.887464401319	134
4	1044	377.997973859427	135
4	1046	378.618143478389	136
4	1049	380.704802141152	136
4	1054	381.666879621642	136
4	1058	384.571911705138	135
4	1061	385.383855274349	135
4	1063	386.222728740984	136
4	1066	387.857829753595	136
4	1068	389.44393380091	137
4	1070	389.673236133837	138
4	1074	390.549732290163	139
4	1076	391.032740760732	140
4	1087	394.990172063956	138
4	1089	395.622503149715	139
4	1092	395.834448679306	139
4	1094	395.91844839514	140
4	1096	397.280924275733	141
4	1098	397.805931528347	142
4	1101	398.188706087066	142
4	1104	399.006737353937	142
4	1106	399.652129892346	143
4	1108	400.232025097328	144
4	1114	402.376278337727	143
4	1117	403.67550605327	143
4	1119	404.179216026068	144
4	1121	404.208659175349	145
4	1123	404.753079981632	146
4	1125	407.571543460163	147
4	1127	408.682436427478	148
4	1129	408.703323702054	149
4	1131	410.829273568412	150
4	1137	413.787157224554	149
4	1139	414.177408386866	150
4	1144	416.54372923267	150
4	1146	417.001576062346	151
4	1148	417.543062609795	152
4	1150	418.893803600278	153
4	1152	419.295922701547	154
4	1154	420.041170736913	155
4	1156	420.958511210566	156
4	1158	420.972107007039	157
4	1161	421.958323178955	157
4	1164	422.521174801136	157
4	1166	422.95292263032	158
4	1168	423.803890473083	159
4	1170	424.446118632672	160
4	1172	424.867904957775	161
4	1174	425.43190828979	162
4	1176	425.508144552405	163
4	1178	425.876927245829	164
4	1180	426.2048925288	165
4	1183	427.819931860977	165
4	1185	427.953366246426	166
4	1188	428.701324936941	166
4	1190	430.266847861926	167
4	1192	430.754805564829	168
4	1196	432.368464153812	167
4	1205	434.285923009755	165
4	1207	435.301735276448	166
4	1209	435.313044295662	167
4	1213	437.534088875533	166
4	1215	439.353215496823	167
4	1217	441.292297700463	168
4	1219	441.387056716859	169
4	1224	445.081897300312	169
4	1226	445.83401741984	170
4	1230	448.400368730433	169
4	1232	448.598636913723	170
4	1234	449.323360343831	171
4	1237	449.887888329207	171
4	1241	450.586588259625	170
4	1243	450.598939316435	171
4	1245	450.814618671133	172
4	1249	451.950694362144	171
4	1254	453.856454730619	171
4	1260	457.769614000242	170
4	1263	458.715658978838	170
4	1267	460.966606254315	171
4	1270	462.047777665562	171
4	1272	462.789030056844	172
4	1274	463.187270407009	173
4	1276	463.492955472749	174
4	1278	463.827169723421	175
4	1281	465.850359249205	175
4	1283	466.243994152352	176
4	1285	467.121163379275	177
4	1289	467.298215401601	176
4	1291	468.424361463451	177
4	1294	468.89413998198	177
4	1296	468.90464655689	178
4	1298	469.782405004013	179
4	1300	469.8111235023	180
4	1302	470.50995552986	181
4	1304	470.955256543525	182
4	1306	471.334277651874	183
4	1309	473.445899655361	183
4	1312	474.791146894334	183
4	1314	475.396314636861	184
4	1316	475.948664625799	185
4	1318	476.624501487918	186
4	1321	478.056147699361	186
4	1323	478.730778796686	187
4	1325	478.80801810636	188
4	1330	481.048493680213	186
4	1333	483.362451601171	186
4	1335	483.399622040316	187
4	1337	483.954952274612	188
4	1341	484.659740189808	189
4	1343	485.896928191808	190
4	1345	486.611829218588	191
4	1347	486.843125466036	192
4	1350	487.802440171351	192
4	1352	487.87084402566	193
4	1354	488.254575973119	194
4	1356	488.827298334534	195
4	1358	489.795302194454	196
4	1360	490.612311500651	197
4	1362	491.556075666824	198
4	1366	492.226918134889	197
4	1368	492.822949077967	198
4	1372	494.416103406707	197
4	1376	496.666417599743	196
4	1378	497.335376302557	197
4	1381	497.904133986223	197
4	1383	498.13556114956	198
4	1385	498.257116781726	199
4	1388	500.784620508478	199
4	1390	501.917442787187	200
4	1392	502.178181163971	201
4	1394	502.657504503643	202
4	1397	505.16937266539	202
4	1402	507.039052026397	202
4	1404	507.09804836349	203
4	1406	507.655028116231	204
4	1410	511.031151117838	205
4	1412	511.588220660424	206
4	1414	513.087782858618	207
4	1417	515.929353647465	207
4	1420	517.225150328032	207
4	1423	518.673008899791	207
4	1425	518.733722622122	208
4	1427	518.743175415602	209
4	1430	519.937027130206	209
4	1438	526.473182656949	208
4	1440	526.816442992252	209
4	1442	527.126215401671	210
4	1446	530.294766209605	209
4	1448	530.347849054716	210
4	1450	530.393465392722	211
4	1452	531.371954902041	212
4	1454	532.456911121339	213
4	1458	534.321406629179	212
4	1461	535.222670513013	212
4	1464	537.689811280085	212
4	1468	538.707020428121	211
4	1472	541.223637593448	210
4	1476	541.717470680645	209
4	1478	542.069751020404	210
4	1480	543.932700409298	211
4	1482	543.962550199832	212
4	1484	544.242905511498	213
4	1490	545.244765529906	210
4	1492	545.3118529774	211
4	1496	545.738916217826	212
4	1500	547.340784545243	211
4	1502	548.856291696436	212
4	1506	551.477029411032	211
4	1508	552.506405451182	212
4	1511	552.769441252548	212
4	1513	553.225233969684	213
4	1515	553.576332432656	214
4	1520	554.975827724328	214
4	1525	556.08262131413	214
4	1527	556.474511915957	215
4	1529	557.431982446798	216
4	1531	557.479819858874	217
4	1533	559.224057295199	218
4	1535	559.682014563569	219
4	1537	560.406127696213	220
4	1539	561.373874829034	221
4	1543	563.604062640054	220
4	1547	566.424495519551	221
4	1549	566.868462442923	222
4	1551	567.293618508788	223
4	1553	567.445148068392	224
4	1556	567.762604141512	224
4	1559	568.588345971653	224
4	1561	568.976058423487	225
4	1563	569.716769861201	226
4	1565	570.894572791579	227
4	1567	571.089760356246	228
4	1569	571.39617852669	229
4	1571	571.981561819168	230
4	1573	573.083927201146	231
4	1575	574.858522976322	232
4	1577	576.398597950377	233
4	1580	577.070054626433	233
4	1582	577.08900559296	234
4	1584	577.267048506802	235
4	1586	579.786681216404	236
4	1588	580.544358811406	237
4	1591	580.874350038533	237
4	1593	580.959840628353	238
4	1595	582.294340932948	239
4	1598	584.147787563254	239
4	1600	585.144138809693	240
4	1602	585.838988881409	241
4	1604	586.515323685567	242
4	1610	588.086134315128	241
4	1615	593.077266200809	241
4	1617	593.093024142108	242
4	1619	593.315694262845	243
4	1621	593.553756576714	244
4	1624	596.414125622169	244
4	1627	597.204762212652	244
4	1630	598.365265975247	244
4	1632	599.594281161033	245
4	1634	599.831815124575	246
4	1638	601.102506961472	245
4	1640	601.676655472875	246
4	1642	602.052442131379	247
4	1644	602.204242305234	248
4	1646	602.567742504263	249
4	1648	603.517118811229	250
4	1650	605.163672232912	251
4	1652	605.778061732219	252
4	1654	606.477315646031	253
4	1658	607.600820342843	254
4	1661	608.912481566215	254
4	1665	613.130825829693	253
4	1667	614.250635282577	254
4	1669	616.229903979935	255
4	1671	616.262040815133	256
4	1673	616.307828281195	257
4	1676	619.820812887035	257
4	1678	619.940284403817	258
4	1680	620.041169127578	259
4	1684	622.187863491342	258
4	1688	624.166851696007	257
4	1690	624.52891077084	258
4	1692	624.953902544943	259
4	1696	627.242441494351	260
4	1698	627.42549599087	261
4	1700	628.400656181007	262
4	1702	628.420791403946	263
4	1704	628.650647482208	264
4	1706	629.097670665791	265
4	1708	629.59745141878	266
4	1710	629.610872620294	267
4	1712	629.623901451818	268
4	1714	630.654881213932	269
4	1719	632.712566179374	267
4	1722	634.0981329329	267
4	1724	634.497720804457	268
4	1726	635.299129991062	269
4	1728	635.433331023087	270
4	1730	636.154869085919	271
4	1732	636.553358810364	272
4	1734	636.897297538525	273
4	1737	637.877310926379	273
4	1740	638.733695336826	273
4	1742	638.849070785049	274
4	1745	639.372540294114	274
4	1747	641.010223849028	275
4	1749	642.84070338535	276
4	1751	643.727366778066	277
4	1755	644.524276067852	276
4	1757	645.025024386749	277
4	1761	646.29961508563	276
4	1763	646.704295402309	277
4	1765	646.992864496763	278
4	1771	649.548358571442	277
4	1773	649.81551641602	278
4	1776	650.620004565138	278
4	1778	650.676131541227	279
4	1780	651.866653900403	280
4	1784	653.482068965481	279
4	1786	654.116710364695	280
4	1788	655.042837132554	281
4	1793	657.244024141192	281
4	1795	657.25520282486	282
4	1800	658.37035951707	280
4	1804	659.166032358775	279
4	1808	659.571610369692	278
4	1811	661.075356192377	278
4	1813	661.974231218337	279
4	1815	663.03122160274	280
4	1817	663.222050756447	281
4	1819	663.297680296853	282
4	1821	664.892674155631	283
4	1824	665.357599797333	283
4	1827	665.706074022121	283
4	1829	666.379801182908	284
4	1831	667.438534404048	285
4	1833	668.03124737756	286
4	1835	668.090711516397	287
4	1837	669.808335396413	288
4	1839	670.403818778127	289
4	1844	670.956188350098	289
4	1846	673.060788218856	290
4	1850	674.383344325337	289
4	1852	674.852794897095	290
4	1854	676.039613903997	291
4	1857	677.353559280296	291
4	1859	677.416312444164	292
4	1861	677.474023453951	293
4	1863	677.782979728603	294
4	1865	678.362425574578	295
4	1870	679.890170685701	295
4	1872	680.781649342379	296
4	1875	684.001436117724	296
4	1877	684.118084122332	297
4	1879	688.498107110329	298
4	1881	689.241739161713	299
4	1884	691.218180793686	299
4	1886	691.387282679811	300
4	1889	693.554049745332	300
4	1891	695.614005000113	301
4	1894	696.219437827973	301
4	1896	696.533400520339	302
4	1898	697.632293402776	303
4	1903	698.546445302739	301
4	1905	699.995813485603	302
4	1908	702.026281970924	302
4	1910	702.475508323753	303
4	1912	702.968508160724	304
4	1915	704.820748579564	304
4	1917	706.001709095267	305
4	1923	708.732610911734	304
4	1925	708.780358310513	305
4	1927	708.906633812792	306
4	1929	710.756308088137	307
4	1931	711.626277575717	308
4	1933	713.90567974653	309
4	1936	714.342006408426	309
4	1941	716.569402067501	307
4	1943	718.321141153836	308
4	1945	719.660743084002	309
4	1947	722.328160339741	310
4	1951	726.332526901545	309
4	1953	727.170837226413	310
4	1961	731.655763398609	307
4	1964	733.806940233637	307
4	1966	734.083418423657	308
4	1968	734.299674219546	309
4	1973	735.583677703367	307
4	1976	735.77258931044	307
4	1978	737.05719871694	308
4	1980	737.494919285457	309
4	1982	739.121514140175	310
4	1984	739.513164838551	311
4	1986	740.578109148463	312
4	1988	740.627204796911	313
4	1990	743.19390137279	314
4	1992	744.950787023168	315
4	1995	746.09315935468	315
4	1997	746.834368575796	316
4	1999	747.333045427491	317
4	2001	748.678599404226	318
4	2004	749.98691832573	318
4	2008	750.076678173341	319
4	2010	750.088848838693	320
4	2015	752.477002263934	320
4	2019	754.451780905155	319
4	2022	755.45811386115	319
4	2025	756.250270714313	319
4	2028	757.568024026757	319
4	2030	758.247349062774	320
4	2032	758.368720524602	321
4	2034	759.590805019458	322
4	2036	760.273176733063	323
4	2038	761.992451102418	324
4	2040	762.047172855959	325
4	2042	763.580633106187	326
4	2045	764.412415601173	326
4	2048	766.307334366888	326
4	2050	766.922071583341	327
4	2052	768.073801969322	328
4	2054	768.427175432015	329
4	2059	772.265687765164	329
4	2062	772.513474439921	329
4	2065	775.869793712165	329
4	2067	776.109666331975	330
4	2070	777.691194171162	330
4	2073	779.573627435848	330
4	2075	780.293822435019	331
4	2077	780.538052668535	332
4	2079	781.966356911582	333
4	2084	784.006420481607	331
4	2086	784.220234605484	332
4	2088	784.767010515178	333
4	2092	785.103436100053	334
4	2094	785.882233185375	335
4	2097	786.38316114565	335
4	2102	787.1450764001	335
4	2105	789.511804610629	335
4	2108	790.164694563501	335
4	2110	791.788013689312	336
4	2113	794.627297770192	336
4	2118	795.620656603741	336
4	2120	796.105663524937	337
4	2122	796.692162369809	338
4	2124	796.739330938492	339
4	2127	798.135183775195	339
4	2129	798.185099502198	340
4	2131	798.216280981193	341
4	2134	799.619406404683	341
4	2136	800.636001324867	342
4	2138	800.849767172708	343
4	2141	802.779627091901	343
4	2143	803.300670590269	344
4	2146	803.686706233753	344
4	2150	805.412404801363	343
4	2152	805.532506977963	344
4	2155	806.278030872964	344
4	2160	808.613306909021	342
4	2163	809.098635576535	342
4	2165	809.237336050167	343
4	2167	809.968000587836	344
4	2169	810.663886664866	345
4	2171	810.713899453403	346
4	2173	811.038341988566	347
4	2175	812.193433841636	348
4	2179	815.664776962167	349
4	2186	818.071892989256	345
4	2188	819.272087362782	346
4	2190	820.263130131195	347
4	2193	822.626704841697	347
4	2196	825.147668628354	347
4	2198	826.699857441946	348
4	2200	827.742357386421	349
4	2202	828.030533384827	350
4	2204	829.289464885786	351
4	2206	829.556787215735	352
4	2209	829.780513234973	352
4	2211	830.01471852866	353
4	2214	831.090023132368	353
4	2216	833.198483356367	354
4	2218	833.737941371518	355
4	2221	834.064728502538	355
4	2224	835.675055226625	355
4	2226	836.826735715994	356
4	2230	839.309723479079	355
4	2232	839.837678016721	356
4	2234	839.875188432284	357
4	2237	840.261798326874	357
4	2239	840.610472025325	358
4	2241	841.581831697619	359
4	2243	843.252875613795	360
4	2245	843.859851516707	361
4	2247	844.10438076447	362
4	2249	847.649945313494	363
4	2251	848.435583890476	364
4	2254	852.294793243584	364
4	2256	852.324764858681	365
4	2259	852.674184038613	365
4	2261	855.123546170911	366
4	2263	855.187978270638	367
4	2265	855.554548559768	368
4	2268	856.664166771058	368
4	2270	857.475025237498	369
4	2272	857.989944619165	370
4	2274	858.349647144569	371
4	2276	858.520258620359	372
4	2278	858.66838355758	373
4	2284	861.868774403861	370
4	2286	862.026794308378	371
4	2289	862.166080439856	371
4	2292	862.524051047299	371
4	2294	863.257860780578	372
4	2296	863.512653753565	373
4	2302	866.278594819784	370
4	2304	866.916064275962	371
4	2306	866.946899553347	372
4	2308	867.097656567868	373
4	2312	868.326807108789	372
4	2315	869.863580915067	372
4	2317	869.942615465253	373
4	2319	870.330636080597	374
4	2321	870.457405284392	375
4	2324	871.677058749085	375
4	2327	872.044610267155	375
4	2329	872.490669316143	376
4	2332	876.630275969532	376
4	2334	877.007886170959	377
4	2337	877.953560732043	377
4	2339	878.441251318688	378
4	2341	878.740360266997	379
4	2343	879.051545046853	380
4	2345	879.155359528864	381
4	2349	880.132696092669	382
4	2351	880.224864170924	383
4	2355	880.863351749316	382
4	2358	881.577361125999	382
4	2360	882.466255416521	383
4	2363	883.039261148058	383
4	2366	884.762304346248	383
4	2369	885.595970701062	383
4	2372	886.904967909687	383
4	2375	888.077580655348	383
4	2377	888.360129368288	384
4	2382	889.428958538707	384
4	2384	891.351900441108	385
4	2386	891.413890046415	386
4	2389	892.594334860693	386
4	2391	893.048850466112	387
4	2393	893.136992702593	388
4	2399	893.892031104182	387
4	2401	893.92186586817	388
4	2403	894.572566330872	389
4	2405	896.271357082999	390
4	2407	896.627120333001	391
4	2413	900.30739156449	388
4	2415	900.555368510978	389
4	2418	901.07505044692	389
4	2421	901.982540530441	389
4	2423	902.144974824815	390
4	2425	902.397928376531	391
4	2427	903.244518532766	392
4	2430	903.607947328761	392
4	2434	905.850020838647	393
4	2437	906.243253596003	393
4	2439	906.412082748129	394
4	2441	907.630862390157	395
4	2445	910.558271934432	394
4	2447	912.045610338263	395
4	2449	912.46754142928	396
4	2451	914.577094493875	397
4	2454	915.718075481831	397
4	2457	916.434611945824	397
4	2463	920.291833698459	394
4	2466	920.654847299935	394
4	2468	920.985169583956	395
4	2470	923.01799590822	396
4	2472	923.451784723086	397
4	2474	923.77045095989	398
4	2481	926.709178787201	398
4	2483	927.151533397201	399
4	2486	927.773532671144	399
4	2494	931.440743090314	396
4	2497	931.762850036772	396
4	2499	932.626914548213	397
4	2501	932.699326343073	398
4	2504	933.801194201333	398
4	2506	935.134291059885	399
4	2508	936.366755266759	400
4	2510	936.677592348437	401
4	2512	936.705490374898	402
4	2514	937.332228292325	403
4	2516	937.887641685051	404
4	2518	938.38826335243	405
4	2520	938.400003597333	406
4	2523	938.701026635797	406
4	2525	939.063829163267	407
4	2527	939.455175247673	408
4	2530	939.950594758075	408
4	2532	941.000880624815	409
4	2534	941.045632591051	410
4	2536	941.643767090664	411
4	2538	942.666701302646	412
4	2543	943.884437747805	412
4	2546	944.25498878394	412
4	2548	944.621433122349	413
4	2550	945.093437445144	414
4	2552	945.171365785716	415
4	2554	946.028361232701	416
4	2556	946.833381643511	417
4	2558	946.878861502688	418
4	2560	947.83061290647	419
4	2562	948.14590559488	420
4	2567	953.43585578728	420
4	2569	953.458786392012	421
4	2571	953.528683827624	422
4	2573	953.758246090625	423
4	2577	954.5874210752	424
4	2579	955.02957673158	425
4	2581	955.74997215392	426
4	2583	955.780538483909	427
4	2585	956.547900269214	428
4	2589	956.971046226016	427
4	2592	957.428287247788	427
4	2594	958.280697649915	428
4	2597	959.986027829701	428
4	2599	960.681501495571	429
4	2601	961.603757691671	430
4	2603	963.388595983633	431
4	2607	967.647911935683	432
4	2609	968.336079720937	433
4	2611	968.802965254234	434
4	2614	970.579821446058	434
4	2616	971.105163165787	435
4	2618	971.204804484191	436
4	2620	971.642965402784	437
4	2626	973.889687496878	436
4	2628	974.196628725628	437
4	2630	974.347256187635	438
4	2637	976.259062812078	434
4	2639	976.262749677136	435
4	2642	976.461966285055	435
4	2644	976.486705896395	436
4	2646	977.406308855406	437
4	2649	978.068944741702	437
4	2652	978.642104317818	437
4	2654	979.134749210462	438
4	2656	979.284651536866	439
4	2658	979.81938260612	440
4	2660	980.023596546816	441
4	2662	980.30799481092	442
4	2664	980.349060709071	443
4	2666	980.460004274786	444
4	2669	982.457405040883	444
4	2671	983.194601225299	445
4	2673	984.292291275757	446
4	2676	986.525652892996	446
4	2678	987.608876174211	447
4	2681	989.349669255026	447
4	2684	991.268832886407	447
4	2688	992.386408969553	446
4	2690	992.702495297641	447
4	2696	994.254144198398	446
4	2700	995.72752638408	445
4	2702	997.702316722929	446
4	2704	998.076843801877	447
4	2707	999.735899805591	447
4	2709	999.802339203537	448
5	0	0	0
5	4	0.732973562719	0
5	5	1.921237940998	0
5	7	2.205087475468	0
5	8	2.736840194944	0
5	12	4.123742802979	0
5	14	5.117819223172	1
5	16	5.815868221063	2
5	18	6.385435915906	3
5	20	6.422101850198	4
5	21	6.700544531541	4
5	23	6.793711734133	4
5	24	7.738618841022	4
5	25	8.406231175005	3
5	27	9.341154047306	3
5	28	9.38432882487	3
5	30	10.321626535793	3
5	31	10.631897369621	3
5	35	11.301048983544	3
5	36	11.432668037393	3
5	38	11.760004592541	3
5	40	12.037312649611	4
5	42	13.554069854917	5
5	43	13.941728130845	5
5	45	14.125648666291	5
5	46	14.23411812015	5
5	48	14.396346953658	5
5	50	14.693980736405	6
5	54	15.364396669869	7
5	58	16.001230786882	8
5	60	16.004288659006	9
5	62	16.278823093375	10
5	64	16.47942698104	11
5	65	16.511433364665	11
5	67	16.615337649729	11
5	68	17.29671603072	11
5	69	17.355515708283	10
5	70	17.433971391177	9
5	72	18.25420243286	9
5	73	18.370474198518	9
5	75	19.054879440411	9
5	76	19.948664743487	9
5	78	20.511967673654	9
5	80	20.520013703478	10
5	82	20.865283726461	11
5	85	21.902771899421	11
5	86	23.909055918352	10
5	87	25.191953253592	9
5	91	26.168225095977	9
5	93	26.214622154058	10
5	95	27.070785233825	11
5	97	29.588641694375	12
5	99	29.639905623907	13
5	101	29.656068068397	14
5	102	29.899915033352	14
5	103	31.358857497054	13
5	104	31.62813204579	12
5	106	31.769569819551	12
5	107	34.234404001961	12
5	108	35.529709588457	11
5	110	35.840294027727	11
5	111	36.134606392552	11
5	112	36.232589551275	10
5	114	36.686225292632	10
5	115	37.08177019378	10
5	116	37.180455768255	9
5	118	37.937288393999	9
5	120	38.222993499303	10
5	124	39.852722747134	11
5	126	40.054142896164	12
5	127	40.785239166995	12
5	129	41.215139486471	12
5	131	42.230835333104	13
5	132	42.737800286337	13
5	133	43.303378988917	12
5	134	43.520599984145	11
5	136	43.63086225701	11
5	138	43.808633090805	12
5	140	44.016853454113	13
5	142	45.412983327226	14
5	144	45.69197496255	15
5	145	45.810707810874	15
5	146	45.890612138539	14
5	147	46.654742099158	13
5	148	47.020102844312	12
5	151	47.470646826386	11
5	153	47.557506673804	11
5	155	48.166247384954	12
5	156	49.660632586907	12
5	157	50.01819309153	11
5	159	52.936379520376	11
5	160	54.39376106433	11
5	161	54.906642361702	10
5	162	55.124702583124	9
5	163	55.894177955625	8
5	166	57.260796370423	7
5	168	58.441611437695	7
5	170	58.583874917719	8
5	172	59.394719898735	9
5	174	60.800794975625	10
5	176	61.412046634136	11
5	178	62.38340256029	12
5	180	62.408482263793	13
5	182	63.900794735538	14
5	183	63.902185832278	14
5	184	66.460999040658	13
5	186	67.470415647292	13
5	187	67.642813679406	13
5	188	68.853674253995	12
5	189	69.932640598766	11
5	191	70.295403903308	11
5	193	70.296890033727	12
5	195	73.567262338261	13
5	196	73.880357297985	13
5	198	74.851568283377	13
5	199	74.900370665741	13
5	200	75.965701394905	12
5	201	76.196303571708	11
5	203	77.610001251276	11
5	205	77.724948323837	12
5	206	77.763572831857	12
5	207	79.535389703788	11
5	209	80.499331350251	11
5	211	81.172637195466	12
5	213	81.864494472521	13
5	214	82.118171419306	13
5	216	82.145272424993	13
5	218	82.625356173441	14
5	219	82.73549629125	14
5	221	83.730967878881	14
5	223	84.168068316966	15
5	225	84.687448452745	16
5	227	85.165138797767	17
5	229	85.322378594189	18
5	233	85.656101523415	19
5	235	85.861220615852	20
5	236	86.006823397362	20
5	238	86.240382587697	20
5	240	86.503416853749	21
5	241	87.759860562878	21
5	243	88.236014561823	21
5	244	89.05819098233	21
5	247	91.565649187747	20
5	248	91.718966827515	19
5	254	93.331113994925	19
5	256	94.958404823534	20
5	258	95.666835280994	21
5	259	97.245317029466	21
5	260	97.430884659242	20
5	262	98.570162649275	20
5	264	98.686262258312	21
5	266	98.972530416507	22
5	268	99.260420462497	23
5	269	99.579943791375	23
5	271	99.711460512941	23
5	273	100.165097740417	24
5	274	101.457928058191	24
5	275	101.84953875231	23
5	278	103.350878197669	22
5	279	103.548586631405	21
5	281	103.632531506467	21
5	282	104.000912802685	21
5	283	104.019678400721	20
5	284	105.279244774916	19
5	286	106.297531012193	19
5	288	106.317773684283	20
5	290	106.49813388751	21
5	292	107.289330098865	22
5	293	108.805438450388	22
5	294	109.167206884257	21
5	296	109.192519996724	21
5	298	109.426189036956	22
5	301	110.631998059545	22
5	304	113.543853383753	21
5	305	113.696638999914	20
5	307	113.719853982464	20
5	309	114.496897635921	21
5	310	116.59376922925	21
5	313	117.471627444146	20
5	315	119.266334782507	20
5	317	119.863382865459	21
5	319	121.434625263823	22
5	320	122.117886914039	22
5	322	122.333850147834	22
5	323	122.390486325736	22
5	325	122.95617890189	22
5	327	123.904164871506	23
5	329	124.031065528755	24
5	331	124.507280862093	25
5	333	125.688361205063	26
5	335	127.095018804126	27
5	337	127.272090337212	28
5	338	128.106283962999	28
5	340	128.136921127857	28
5	342	128.566594221701	29
5	346	128.762831542066	30
5	348	128.839686273389	31
5	349	129.231038655119	31
5	350	130.386459771271	30
5	351	130.489199006308	29
5	353	130.976381742244	29
5	355	131.965301077186	30
5	357	132.330953961955	31
5	359	132.783643092046	32
5	361	133.899827513031	33
5	363	135.202319842721	34
5	365	135.542737706555	35
5	367	136.062468267574	36
5	369	136.771897066814	37
5	374	138.784614893234	37
5	376	140.1444017092	37
5	378	142.266658173567	38
5	379	142.57892158531	38
5	380	143.573700144691	37
5	382	144.938345629167	37
5	384	144.970733855201	38
5	386	145.811944178836	39
5	389	147.098016424898	39
5	391	147.569497760921	39
5	393	147.586169378316	40
5	395	148.507948264832	41
5	397	148.712635939331	42
5	399	148.834018628923	43
5	400	150.2710363209	43
5	402	150.782885770619	43
5	404	151.202092481445	44
5	406	151.651495170817	45
5	408	152.338313889039	46
5	410	152.836719096264	47
5	412	153.061514283472	48
5	413	153.752359309374	48
5	415	155.089159207659	48
5	417	155.142505915255	49
5	419	156.508732805494	50
5	421	157.427242251489	51
5	422	158.168627344866	51
5	424	158.362889893817	51
5	425	158.656973494685	51
5	427	159.536608787294	51
5	429	159.635967994206	52
5	430	159.779305211803	52
5	431	159.905748839397	51
5	433	160.057243854874	51
5	435	160.584936649981	52
5	437	160.748173846152	53
5	439	161.297614695867	54
5	441	162.636609510181	55
5	442	162.932300847828	55
5	443	164.21238648355	54
5	445	164.910734538726	54
5	446	165.293624037814	54
5	448	166.476616500465	54
5	449	166.936464764471	54
5	451	167.371009312477	54
5	453	168.771821857959	55
5	454	168.964962933456	55
5	455	169.139141205556	54
5	456	170.003580431678	53
5	457	170.384010827947	52
5	458	170.566830030061	51
5	459	170.64482952152	50
5	461	171.786008448694	50
5	465	173.533783329939	51
5	466	173.783007013363	51
5	467	174.019317895487	50
5	468	174.302647169932	49
5	469	174.55473399041	48
5	471	176.009356339714	48
5	472	177.123632851053	48
5	474	177.19394864148	48
5	476	177.385933437437	49
5	478	179.01975486385	50
5	479	179.769252447253	50
5	481	179.90825515922	50
5	482	180.377927519585	50
5	483	180.715754160237	49
5	484	180.894083594958	48
5	485	181.849183505831	47
5	489	182.454738418307	47
5	490	182.937193926209	47
5	492	183.048745403131	47
5	493	183.460442149222	47
5	494	184.524326914225	46
5	496	185.077469156814	46
5	498	185.170384943929	47
5	500	187.698386660456	48
5	502	188.39171628885	49
5	504	188.547169459601	50
5	508	188.981602096098	51
5	510	189.070330809482	52
5	511	189.567156183553	52
5	513	189.646784240352	52
5	515	191.151075394196	53
5	518	192.856961296125	53
5	520	193.494625104084	53
5	521	194.085070158905	53
5	522	194.527410323471	52
5	524	194.642294624603	52
5	525	195.220057992559	52
5	526	195.655839431387	51
5	528	196.67720032048	51
5	529	198.393688392477	51
5	531	198.651194095628	51
5	533	199.09193953284	52
5	535	199.163518189482	53
5	537	199.895030346923	54
5	538	200.124713796975	54
5	539	201.940134060821	53
5	541	202.016102766046	53
5	542	203.96830241687	53
5	544	204.131836941437	53
5	546	204.522582559561	54
5	547	205.566240337895	54
5	550	205.878537760337	53
5	552	206.011016285862	53
5	554	206.447140039976	54
5	556	206.689739245424	55
5	558	206.973430538954	56
5	560	207.682469937909	57
5	562	208.587901236024	58
5	564	208.796119694891	59
5	565	208.967871985841	59
5	566	208.993687172946	58
5	568	209.266212394952	58
5	570	209.654065910208	59
5	571	209.716995858978	59
5	572	210.121559273582	58
5	573	211.106333372396	57
5	575	211.193888589249	57
5	577	211.813025191731	58
5	578	212.016466462176	58
5	579	213.094751214532	57
5	581	214.189305978175	57
5	583	215.402410877295	58
5	585	215.407051856173	59
5	587	215.524369724142	60
5	589	215.915869214631	61
5	591	216.927004684883	62
5	592	217.265059972364	62
5	593	218.337633014481	61
5	594	218.538898783088	60
5	598	219.460913981378	60
5	600	219.464587493442	61
5	602	219.608602084974	62
5	604	220.232150231236	63
5	605	220.957320340705	63
5	607	221.404455987948	63
5	609	221.48028446755	64
5	611	221.669426530366	65
5	612	222.297893121603	65
5	614	223.812092649847	65
5	615	224.204550291964	65
5	617	224.343271897876	65
5	618	224.859702238804	65
5	620	226.394152935213	65
5	624	227.820662079311	66
5	626	229.068692559956	67
5	627	229.307123084583	67
5	629	229.994216730119	67
5	631	230.850129171259	68
5	637	231.953434308178	69
5	639	232.212662426388	70
5	641	232.45026915004	71
5	642	232.564866263878	71
5	643	232.688114522571	70
5	644	232.791355301953	69
5	646	233.576346675511	69
5	648	233.752252637713	70
5	649	235.000687612551	70
5	651	236.45695638191	70
5	653	237.247518422606	71
5	655	237.877020236639	72
5	659	239.252972910683	73
5	661	241.621660615923	74
5	663	241.731338412599	75
5	664	242.3654301023	75
5	665	243.269785005568	74
5	667	243.992499318946	74
5	671	245.343922234744	75
5	675	246.436741963695	76
5	676	247.96266947153	76
5	678	248.548104937486	76
5	679	249.104745801533	76
5	682	250.07899478827	75
5	684	250.384194289532	75
5	685	250.480467631469	75
5	687	252.522670197538	75
5	689	253.257095584176	76
5	693	255.175673576849	77
5	694	255.726471749109	77
5	695	256.383407562713	76
5	697	256.801548316265	76
5	698	256.808261055212	76
5	700	257.542046070551	76
5	702	257.550874545135	77
5	704	257.724948821884	78
5	706	258.813100308251	79
5	708	259.109113410532	80
5	710	259.640603908749	81
5	711	259.930783364811	81
5	713	261.163084012528	81
5	715	262.424033279034	82
5	716	262.649168100158	82
5	717	263.212619687911	81
5	718	264.557399131004	80
5	719	264.703653815675	79
5	721	265.622194001045	79
5	722	266.18022761113	79
5	724	266.355619565926	79
5	726	266.441316671271	80
5	728	267.397081967026	81
5	730	268.197555384515	82
5	732	268.97552161032	83
5	734	269.433515303027	84
5	735	271.512592986557	84
5	737	272.157201267167	84
5	738	272.261727543422	84
5	742	273.681194807205	84
5	744	273.862497459803	85
5	745	273.874880243505	85
5	748	274.603709269189	84
5	749	275.855038070304	83
5	750	276.771488040724	82
5	752	277.320976265273	82
5	754	277.448715329336	83
5	756	277.756987147752	84
5	758	278.047035146631	85
5	760	278.312585060785	86
5	761	278.795054259304	86
5	763	279.733468366746	86
5	764	280.16545843034	86
5	765	280.229299131118	85
5	767	280.361275121299	85
5	768	281.753772873999	85
5	769	281.853975499021	84
5	770	282.062462203897	83
5	771	282.426029719829	82
5	773	282.528077622025	82
5	775	283.464980701356	83
5	777	284.383783353342	84
5	780	285.491435493697	84
5	781	285.507117575393	83
5	783	285.853825495443	83
5	785	286.994642593404	84
5	787	286.99671416596	85
5	789	287.005103879371	86
5	791	288.674796036966	87
5	793	289.092621249137	88
5	795	289.838207501437	89
5	796	290.02649184413	89
5	797	290.624629329792	88
5	799	290.626833449449	88
5	800	291.071697831857	88
5	802	291.758806352836	88
5	803	291.773584003899	88
5	805	292.230031220509	88
5	806	292.92455366569	88
5	808	295.130018609298	88
5	810	295.331685788672	89
5	811	295.814807756324	89
5	813	296.659903487269	89
5	815	296.774023159861	90
5	816	296.965556186808	90
5	817	297.149594906034	89
5	818	297.322438126343	88
5	820	298.055370368118	88
5	822	298.418554953369	89
5	824	299.047745564986	90
5	825	300.579743446174	90
5	826	300.889192201836	89
5	828	301.976532203366	89
5	829	302.099828227375	89
5	830	303.100928188417	88
5	832	304.465661501705	88
5	834	304.708930913159	89
5	836	304.961025010559	90
5	837	305.305536280053	90
5	839	305.710047887876	90
5	841	306.129560421808	91
5	843	307.435680288039	92
5	844	308.528216698382	92
5	846	309.762116065247	92
5	848	311.619961078727	93
5	850	311.810813118057	94
5	853	313.822705154821	94
5	855	314.264545717913	94
5	857	314.621380355578	95
5	858	315.483517966392	95
5	859	315.998863036739	94
5	861	316.171028929361	94
5	863	317.916345655636	95
5	865	319.883991403321	96
5	866	322.71726002788	96
5	867	323.174436446847	95
5	868	323.339812376804	94
5	870	323.941236561381	94
5	872	325.301137426409	95
5	874	326.101909981432	96
5	875	326.350800180223	96
5	877	327.272601685365	96
5	879	327.288003430206	97
5	881	327.664871177403	98
5	883	327.699581495774	99
5	885	327.701296281601	100
5	887	327.739362170684	101
5	888	328.916004498046	101
5	890	329.405466895135	101
5	891	330.293987627835	101
5	892	330.315067668368	100
5	893	330.444157768077	99
5	895	331.548710356954	99
5	897	331.990557562739	100
5	899	332.250528302014	101
5	901	333.585264494989	102
5	903	333.867940878235	103
5	905	333.953780532821	104
5	906	335.113459634108	104
5	907	336.137225421134	103
5	908	336.809525819686	102
5	909	337.286781803654	101
5	910	337.832904544128	100
5	912	337.862081260104	100
5	913	338.723171382744	100
5	915	339.091310551941	100
5	918	340.977931667651	100
5	920	341.789909486395	100
5	921	342.346476359309	100
5	923	342.676162981553	100
5	925	342.676588403559	101
5	931	344.962467163012	102
5	933	344.989233188554	103
5	934	345.574632958798	103
5	938	345.911026611187	103
5	940	346.533438095528	104
5	941	348.678675989592	104
5	943	349.164811023537	104
5	945	349.698301419523	105
5	947	349.877123318804	106
5	948	350.120650612179	106
5	950	351.270140283609	106
5	952	351.554270978943	107
5	954	352.172954166431	108
5	956	352.304374460279	109
5	958	352.420749643403	110
5	964	354.328553060057	111
5	966	356.549567905543	112
5	967	356.568576390583	112
5	969	357.068386535833	112
5	970	357.311805593606	112
5	972	359.756143950521	112
5	973	359.862594932761	112
5	975	360.491182676733	112
5	977	360.686193447829	113
5	979	361.065237180964	114
5	980	361.184810376471	114
5	982	362.078564345883	114
5	984	362.877275338507	115
5	986	362.927145502395	116
5	988	363.612945245405	117
5	989	363.884972362512	117
5	990	363.95615028742	116
5	991	364.031956715747	115
5	993	364.794851285019	115
5	995	364.807959663095	116
5	997	364.952055325049	117
5	999	365.637269280192	118
5	1000	365.847877618282	118
5	1001	366.677391208388	117
5	1003	367.395645181639	117
5	1005	367.479963753027	118
5	1007	367.549108878391	119
5	1009	368.222669605383	120
5	1011	368.845112909118	121
5	1013	371.200283473767	122
5	1017	371.794566112022	123
5	1019	371.877493610301	124
5	1021	372.767091757789	125
5	1023	373.115707108012	126
5	1025	373.511152313386	127
5	1027	373.837715109837	128
5	1029	374.684255233757	129
5	1031	375.233924484017	130
5	1033	375.557789756498	131
5	1037	376.399782594699	132
5	1038	376.87558483755	132
5	1040	377.168548227162	132
5	1042	377.887464401319	133
5	1044	377.997973859427	134
5	1046	378.618143478389	135
5	1047	379.537096800422	135
5	1049	380.704802141152	135
5	1052	381.384658890398	135
5	1054	381.666879621642	135
5	1055	383.593500552337	135
5	1056	383.871829926706	134
5	1058	384.571911705138	134
5	1059	384.930445877309	134
5	1061	385.383855274349	134
5	1063	386.222728740984	135
5	1064	387.63455970984	135
5	1066	387.857829753595	135
5	1068	389.44393380091	136
5	1070	389.673236133837	137
5	1074	390.549732290163	138
5	1076	391.032740760732	139
5	1081	392.652631828955	139
5	1082	393.512293565693	138
5	1083	394.308176367801	137
5	1087	394.990172063956	137
5	1089	395.622503149715	138
5	1090	395.630110174694	138
5	1092	395.834448679306	138
5	1094	395.91844839514	139
5	1096	397.280924275733	140
5	1098	397.805931528347	141
5	1099	398.153918952462	141
5	1101	398.188706087066	141
5	1102	398.39108150158	141
5	1104	399.006737353937	141
5	1106	399.652129892346	142
5	1108	400.232025097328	143
5	1111	402.099864172615	143
5	1112	402.129436572161	142
5	1114	402.376278337727	142
5	1115	402.494795415059	142
5	1117	403.67550605327	142
5	1119	404.179216026068	143
5	1121	404.208659175349	144
5	1123	404.753079981632	145
5	1125	407.571543460163	146
5	1127	408.682436427478	147
5	1129	408.703323702054	148
5	1131	410.829273568412	149
5	1132	411.578010125593	149
5	1133	413.004523048793	148
5	1137	413.787157224554	148
5	1139	414.177408386866	149
5	1140	414.925711403904	149
5	1144	416.54372923267	149
5	1146	417.001576062346	150
5	1148	417.543062609795	151
5	1150	418.893803600278	152
5	1152	419.295922701547	153
5	1154	420.041170736913	154
5	1156	420.958511210566	155
5	1158	420.972107007039	156
5	1159	421.513640058103	156
5	1161	421.958323178955	156
5	1162	422.172191823609	156
5	1164	422.521174801136	156
5	1166	422.95292263032	157
5	1168	423.803890473083	158
5	1170	424.446118632672	159
5	1172	424.867904957775	160
5	1174	425.43190828979	161
5	1176	425.508144552405	162
5	1178	425.876927245829	163
5	1180	426.2048925288	164
5	1181	426.737838111302	164
5	1183	427.819931860977	164
5	1185	427.953366246426	165
5	1186	428.327099943146	165
5	1188	428.701324936941	165
5	1190	430.266847861926	166
5	1192	430.754805564829	167
5	1193	431.192417734307	167
5	1194	432.179487199527	166
5	1196	432.368464153812	166
5	1197	432.439509898214	166
5	1198	432.559453251782	165
5	1201	433.773287943479	164
5	1205	434.285923009755	164
5	1207	435.301735276448	165
5	1209	435.313044295662	166
5	1210	436.080353218126	166
5	1211	436.915537892079	165
5	1213	437.534088875533	165
5	1215	439.353215496823	166
5	1217	441.292297700463	167
5	1219	441.387056716859	168
5	1222	444.482629058359	168
5	1224	445.081897300312	168
5	1226	445.83401741984	169
5	1227	447.019624721809	169
5	1228	447.198446823618	168
5	1230	448.400368730433	168
5	1232	448.598636913723	169
5	1234	449.323360343831	170
5	1235	449.585036355199	170
5	1237	449.887888329207	170
5	1238	450.137191459373	170
5	1239	450.536342820742	169
5	1241	450.586588259625	169
5	1243	450.598939316435	170
5	1245	450.814618671133	171
5	1246	450.945095240299	171
5	1247	451.842998707832	170
5	1249	451.950694362144	170
5	1252	453.304905786413	170
5	1254	453.856454730619	170
5	1255	455.150285850716	170
5	1256	455.398051346173	169
5	1260	457.769614000242	169
5	1261	458.080813012817	169
5	1263	458.715658978838	169
5	1267	460.966606254315	170
5	1268	461.830414704916	170
5	1270	462.047777665562	170
5	1272	462.789030056844	171
5	1274	463.187270407009	172
5	1276	463.492955472749	173
5	1278	463.827169723421	174
5	1279	464.423884999379	174
5	1281	465.850359249205	174
5	1283	466.243994152352	175
5	1285	467.121163379275	176
5	1286	467.199278985789	176
5	1287	467.271660044606	175
5	1289	467.298215401601	175
5	1291	468.424361463451	176
5	1292	468.713997140082	176
5	1294	468.89413998198	176
5	1296	468.90464655689	177
5	1298	469.782405004013	178
5	1300	469.8111235023	179
5	1302	470.50995552986	180
5	1304	470.955256543525	181
5	1306	471.334277651874	182
5	1307	472.309922239936	182
5	1309	473.445899655361	182
5	1310	473.755750669995	182
5	1312	474.791146894334	182
5	1314	475.396314636861	183
5	1316	475.948664625799	184
5	1318	476.624501487918	185
5	1319	477.279756962784	185
5	1321	478.056147699361	185
5	1323	478.730778796686	186
5	1325	478.80801810636	187
5	1326	479.084149123326	187
5	1327	479.086125040764	186
5	1328	479.293641643364	185
5	1330	481.048493680213	185
5	1331	482.296829350027	185
5	1333	483.362451601171	185
5	1335	483.399622040316	186
5	1337	483.954952274612	187
5	1341	484.659740189808	188
5	1343	485.896928191808	189
5	1345	486.611829218588	190
5	1347	486.843125466036	191
5	1348	487.485069444137	191
5	1350	487.802440171351	191
5	1352	487.87084402566	192
5	1354	488.254575973119	193
5	1356	488.827298334534	194
5	1358	489.795302194454	195
5	1360	490.612311500651	196
5	1362	491.556075666824	197
5	1363	491.558861229529	197
5	1364	491.699831696187	196
5	1366	492.226918134889	196
5	1368	492.822949077967	197
5	1369	492.982190334027	197
5	1370	493.089145754966	196
5	1372	494.416103406707	196
5	1373	495.573228989752	196
5	1374	495.857849656784	195
5	1376	496.666417599743	195
5	1378	497.335376302557	196
5	1379	497.562703663709	196
5	1381	497.904133986223	196
5	1383	498.13556114956	197
5	1385	498.257116781726	198
5	1386	498.550849758675	198
5	1388	500.784620508478	198
5	1390	501.917442787187	199
5	1392	502.178181163971	200
5	1394	502.657504503643	201
5	1395	503.597578174777	201
5	1397	505.16937266539	201
5	1398	505.518581770898	201
5	1402	507.039052026397	201
5	1404	507.09804836349	202
5	1406	507.655028116231	203
5	1410	511.031151117838	204
5	1412	511.588220660424	205
5	1414	513.087782858618	206
5	1415	513.349878027003	206
5	1417	515.929353647465	206
5	1418	516.267428416397	206
5	1420	517.225150328032	206
5	1421	518.310337599011	206
5	1423	518.673008899791	206
5	1425	518.733722622122	207
5	1427	518.743175415602	208
5	1428	519.001405589052	208
5	1430	519.937027130206	208
5	1435	524.689932653054	208
5	1436	525.2212342106	207
5	1438	526.473182656949	207
5	1440	526.816442992252	208
5	1442	527.126215401671	209
5	1443	528.575539912949	209
5	1444	528.95095976879	208
5	1446	530.294766209605	208
5	1448	530.347849054716	209
5	1450	530.393465392722	210
5	1452	531.371954902041	211
5	1454	532.456911121339	212
5	1455	532.554568688076	212
5	1456	534.168412756135	211
5	1458	534.321406629179	211
5	1459	535.009022184689	211
5	1461	535.222670513013	211
5	1462	535.523170201691	211
5	1464	537.689811280085	211
5	1465	537.90289247223	211
5	1466	538.695347270553	210
5	1468	538.707020428121	210
5	1469	539.948297847879	210
5	1470	540.485135428404	209
5	1472	541.223637593448	209
5	1473	541.285747747732	209
5	1474	541.406991547443	208
5	1476	541.717470680645	208
5	1478	542.069751020404	209
5	1480	543.932700409298	210
5	1482	543.962550199832	211
5	1484	544.242905511498	212
5	1485	544.321834157899	212
5	1486	544.435809381583	211
5	1487	545.115774899741	210
5	1488	545.137897269888	209
5	1490	545.244765529906	209
5	1492	545.3118529774	210
5	1496	545.738916217826	211
5	1497	545.819621586726	211
5	1498	547.026800286725	210
5	1500	547.340784545243	210
5	1502	548.856291696436	211
5	1503	548.857009932587	211
5	1504	550.989955826351	210
5	1506	551.477029411032	210
5	1508	552.506405451182	211
5	1509	552.52329423221	211
5	1511	552.769441252548	211
5	1513	553.225233969684	212
5	1515	553.576332432656	213
5	1516	553.986545719244	213
5	1520	554.975827724328	213
5	1521	555.310999220716	213
5	1525	556.08262131413	213
5	1527	556.474511915957	214
5	1529	557.431982446798	215
5	1531	557.479819858874	216
5	1533	559.224057295199	217
5	1535	559.682014563569	218
5	1537	560.406127696213	219
5	1539	561.373874829034	220
5	1540	562.476402542126	220
5	1541	562.978064825329	219
5	1543	563.604062640054	219
5	1547	566.424495519551	220
5	1549	566.868462442923	221
5	1551	567.293618508788	222
5	1553	567.445148068392	223
5	1554	567.531818775642	223
5	1556	567.762604141512	223
5	1557	567.789349480053	223
5	1559	568.588345971653	223
5	1561	568.976058423487	224
5	1563	569.716769861201	225
5	1565	570.894572791579	226
5	1567	571.089760356246	227
5	1569	571.39617852669	228
5	1571	571.981561819168	229
5	1573	573.083927201146	230
5	1575	574.858522976322	231
5	1577	576.398597950377	232
5	1578	576.797939812487	232
5	1580	577.070054626433	232
5	1582	577.08900559296	233
5	1584	577.267048506802	234
5	1586	579.786681216404	235
5	1588	580.544358811406	236
5	1589	580.598619101788	236
5	1591	580.874350038533	236
5	1593	580.959840628353	237
5	1595	582.294340932948	238
5	1596	582.778382306174	238
5	1598	584.147787563254	238
5	1600	585.144138809693	239
5	1602	585.838988881409	240
5	1604	586.515323685567	241
5	1605	586.549954327499	241
5	1606	586.79329811633	240
5	1610	588.086134315128	240
5	1613	588.672341715047	240
5	1615	593.077266200809	240
5	1617	593.093024142108	241
5	1619	593.315694262845	242
5	1621	593.553756576714	243
5	1622	594.966587859943	243
5	1624	596.414125622169	243
5	1625	597.084152776858	243
5	1627	597.204762212652	243
5	1628	598.08884537688	243
5	1630	598.365265975247	243
5	1632	599.594281161033	244
5	1634	599.831815124575	245
5	1635	600.128158051451	245
5	1636	600.722192245165	244
5	1638	601.102506961472	244
5	1640	601.676655472875	245
5	1642	602.052442131379	246
5	1644	602.204242305234	247
5	1646	602.567742504263	248
5	1648	603.517118811229	249
5	1650	605.163672232912	250
5	1652	605.778061732219	251
5	1654	606.477315646031	252
5	1658	607.600820342843	253
5	1659	608.265646486274	253
5	1661	608.912481566215	253
5	1662	609.496881146065	253
5	1663	613.084566437458	252
5	1665	613.130825829693	252
5	1667	614.250635282577	253
5	1669	616.229903979935	254
5	1671	616.262040815133	255
5	1673	616.307828281195	256
5	1674	617.328268114762	256
5	1676	619.820812887035	256
5	1678	619.940284403817	257
5	1680	620.041169127578	258
5	1681	620.637078168089	258
5	1682	622.161511541621	257
5	1684	622.187863491342	257
5	1685	622.292345147448	257
5	1686	622.369302916987	256
5	1688	624.166851696007	256
5	1690	624.52891077084	257
5	1692	624.953902544943	258
5	1696	627.242441494351	259
5	1698	627.42549599087	260
5	1700	628.400656181007	261
5	1702	628.420791403946	262
5	1704	628.650647482208	263
5	1706	629.097670665791	264
5	1708	629.59745141878	265
5	1710	629.610872620294	266
5	1712	629.623901451818	267
5	1714	630.654881213932	268
5	1715	630.684556389847	268
5	1716	631.466162294352	267
5	1717	631.56906676594	266
5	1719	632.712566179374	266
5	1720	633.940755581534	266
5	1722	634.0981329329	266
5	1724	634.497720804457	267
5	1726	635.299129991062	268
5	1728	635.433331023087	269
5	1730	636.154869085919	270
5	1732	636.553358810364	271
5	1734	636.897297538525	272
5	1735	637.246380904421	272
5	1737	637.877310926379	272
5	1738	638.129750462047	272
5	1740	638.733695336826	272
5	1742	638.849070785049	273
5	1743	638.883945837811	273
5	1745	639.372540294114	273
5	1747	641.010223849028	274
5	1749	642.84070338535	275
5	1751	643.727366778066	276
5	1752	643.789673596922	276
5	1753	644.170780116258	275
5	1755	644.524276067852	275
5	1757	645.025024386749	276
5	1758	645.211138056992	276
5	1759	645.58186595007	275
5	1761	646.29961508563	275
5	1763	646.704295402309	276
5	1765	646.992864496763	277
5	1768	648.926403329413	277
5	1769	649.071029969883	276
5	1771	649.548358571442	276
5	1773	649.81551641602	277
5	1774	650.305657269147	277
5	1776	650.620004565138	277
5	1778	650.676131541227	278
5	1780	651.866653900403	279
5	1781	652.224441885013	279
5	1782	652.804886495852	278
5	1784	653.482068965481	278
5	1786	654.116710364695	279
5	1788	655.042837132554	280
5	1791	656.644883344105	280
5	1793	657.244024141192	280
5	1795	657.25520282486	281
5	1796	657.907749499542	281
5	1797	657.972025199687	280
5	1798	658.017254697194	279
5	1800	658.37035951707	279
5	1801	658.511414240003	279
5	1802	658.853664461759	278
5	1804	659.166032358775	278
5	1805	659.434305474882	278
5	1806	659.51403388181	277
5	1808	659.571610369692	277
5	1809	660.21750737536	277
5	1811	661.075356192377	277
5	1813	661.974231218337	278
5	1815	663.03122160274	279
5	1817	663.222050756447	280
5	1819	663.297680296853	281
5	1821	664.892674155631	282
5	1822	665.176575850659	282
5	1824	665.357599797333	282
5	1825	665.547575343326	282
5	1827	665.706074022121	282
5	1829	666.379801182908	283
5	1831	667.438534404048	284
5	1833	668.03124737756	285
5	1835	668.090711516397	286
5	1837	669.808335396413	287
5	1839	670.403818778127	288
5	1842	670.789941280413	288
5	1844	670.956188350098	288
5	1846	673.060788218856	289
5	1847	673.145534259543	289
5	1848	673.162507106298	288
5	1850	674.383344325337	288
5	1852	674.852794897095	289
5	1854	676.039613903997	290
5	1855	676.92619501485	290
5	1857	677.353559280296	290
5	1859	677.416312444164	291
5	1861	677.474023453951	292
5	1863	677.782979728603	293
5	1865	678.362425574578	294
5	1868	679.253563377121	294
5	1870	679.890170685701	294
5	1872	680.781649342379	295
5	1873	682.891125224956	295
5	1875	684.001436117724	295
5	1877	684.118084122332	296
5	1879	688.498107110329	297
5	1881	689.241739161713	298
5	1882	689.746568197368	298
5	1884	691.218180793686	298
5	1886	691.387282679811	299
5	1887	693.396477599148	299
5	1889	693.554049745332	299
5	1891	695.614005000113	300
5	1892	695.659153044714	300
5	1894	696.219437827973	300
5	1896	696.533400520339	301
5	1898	697.632293402776	302
5	1899	698.083416515468	302
5	1900	698.28898089431	301
5	1901	698.459208083753	300
5	1903	698.546445302739	300
5	1905	699.995813485603	301
5	1906	702.010327807312	301
5	1908	702.026281970924	301
5	1910	702.475508323753	302
5	1912	702.968508160724	303
5	1913	704.172410959304	303
5	1915	704.820748579564	303
5	1917	706.001709095267	304
5	1920	708.002451034681	304
5	1921	708.636543801963	303
5	1923	708.732610911734	303
5	1925	708.780358310513	304
5	1927	708.906633812792	305
5	1929	710.756308088137	306
5	1931	711.626277575717	307
5	1933	713.90567974653	308
5	1934	714.311880326196	308
5	1936	714.342006408426	308
5	1937	714.363473448482	308
5	1938	714.770691278011	307
5	1939	716.200747906905	306
5	1941	716.569402067501	306
5	1943	718.321141153836	307
5	1945	719.660743084002	308
5	1947	722.328160339741	309
5	1948	723.461276835745	309
5	1949	723.856904850885	308
5	1951	726.332526901545	308
5	1953	727.170837226413	309
5	1954	727.936149659835	309
5	1957	729.213415071293	308
5	1958	730.853884803907	307
5	1959	730.990353738755	306
5	1961	731.655763398609	306
5	1962	733.649947855335	306
5	1964	733.806940233637	306
5	1966	734.083418423657	307
5	1968	734.299674219546	308
5	1969	734.927068815859	308
5	1970	734.99339412519	307
5	1971	735.318862374712	306
5	1973	735.583677703367	306
5	1974	735.753247798736	306
5	1976	735.77258931044	306
5	1978	737.05719871694	307
5	1980	737.494919285457	308
5	1982	739.121514140175	309
5	1984	739.513164838551	310
5	1986	740.578109148463	311
5	1988	740.627204796911	312
5	1990	743.19390137279	313
5	1992	744.950787023168	314
5	1993	745.393568891992	314
5	1995	746.09315935468	314
5	1997	746.834368575796	315
5	1999	747.333045427491	316
5	2001	748.678599404226	317
5	2002	749.276461109114	317
5	2004	749.98691832573	317
5	2008	750.076678173341	318
5	2010	750.088848838693	319
5	2011	751.009522368479	319
5	2015	752.477002263934	319
5	2016	752.76668289178	319
5	2017	754.157228095142	318
5	2019	754.451780905155	318
5	2020	755.3300520064	318
5	2022	755.45811386115	318
5	2023	755.506379117727	318
5	2025	756.250270714313	318
5	2026	757.243925862494	318
5	2028	757.568024026757	318
5	2030	758.247349062774	319
5	2032	758.368720524602	320
5	2034	759.590805019458	321
5	2036	760.273176733063	322
5	2038	761.992451102418	323
5	2040	762.047172855959	324
5	2042	763.580633106187	325
5	2043	763.850180497308	325
5	2045	764.412415601173	325
5	2046	765.176389066963	325
5	2048	766.307334366888	325
5	2050	766.922071583341	326
5	2052	768.073801969322	327
5	2054	768.427175432015	328
5	2055	768.484743690279	328
5	2059	772.265687765164	328
5	2060	772.470270359393	328
5	2062	772.513474439921	328
5	2063	774.756151238524	328
5	2065	775.869793712165	328
5	2067	776.109666331975	329
5	2068	776.242062133328	329
5	2070	777.691194171162	329
5	2071	777.88679902164	329
5	2073	779.573627435848	329
5	2075	780.293822435019	330
5	2077	780.538052668535	331
5	2079	781.966356911582	332
5	2080	783.122008582435	332
5	2081	783.383251730052	331
5	2082	783.907861145259	330
5	2084	784.006420481607	330
5	2086	784.220234605484	331
5	2088	784.767010515178	332
5	2092	785.103436100053	333
5	2094	785.882233185375	334
5	2095	786.199463535161	334
5	2097	786.38316114565	334
5	2100	787.065648789844	334
5	2102	787.1450764001	334
5	2103	789.079327865268	334
5	2105	789.511804610629	334
5	2106	789.699454290263	334
5	2108	790.164694563501	334
5	2110	791.788013689312	335
5	2111	792.616577060423	335
5	2113	794.627297770192	335
5	2116	795.579772709479	335
5	2118	795.620656603741	335
5	2120	796.105663524937	336
5	2122	796.692162369809	337
5	2124	796.739330938492	338
5	2125	797.7256077654	338
5	2127	798.135183775195	338
5	2129	798.185099502198	339
5	2131	798.216280981193	340
5	2132	798.873416919893	340
5	2134	799.619406404683	340
5	2136	800.636001324867	341
5	2138	800.849767172708	342
5	2139	801.409921613928	342
5	2141	802.779627091901	342
5	2143	803.300670590269	343
5	2144	803.557006041482	343
5	2146	803.686706233753	343
5	2147	804.687584814396	343
5	2148	805.228160725838	342
5	2150	805.412404801363	342
5	2152	805.532506977963	343
5	2153	806.088960203033	343
5	2155	806.278030872964	343
5	2156	806.887416804015	343
5	2157	808.106238855337	342
5	2158	808.228106768275	341
5	2160	808.613306909021	341
5	2161	808.982080683595	341
5	2163	809.098635576535	341
5	2165	809.237336050167	342
5	2167	809.968000587836	343
5	2169	810.663886664866	344
5	2171	810.713899453403	345
5	2173	811.038341988566	346
5	2175	812.193433841636	347
5	2179	815.664776962167	348
5	2180	816.075792133081	348
5	2181	817.41352206545	347
5	2182	817.484904740663	346
5	2183	817.619444979561	345
5	2184	817.647587526308	344
5	2186	818.071892989256	344
5	2188	819.272087362782	345
5	2190	820.263130131195	346
5	2191	820.979334779481	346
5	2193	822.626704841697	346
5	2194	823.4469716775	346
5	2196	825.147668628354	346
5	2198	826.699857441946	347
5	2200	827.742357386421	348
5	2202	828.030533384827	349
5	2204	829.289464885786	350
5	2206	829.556787215735	351
5	2207	829.619223656875	351
5	2209	829.780513234973	351
5	2211	830.01471852866	352
5	2212	830.59550675932	352
5	2214	831.090023132368	352
5	2216	833.198483356367	353
5	2218	833.737941371518	354
5	2219	833.850465515681	354
5	2221	834.064728502538	354
5	2222	835.384341114455	354
5	2224	835.675055226625	354
5	2226	836.826735715994	355
5	2227	836.967411417527	355
5	2228	838.98977269414	354
5	2230	839.309723479079	354
5	2232	839.837678016721	355
5	2234	839.875188432284	356
5	2235	839.926970993422	356
5	2237	840.261798326874	356
5	2239	840.610472025325	357
5	2241	841.581831697619	358
5	2243	843.252875613795	359
5	2245	843.859851516707	360
5	2247	844.10438076447	361
5	2249	847.649945313494	362
5	2251	848.435583890476	363
5	2252	848.525671688311	363
5	2254	852.294793243584	363
5	2256	852.324764858681	364
5	2257	852.565926532251	364
5	2259	852.674184038613	364
5	2261	855.123546170911	365
5	2263	855.187978270638	366
5	2265	855.554548559768	367
5	2266	856.262516559627	367
5	2268	856.664166771058	367
5	2270	857.475025237498	368
5	2272	857.989944619165	369
5	2274	858.349647144569	370
5	2276	858.520258620359	371
5	2278	858.66838355758	372
5	2279	859.086685828662	372
5	2280	859.169043303683	371
5	2281	860.532133478285	370
5	2282	861.304445048518	369
5	2284	861.868774403861	369
5	2286	862.026794308378	370
5	2287	862.155318461597	370
5	2289	862.166080439856	370
5	2290	862.432870503151	370
5	2292	862.524051047299	370
5	2294	863.257860780578	371
5	2296	863.512653753565	372
5	2297	864.670777500605	372
5	2298	865.114829397289	371
5	2299	865.944643664625	370
5	2300	866.016777927061	369
5	2302	866.278594819784	369
5	2304	866.916064275962	370
5	2306	866.946899553347	371
5	2308	867.097656567868	372
5	2309	867.257782624951	372
5	2310	867.488573249498	371
5	2312	868.326807108789	371
5	2313	868.718333098053	371
5	2315	869.863580915067	371
5	2317	869.942615465253	372
5	2319	870.330636080597	373
5	2321	870.457405284392	374
5	2322	870.888657256321	374
5	2324	871.677058749085	374
5	2325	872.000246101275	374
5	2327	872.044610267155	374
5	2329	872.490669316143	375
5	2330	876.46670361585	375
5	2332	876.630275969532	375
5	2334	877.007886170959	376
5	2335	877.891957477345	376
5	2337	877.953560732043	376
5	2339	878.441251318688	377
5	2341	878.740360266997	378
5	2343	879.051545046853	379
5	2345	879.155359528864	380
5	2349	880.132696092669	381
5	2351	880.224864170924	382
5	2352	880.723550549658	382
5	2353	880.760542630218	381
5	2355	880.863351749316	381
5	2356	881.495773903785	381
5	2358	881.577361125999	381
5	2360	882.466255416521	382
5	2361	883.029820753555	382
5	2363	883.039261148058	382
5	2364	883.633830569808	382
5	2366	884.762304346248	382
5	2367	884.994460469748	382
5	2369	885.595970701062	382
5	2370	886.851156621281	382
5	2372	886.904967909687	382
5	2373	887.928354196505	382
5	2375	888.077580655348	382
5	2377	888.360129368288	383
5	2378	888.988065811181	383
5	2382	889.428958538707	383
5	2384	891.351900441108	384
5	2386	891.413890046415	385
5	2387	891.859135561086	385
5	2389	892.594334860693	385
5	2391	893.048850466112	386
5	2393	893.136992702593	387
5	2394	893.563336028231	387
5	2395	893.768490776329	386
5	2399	893.892031104182	386
5	2401	893.92186586817	387
5	2403	894.572566330872	388
5	2405	896.271357082999	389
5	2407	896.627120333001	390
5	2408	897.011836479638	390
5	2409	898.390218839351	389
5	2410	898.737529026392	388
5	2411	899.101571793763	387
5	2413	900.30739156449	387
5	2415	900.555368510978	388
5	2416	900.595725543438	388
5	2418	901.07505044692	388
5	2419	901.750047575148	388
5	2421	901.982540530441	388
5	2423	902.144974824815	389
5	2425	902.397928376531	390
5	2427	903.244518532766	391
5	2428	903.549505266423	391
5	2430	903.607947328761	391
5	2434	905.850020838647	392
5	2435	905.947328909102	392
5	2437	906.243253596003	392
5	2439	906.412082748129	393
5	2441	907.630862390157	394
5	2442	908.76723104399	394
5	2443	909.422890408433	393
5	2445	910.558271934432	393
5	2447	912.045610338263	394
5	2449	912.46754142928	395
5	2451	914.577094493875	396
5	2452	915.256509560654	396
5	2454	915.718075481831	396
5	2455	915.921625666771	396
5	2457	916.434611945824	396
5	2458	916.898927708245	396
5	2459	916.931965166883	395
5	2460	916.949171322474	394
5	2461	918.198006814863	393
5	2463	920.291833698459	393
5	2464	920.510635229846	393
5	2466	920.654847299935	393
5	2468	920.985169583956	394
5	2470	923.01799590822	395
5	2472	923.451784723086	396
5	2474	923.77045095989	397
5	2477	925.202877329996	397
5	2481	926.709178787201	397
5	2483	927.151533397201	398
5	2484	927.478866526002	398
5	2486	927.773532671144	398
5	2487	927.98579859412	398
5	2488	928.066759533067	397
5	2489	928.481541025695	396
5	2492	931.165164133858	395
5	2494	931.440743090314	395
5	2495	931.44404972581	395
5	2497	931.762850036772	395
5	2499	932.626914548213	396
5	2501	932.699326343073	397
5	2502	933.382626170388	397
5	2504	933.801194201333	397
5	2506	935.134291059885	398
5	2508	936.366755266759	399
5	2510	936.677592348437	400
5	2512	936.705490374898	401
5	2514	937.332228292325	402
5	2516	937.887641685051	403
5	2518	938.38826335243	404
5	2520	938.400003597333	405
5	2521	938.536007310175	405
5	2523	938.701026635797	405
5	2525	939.063829163267	406
5	2527	939.455175247673	407
5	2528	939.864708868022	407
5	2530	939.950594758075	407
5	2532	941.000880624815	408
5	2534	941.045632591051	409
5	2536	941.643767090664	410
5	2538	942.666701302646	411
5	2539	942.990275821721	411
5	2543	943.884437747805	411
5	2544	944.054398282292	411
5	2546	944.25498878394	411
5	2548	944.621433122349	412
5	2550	945.093437445144	413
5	2552	945.171365785716	414
5	2554	946.028361232701	415
5	2556	946.833381643511	416
5	2558	946.878861502688	417
5	2560	947.83061290647	418
5	2562	948.14590559488	419
5	2563	950.41481621892	419
5	2567	953.43585578728	419
5	2569	953.458786392012	420
5	2571	953.528683827624	421
5	2573	953.758246090625	422
5	2577	954.5874210752	423
5	2579	955.02957673158	424
5	2581	955.74997215392	425
5	2583	955.780538483909	426
5	2585	956.547900269214	427
5	2586	956.619630622994	427
5	2587	956.734120078379	426
5	2589	956.971046226016	426
5	2590	957.102053008921	426
5	2592	957.428287247788	426
5	2594	958.280697649915	427
5	2595	958.729791605433	427
5	2597	959.986027829701	427
5	2599	960.681501495571	428
5	2601	961.603757691671	429
5	2603	963.388595983633	430
5	2607	967.647911935683	431
5	2609	968.336079720937	432
5	2611	968.802965254234	433
5	2612	970.129465444953	433
5	2614	970.579821446058	433
5	2616	971.105163165787	434
5	2618	971.204804484191	435
5	2620	971.642965402784	436
5	2621	972.185131297829	436
5	2624	973.148864778576	435
5	2626	973.889687496878	435
5	2628	974.196628725628	436
5	2630	974.347256187635	437
5	2631	974.422018134654	437
5	2632	974.493108540284	436
5	2633	975.249643429468	435
5	2634	975.308670452467	434
5	2635	975.79276498436	433
5	2637	976.259062812078	433
5	2639	976.262749677136	434
5	2640	976.284368203365	434
5	2642	976.461966285055	434
5	2644	976.486705896395	435
5	2646	977.406308855406	436
5	2647	977.835286217642	436
5	2649	978.068944741702	436
5	2650	978.255857777281	436
5	2652	978.642104317818	436
5	2654	979.134749210462	437
5	2656	979.284651536866	438
5	2658	979.81938260612	439
5	2660	980.023596546816	440
5	2662	980.30799481092	441
5	2664	980.349060709071	442
5	2666	980.460004274786	443
5	2667	981.681136949877	443
5	2669	982.457405040883	443
5	2671	983.194601225299	444
5	2673	984.292291275757	445
5	2674	985.893270716878	445
5	2676	986.525652892996	445
5	2678	987.608876174211	446
5	2679	988.030241459426	446
5	2681	989.349669255026	446
5	2682	989.47563220586	446
5	2684	991.268832886407	446
5	2685	991.349640697168	446
5	2686	992.23788504389	445
5	2688	992.386408969553	445
5	2690	992.702495297641	446
5	2693	993.882155303452	446
5	2694	994.181102074071	445
5	2696	994.254144198398	445
5	2697	994.670120575031	445
5	2698	995.201177425803	444
5	2700	995.72752638408	444
5	2702	997.702316722929	445
5	2704	998.076843801877	446
5	2705	999.423770490326	446
5	2707	999.735899805591	446
5	2709	999.802339203537	447
6	0	0	0
6	5	1.921237940998	1
6	8	2.736840194944	2
6	21	6.700544531541	3
6	24	7.738618841022	4
6	25	8.406231175005	5
6	28	9.38432882487	6
6	31	10.631897369621	7
6	36	11.432668037393	8
6	43	13.941728130845	9
6	46	14.23411812015	10
6	65	16.511433364665	11
6	68	17.29671603072	12
6	69	17.355515708283	13
6	70	17.433971391177	14
6	73	18.370474198518	15
6	76	19.948664743487	16
6	85	21.902771899421	17
6	86	23.909055918352	18
6	87	25.191953253592	19
6	102	29.899915033352	20
6	103	31.358857497054	21
6	104	31.62813204579	22
6	107	34.234404001961	23
6	108	35.529709588457	24
6	111	36.134606392552	25
6	112	36.232589551275	26
6	115	37.08177019378	27
6	116	37.180455768255	28
6	127	40.785239166995	29
6	132	42.737800286337	30
6	133	43.303378988917	31
6	134	43.520599984145	32
6	145	45.810707810874	33
6	146	45.890612138539	34
6	147	46.654742099158	35
6	148	47.020102844312	36
6	151	47.470646826386	37
6	156	49.660632586907	38
6	157	50.01819309153	39
6	160	54.39376106433	40
6	161	54.906642361702	41
6	162	55.124702583124	42
6	163	55.894177955625	43
6	166	57.260796370423	44
6	183	63.902185832278	45
6	184	66.460999040658	46
6	187	67.642813679406	47
6	188	68.853674253995	48
6	189	69.932640598766	49
6	196	73.880357297985	50
6	199	74.900370665741	51
6	200	75.965701394905	52
6	201	76.196303571708	53
6	206	77.763572831857	54
6	207	79.535389703788	55
6	214	82.118171419306	56
6	219	82.73549629125	57
6	236	86.006823397362	58
6	241	87.759860562878	59
6	244	89.05819098233	60
6	247	91.565649187747	61
6	248	91.718966827515	62
6	259	97.245317029466	63
6	260	97.430884659242	64
6	269	99.579943791375	65
6	274	101.457928058191	66
6	275	101.84953875231	67
6	278	103.350878197669	68
6	279	103.548586631405	69
6	282	104.000912802685	70
6	283	104.019678400721	71
6	284	105.279244774916	72
6	293	108.805438450388	73
6	294	109.167206884257	74
6	301	110.631998059545	75
6	304	113.543853383753	76
6	305	113.696638999914	77
6	310	116.59376922925	78
6	313	117.471627444146	79
6	320	122.117886914039	80
6	323	122.390486325736	81
6	338	128.106283962999	82
6	349	129.231038655119	83
6	350	130.386459771271	84
6	351	130.489199006308	85
6	374	138.784614893234	86
6	379	142.57892158531	87
6	380	143.573700144691	88
6	389	147.098016424898	89
6	400	150.2710363209	90
6	413	153.752359309374	91
6	422	158.168627344866	92
6	425	158.656973494685	93
6	430	159.779305211803	94
6	431	159.905748839397	95
6	442	162.932300847828	96
6	443	164.21238648355	97
6	446	165.293624037814	98
6	449	166.936464764471	99
6	454	168.964962933456	100
6	455	169.139141205556	101
6	456	170.003580431678	102
6	457	170.384010827947	103
6	458	170.566830030061	104
6	459	170.64482952152	105
6	466	173.783007013363	106
6	467	174.019317895487	107
6	468	174.302647169932	108
6	469	174.55473399041	109
6	472	177.123632851053	110
6	479	179.769252447253	111
6	482	180.377927519585	112
6	483	180.715754160237	113
6	484	180.894083594958	114
6	485	181.849183505831	115
6	490	182.937193926209	116
6	493	183.460442149222	117
6	494	184.524326914225	118
6	511	189.567156183553	119
6	518	192.856961296125	120
6	521	194.085070158905	121
6	522	194.527410323471	122
6	525	195.220057992559	123
6	526	195.655839431387	124
6	529	198.393688392477	125
6	538	200.124713796975	126
6	539	201.940134060821	127
6	542	203.96830241687	128
6	547	205.566240337895	129
6	550	205.878537760337	130
6	565	208.967871985841	131
6	566	208.993687172946	132
6	571	209.716995858978	133
6	572	210.121559273582	134
6	573	211.106333372396	135
6	578	212.016466462176	136
6	579	213.094751214532	137
6	592	217.265059972364	138
6	593	218.337633014481	139
6	594	218.538898783088	140
6	605	220.957320340705	141
6	612	222.297893121603	142
6	615	224.204550291964	143
6	618	224.859702238804	144
6	627	229.307123084583	145
6	642	232.564866263878	146
6	643	232.688114522571	147
6	644	232.791355301953	148
6	649	235.000687612551	149
6	664	242.3654301023	150
6	665	243.269785005568	151
6	676	247.96266947153	152
6	679	249.104745801533	153
6	682	250.07899478827	154
6	685	250.480467631469	155
6	694	255.726471749109	156
6	695	256.383407562713	157
6	698	256.808261055212	158
6	711	259.930783364811	159
6	716	262.649168100158	160
6	717	263.212619687911	161
6	718	264.557399131004	162
6	719	264.703653815675	163
6	722	266.18022761113	164
6	735	271.512592986557	165
6	738	272.261727543422	166
6	745	273.874880243505	167
6	748	274.603709269189	168
6	749	275.855038070304	169
6	750	276.771488040724	170
6	761	278.795054259304	171
6	764	280.16545843034	172
6	765	280.229299131118	173
6	768	281.753772873999	174
6	769	281.853975499021	175
6	770	282.062462203897	176
6	771	282.426029719829	177
6	780	285.491435493697	178
6	781	285.507117575393	179
6	796	290.02649184413	180
6	797	290.624629329792	181
6	800	291.071697831857	182
6	803	291.773584003899	183
6	806	292.92455366569	184
6	811	295.814807756324	185
6	816	296.965556186808	186
6	817	297.149594906034	187
6	818	297.322438126343	188
6	825	300.579743446174	189
6	826	300.889192201836	190
[...]
9	133	43.303378988917	16.232593755092
9	134	43.520599984145	13.93195828977
9	145	45.810707810874	16.170802186967
9	146	45.890612138539	16.234544070142
9	147	46.654742099158	14.885172279607
9	148	47.020102844312	11.179808816585
9	151	47.470646826386	10.784421533754
9	156	49.660632586907	11.723344192908
9	157	50.01819309153	11.795199592227
9	160	54.39376106433	14.541038317196
9	161	54.906642361702	14.852499465538
9	162	55.124702583124	13.909563096653
9	163	55.894177955625	13.663342622521
9	166	57.260796370423	13.629934113413
9	183	63.902185832278	20.093552741473
9	184	66.460999040658	22.444145586545
9	187	67.642813679406	22.22983035218
9	188	68.853674253995	23.161699291445
9	189	69.932640598766	22.375133924962
9	196	73.880357297985	25.714109913031
9	199	74.900370665741	21.963991145365
9	200	75.965701394905	17.52408995721
9	201	76.196303571708	17.612428653989
9	206	77.763572831857	18.368852933122
9	207	79.535389703788	18.734594728163
9	214	82.118171419306	20.70612478517
9	219	82.73549629125	20.35209373096
9	236	86.006823397362	23.598341133569
9	241	87.759860562878	23.85906582734
9	244	89.05819098233	21.587775335038
9	247	91.565649187747	21.270245284439
9	248	91.718966827515	21.422076793788
9	259	97.245317029466	23.678054691205
9	260	97.430884659242	22.579316375865
9	269	99.579943791375	21.969942540099
9	274	101.457928058191	23.732979734354
9	275	101.84953875231	21.350207402059
9	278	103.350878197669	22.178241002203
9	279	103.548586631405	21.684092158884
9	282	104.000912802685	21.855640377692
9	283	104.019678400721	21.39432222728
9	284	105.279244774916	21.548276896035
9	293	108.805438450388	24.637370133422
9	294	109.167206884257	24.479758431512
9	301	110.631998059545	25.466859261778
9	304	113.543853383753	28.221474789564
9	305	113.696638999914	28.040537476499
9	310	116.59376922925	30.732548613398
9	313	117.471627444146	31.231244856449
9	320	122.117886914039	35.61447006029
9	323	122.390486325736	34.154471763913
9	338	128.106283962999	34.775169968074
9	349	129.231038655119	34.272633831585
9	350	130.386459771271	34.719624490277
9	351	130.489199006308	31.919036357033
9	374	138.784614893234	40.098352634922
9	379	142.57892158531	43.606391168803
9	380	143.573700144691	44.313279682194
9	389	147.098016424898	47.386555911957
9	400	150.2710363209	50.105938580483
9	413	153.752359309374	50.119827802907
9	422	158.168627344866	51.871096332673
9	425	158.656973494685	52.339199810402
9	430	159.779305211803	53.281171324293
9	431	159.905748839397	52.616418740532
9	442	162.932300847828	53.739780851104
9	443	164.21238648355	54.786197446594
9	446	165.293624037814	51.57377005535
9	449	166.936464764471	52.43956712855
9	454	168.964962933456	49.698628150949
9	455	169.139141205556	49.275758340097
9	456	170.003580431678	48.568955167855
9	457	170.384010827947	48.050160680113
9	458	170.566830030061	47.610651128171
9	459	170.64482952152	46.740664650014
9	466	173.783007013363	49.751941484608
9	467	174.019317895487	49.512037033394
9	468	174.302647169932	48.614285964869
9	469	174.55473399041	47.459715186284
9	472	177.123632851053	49.851542513841
9	479	179.769252447253	51.632331319396
9	482	180.377927519585	51.811333297884
9	483	180.715754160237	51.952922618171
9	484	180.894083594958	52.054397321569
9	485	181.849183505831	50.872801763587
9	490	182.937193926209	50.971892849023
9	493	183.460442149222	51.129488187267
9	494	184.524326914225	51.740683822179
9	511	189.567156183553	55.667328670522
9	518	192.856961296125	57.654641453404
9	521	194.085070158905	58.54233245235
9	522	194.527410323471	58.464942055897
9	525	195.220057992559	58.448160925745
9	526	195.655839431387	55.511437722187
9	529	198.393688392477	56.12703021891
9	538	200.124713796975	55.186368167808
9	539	201.940134060821	56.96940020562
9	542	203.96830241687	58.156358238034
9	547	205.566240337895	57.996742576974
9	550	205.878537760337	58.292368382021
9	565	208.967871985841	60.459923721009
9	566	208.993687172946	60.281051233615
9	571	209.716995858978	60.882977230055
9	572	210.121559273582	59.338673502963
9	573	211.106333372396	59.904240890951
9	578	212.016466462176	60.364971291359
9	579	213.094751214532	60.756437325493
9	592	217.265059972364	64.4283408761
9	593	218.337633014481	65.276118731009
9	594	218.538898783088	63.449739575429
9	605	220.957320340705	65.81481442545
9	612	222.297893121603	65.789160316109
9	615	224.204550291964	66.777308040475
9	618	224.859702238804	66.496812344987
9	627	229.307123084583	69.770514297289
9	642	232.564866263878	72.928898269672
9	643	232.688114522571	72.630870667697
9	644	232.791355301953	72.206418651972
9	649	235.000687612551	74.252513766399
9	664	242.3654301023	81.067815406433
9	665	243.269785005568	80.633175495387
9	676	247.96266947153	83.051934932804
9	679	249.104745801533	82.628129301068
9	682	250.07899478827	82.707985475793
9	685	250.480467631469	81.70864577351
9	694	255.726471749109	83.940463300415
9	695	256.383407562713	82.849624232774
9	698	256.808261055212	80.798904715498
9	711	259.930783364811	82.736834723331
9	716	262.649168100158	85.263234662721
9	717	263.212619687911	84.192864824061
9	718	264.557399131004	84.649143971784
9	719	264.703653815675	82.248915397368
9	722	266.18022761113	83.131482207999
9	735	271.512592986557	86.435123829743
9	738	272.261727543422	87.091342599493
9	745	273.874880243505	86.176493583049
9	748	274.603709269189	86.211992980339
9	749	275.855038070304	87.307868610703
9	750	276.771488040724	87.789885944626
9	761	278.795054259304	89.724723449822
9	764	280.16545843034	90.518674189988
9	765	280.229299131118	89.078223736922
9	768	281.753772873999	88.259147769915
9	769	281.853975499021	87.211680874418
9	770	282.062462203897	85.385261883417
9	771	282.426029719829	83.774835624201
9	780	285.491435493697	86.399495960857
9	781	285.507117575393	86.343599385911
9	796	290.02649184413	90.131461497207
9	797	290.624629329792	88.608526563746
9	800	291.071697831857	86.93986089042
9	803	291.773584003899	87.251001444338
9	806	292.92455366569	86.913537379828
9	811	295.814807756324	89.367667716348
9	816	296.965556186808	90.275816941384
9	817	297.149594906034	90.17616436708
9	818	297.322438126343	89.639968188434
9	825	300.579743446174	91.99184221015
9	826	300.889192201836	92.093072506945
9	829	302.099828227375	92.833615832423
9	830	303.100928188417	93.446862278209
9	837	305.305536280053	94.111647690804
9	844	308.528216698382	96.715191506651
9	853	313.822705154821	99.633399176646
9	858	315.483517966392	100.0811070891
9	859	315.998863036739	100.59181118057
9	866	322.71726002788	107.19289030374
9	867	323.174436446847	107.25856723222
9	868	323.339812376804	106.41280769192
9	875	326.350800180223	106.88988619884
9	888	328.916004498046	109.4514170046
9	891	330.293987627835	110.68538554286
9	892	330.315067668368	110.08291743713
9	893	330.444157768077	109.03970178013
9	906	335.113459634108	113.63317516656
9	907	336.137225421134	114.46779889077
9	908	336.809525819686	112.99743316984
9	909	337.286781803654	112.94350990578
9	910	337.832904544128	111.43875160891
9	913	338.723171382744	110.90250930343
9	918	340.977931667651	111.9092391077
9	921	342.346476359309	112.35225962919
9	934	345.574632958798	114.72450378754
9	941	348.678675989592	116.72524168141
9	948	350.120650612179	117.90798818579
9	967	356.568576390583	124.11830724054
9	970	357.311805593606	123.73545891809
9	973	359.862594932761	126.11034229505
9	980	361.184810376471	124.72785399456
9	989	363.884972362512	126.63745393991
9	990	363.95615028742	126.07913005078
9	991	364.031956715747	124.77898380506
9	1000	365.847877618282	124.22621700236
9	1001	366.677391208388	124.94605279579
9	1038	376.87558483755	132.8830855186
9	1047	379.537096800422	134.19317456568
9	1052	381.384658890398	134.9479169267
9	1055	383.593500552337	135.04539561485
9	1056	383.871829926706	133.48763563717
9	1059	384.930445877309	132.40777567977
9	1064	387.63455970984	134.37746412566
9	1081	392.652631828955	137.47695825211
9	1082	393.512293565693	136.71074524943
9	1083	394.308176367801	136.76613029725
9	1090	395.630110174694	138.07923562956
9	1099	398.153918952462	140.42897013058
9	1102	398.39108150158	139.57798119333
9	1111	402.099864172615	142.99075076208
9	1112	402.129436572161	142.48883266341
9	1115	402.494795415059	141.33171140253
9	1132	411.578010125593	149.15397684656
9	1133	413.004523048793	147.38232904775
9	1140	414.925711403904	148.57009183798
9	1159	421.513640058103	155.07232338683
9	1162	422.172191823609	154.77510985658
9	1181	426.737838111302	158.54028272679
9	1186	428.327099943146	159.35157833283
9	1193	431.192417734307	161.75890243128
9	1194	432.179487199527	160.02228593236
9	1197	432.439509898214	158.75831509101
9	1198	432.559453251782	158.69695579198
9	1201	433.773287943479	156.45231167821
9	1210	436.080353218126	158.63163788879
9	1211	436.915537892079	159.15855074433
9	1222	444.482629058359	166.43559391173
9	1227	447.019624721809	168.70703966102
9	1228	447.198446823618	167.46497845687
9	1235	449.585036355199	169.2237612339
9	1238	450.137191459373	167.60911383735
9	1239	450.536342820742	167.07136211939
9	1246	450.945095240299	166.56131188696
9	1247	451.842998707832	165.98917321239
9	1252	453.304905786413	166.31026319301
9	1255	455.150285850716	168.15357168476
9	1256	455.398051346173	168.3929474668
9	1261	458.080813012817	169.40601697585
9	1268	461.830414704916	172.73779345578
9	1279	464.423884999379	174.58567749794
9	1286	467.199278985789	176.57244553634
9	1287	467.271660044606	175.51285369177
9	1292	468.713997140082	176.48396591957
9	1307	472.309922239936	177.17990363064
9	1310	473.755750669995	178.42406488132
9	1319	477.279756962784	180.61985347551
9	1326	479.084149123326	182.31012596346
9	1327	479.086125040764	181.03075467265
9	1328	479.293641643364	180.87508668999
9	1331	482.296829350027	183.24908378504
9	1348	487.485069444137	185.50853724077
9	1363	491.558861229529	187.09319972782
9	1364	491.699831696187	186.99090078303
9	1369	492.982190334027	188.02116532347
9	1370	493.089145754966	187.37909786709
9	1373	495.573228989752	189.44366856794
9	1374	495.857849656784	188.42216936874
9	1379	497.562703663709	187.80058759846
9	1386	498.550849758675	186.93088867995
9	1395	503.597578174777	191.78676505672
9	1398	505.518581770898	191.25403605298
9	1415	513.349878027003	198.72849767143
9	1418	516.267428416397	200.09639948704
9	1421	518.310337599011	200.39399194337
9	1428	519.001405589052	199.11741418573
9	1435	524.689932653054	200.74869609167
9	1436	525.2212342106	199.92009678419
9	1443	528.575539912949	202.47362993152
9	1444	528.95095976879	201.67835808342
9	1455	532.554568688076	205.26656525787
9	1456	534.168412756135	206.50354157873
9	1459	535.009022184689	207.30944068892
9	1462	535.523170201691	207.82187392009
9	1465	537.90289247223	210.16353030155
9	1466	538.695347270553	209.28988037542
9	1469	539.948297847879	208.39958749093
9	1470	540.485135428404	208.49457786567
9	1473	541.285747747732	209.03521944572
9	1474	541.406991547443	207.82172705245
9	1485	544.321834157899	210.45389327966
9	1486	544.435809381583	210.48202884876
9	1487	545.115774899741	207.25369363964
9	1488	545.137897269888	206.04658671795
9	1497	545.819621586726	204.02971210033
9	1498	547.026800286725	204.35063730517
9	1503	548.857009932587	206.18042152903
9	1504	550.989955826351	206.02748866334
9	1509	552.52329423221	207.53406104366
9	1516	553.986545719244	208.07551910806
9	1521	555.310999220716	208.77756112519
9	1540	562.476402542126	213.31159151859
9	1541	562.978064825329	213.27976340581
9	1554	567.531818775642	217.65469545684
9	1557	567.789349480053	216.51920919644
9	1578	576.797939812487	225.24366883354
9	1589	580.598619101788	228.42566493536
9	1596	582.778382306174	230.47400784589
9	1605	586.549954327499	234.1292046841
9	1606	586.79329811633	232.46474505627
9	1613	588.672341715047	232.1227738095
9	1622	594.966587859943	237.89820132411
9	1625	597.084152776858	237.32800882634
9	1628	598.08884537688	237.59766270015
9	1635	600.128158051451	239.44196460362
9	1636	600.722192245165	239.6569550642
9	1659	608.265646486274	246.18708214039
9	1662	609.496881146065	246.61960580756
9	1663	613.084566437458	250.15742093506
9	1674	617.328268114762	253.71532286936
9	1681	620.637078168089	255.84222688307
9	1682	622.161511541621	257.35355187853
9	1685	622.292345147448	257.3402898224
9	1686	622.369302916987	256.73203363679
9	1715	630.684556389847	263.28891120821
9	1716	631.466162294352	263.98619854132
9	1717	631.56906676594	264.01995788755
9	1720	633.940755581534	265.71808597615
9	1735	637.246380904421	268.4012679953
9	1738	638.129750462047	266.92946698828
9	1743	638.883945837811	267.08937972579
9	1752	643.789673596922	271.91217998662
9	1753	644.170780116258	271.40368835847
9	1758	645.211138056992	272.09543094898
9	1759	645.58186595007	272.07071363668
9	1768	648.926403329413	275.08868821958
9	1769	649.071029969883	274.38677473613
9	1774	650.305657269147	275.07173278513
9	1781	652.224441885013	276.66665212852
9	1782	652.804886495852	276.40510390115
9	1791	656.644883344105	279.47633511694
9	1796	657.907749499542	280.02028509822
9	1797	657.972025199687	279.97405134026
9	1798	658.017254697194	279.3991112188
9	1801	658.511414240003	277.80661209885
9	1802	658.853664461759	277.18678484012
9	1805	659.434305474882	274.86239376974
9	1806	659.51403388181	274.13017860746
9	1809	660.21750737536	273.99477863438
9	1822	665.176575850659	277.31874609706
9	1825	665.547575343326	276.10364154242
9	1842	670.789941280413	281.11670514658
9	1847	673.145534259543	282.59580196938
9	1848	673.162507106298	282.12976634557
9	1855	676.92619501485	281.93602295089
9	1868	679.253563377121	283.63106022741
9	1873	682.891125224956	287.05667654565
9	1882	689.746568197368	293.82811980223
9	1887	693.396477599148	296.11555332341
9	1892	695.659153044714	297.85322151637
9	1899	698.083416515468	299.8947104284
9	1900	698.28898089431	299.28224354037
9	1901	698.459208083753	298.80707819141
9	1906	702.010327807312	301.77830270998
9	1913	704.172410959304	301.79613262158
9	1920	708.002451034681	304.32694498141
9	1921	708.636543801963	304.4573277759
9	1934	714.311880326196	310.10322115085
9	1937	714.363473448482	309.61039346685
9	1938	714.770691278011	307.19914781785
9	1939	716.200747906905	307.51831147943
9	1948	723.461276835745	314.75795313369
9	1949	723.856904850885	313.02763128247
9	1954	727.936149659835	314.14899243528
9	1957	729.213415071293	315.03600668443
9	1958	730.853884803907	314.31015557124
9	1959	730.990353738755	313.98877767641
9	1962	733.649947855335	316.10688524554
9	1969	734.927068815859	316.03326521558
9	1970	734.99339412519	315.69747142364
9	1971	735.318862374712	315.2776916378
9	1974	735.753247798736	314.79473658817
9	1993	745.393568891992	324.42146188495
9	2002	749.276461109114	327.31813793016
9	2011	751.009522368479	328.48834756734
9	2016	752.76668289178	329.81376026146
9	2017	754.157228095142	330.35333762206
9	2020	755.3300520064	330.88393337373
9	2023	755.506379117727	330.63847415995
9	2026	757.243925862494	331.8120175727
9	2043	763.850180497308	338.3420359449
9	2046	765.176389066963	339.29946182113
9	2055	768.484743690279	342.27985116148
9	2060	772.470270359393	344.65033849842
9	2063	774.756151238524	346.8027849921
9	2068	776.242062133328	347.54073719639
9	2071	777.88679902164	347.61995115971
9	2080	783.122008582435	352.36720301761
9	2081	783.383251730052	351.01478757624
9	2082	783.907861145259	349.6219381355
9	2095	786.199463535161	350.89772825871
9	2100	787.065648789844	351.75260449418
9	2103	789.079327865268	351.54523898973
9	2106	789.699454290263	350.34623879344
9	2111	792.616577060423	351.32427935996
9	2116	795.579772709479	354.19271599262
9	2125	797.7256077654	352.64371046509
9	2132	798.873416919893	353.03939950005
9	2139	801.409921613928	353.0095528835
9	2144	803.557006041482	354.95836912776
9	2147	804.687584814396	355.36422447056
9	2148	805.228160725838	355.34027239663
9	2153	806.088960203033	355.50237194341
9	2156	806.887416804015	356.28847748758
9	2157	808.106238855337	357.2916201842
9	2158	808.228106768275	356.27741240613
9	2161	808.982080683595	355.12562595298
9	2180	816.075792133081	358.30617813284
9	2181	817.41352206545	358.69786308661
9	2182	817.484904740663	356.51829848635
9	2183	817.619444979561	355.571667314
9	2184	817.647587526308	354.85855746946
9	2191	820.979334779481	357.79206437247
9	2194	823.4469716775	359.95401620475
9	2207	829.619223656875	365.79205393345
9	2212	830.59550675932	364.74514751011
9	2219	833.850465515681	367.60647136333
9	2222	835.384341114455	368.26317773518
9	2227	836.967411417527	369.66919601593
9	2228	838.98977269414	370.56541123069
9	2235	839.926970993422	371.03283101144
9	2252	848.525671688311	379.62102513142
9	2257	852.565926532251	382.78352152824
9	2266	856.262516559627	386.45139305733
9	2279	859.086685828662	388.5767302988
9	2280	859.169043303683	388.21378676016
9	2281	860.532133478285	389.19785582641
9	2282	861.304445048518	387.85854539316
9	2287	862.155318461597	387.36417156726
9	2290	862.432870503151	387.03655586629
9	2297	864.670777500605	388.72211287481
9	2298	865.114829397289	388.49032790937
9	2299	865.944643664625	387.88849596526
9	2300	866.016777927061	387.28599913037
9	2309	867.257782624951	388.44976451859
9	2310	867.488573249498	386.44007956928
9	2313	868.718333098053	385.35588149688
9	2322	870.888657256321	387.489035216
9	2325	872.000246101275	388.04529382666
9	2330	876.46670361585	391.80696342604
9	2335	877.891957477345	391.99502928554
9	2352	880.723550549658	394.11172133107
9	2353	880.760542630218	393.91741716418
9	2356	881.495773903785	393.69333373243
9	2361	883.029820753555	395.15897672789
9	2364	883.633830569808	395.37925459669
9	2367	884.994460469748	396.16716213521
9	2370	886.851156621281	397.05585442683
9	2373	887.928354196505	397.31604269585
9	2378	888.988065811181	397.43199014436
9	2387	891.859135561086	399.6322174262
9	2394	893.563336028231	400.74038695026
9	2395	893.768490776329	399.35238736962
9	2408	897.011836479638	400.34541887989
9	2409	898.390218839351	401.05484253679
9	2410	898.737529026392	400.83339504017
9	2411	899.101571793763	400.9660106442
9	2416	900.595725543438	402.33860876171
9	2419	901.750047575148	400.96542706667
9	2428	903.549505266423	401.63206247924
9	2435	905.947328909102	403.76914774513
9	2442	908.76723104399	406.10972654035
9	2443	909.422890408433	404.25351774304
9	2452	915.256509560654	408.21745753426
9	2455	915.921625666771	408.82357730328
9	2458	916.898927708245	409.24389959201
9	2459	916.931965166883	405.90081404904
9	2460	916.949171322474	405.36095066205
9	2461	918.198006814863	405.11022395624
9	2464	920.510635229846	404.58128158238
9	2477	925.202877329996	407.97772700196
9	2484	927.478866526002	408.80585762621
9	2487	927.98579859412	409.252075972
9	2488	928.066759533067	409.32358411746
9	2489	928.481541025695	408.54451389549
9	2492	931.165164133858	404.69198147691
9	2495	931.44404972581	404.62760673356
9	2502	933.382626170388	406.25641076872
9	2521	938.536007310175	408.24124110057
9	2528	939.864708868022	409.51685981331
9	2539	942.990275821721	412.596810429
9	2544	944.054398282292	412.68244338025
9	2563	950.41481621892	417.95790509758
9	2586	956.619630622994	422.29822399381
9	2587	956.734120078379	421.51144956537
9	2590	957.102053008921	419.41224172884
9	2595	958.729791605433	420.02277117731
9	2612	970.129465444953	428.9058278515
9	2621	972.185131297829	430.46766061718
9	2624	973.148864778576	431.07911375817
9	2631	974.422018134654	430.48931772536
9	2632	974.493108540284	430.53055834045
9	2633	975.249643429468	431.00673791797
9	2634	975.308670452467	430.06390492256
9	2635	975.79276498436	430.48091200696
9	2640	976.284368203365	430.54545198554
9	2647	977.835286217642	430.4945016724
9	2650	978.255857777281	429.39956608084
9	2667	981.681136949877	430.20410753884
9	2674	985.893270716878	433.3868652657
9	2679	988.030241459426	435.26080020688
9	2682	989.47563220586	436.25039823618
9	2685	991.349640697168	437.77330826451
9	2686	992.23788504389	437.26205731956
9	2693	993.882155303452	437.79953398932
9	2694	994.181102074071	437.70659015811
9	2697	994.670120575031	437.23813812823
9	2698	995.201177425803	437.72135756693
9	2705	999.423770490326	440.19971319513
10	2710	1000	0
11	2710	1000	0.537

