file 36857 1671552070                                           
version 2
run warm_up_time-35-20221220-17:01:10-18678
attr configname warm_up_time
attr datetime 20221220-17:01:10
attr experiment warm_up_time
attr inifile omnetpp.ini
attr iterationvars ""
attr iterationvarsf ""
attr measurement ""
attr network Network
attr processid 18678
attr repetition 35
attr replication #35
attr resultdir results
attr runnumber 35
attr seedset 35
param **.minion.arrival_distribution 0
param **.minion.service_distribution 0
param **.boss.arrival_distribution 0
param **.boss.service_distribution 0
param *.minion.arrival_mean 0
param *.minion.service_mean 0
param *.boss.arrival_mean 10
param *.boss.service_mean 3

vector 0 Network.player boss_jobs_number_stat:vector ETV
attr source signal_boss_jobs_number
vector 1 Network.player boss_jobs_queue_number_stat:vector ETV
attr source signal_boss_jobs_queue_number
vector 2 Network.player boss_waiting_time_stat:vector ETV
attr source signal_boss_waiting_time
vector 3 Network.player boss_defeated_stat:vector ETV
attr source signal_boss_defeated
vector 4 Network.player boss_response_time_stat:vector ETV
attr source signal_boss_response_time
vector 5 Network.player minion_throughput:vector ETV
attr source signal_minion_throughput
vector 6 Network.player boss_throughput:vector ETV
attr source signal_boss_throughput
0	1296 5274 113 728 353.214967186665 2483.574387502663 206 1 4 300 560
1	6570 10549 113 729 353.214967186665 2489.364341524498 412 0 3 188 332
2	17119 6125 113 728 353.214967186665 2483.574387502663 206 0 14.435741843153 269.31782404198 1971.2810626685
3	23244 5625 114 729 364.490520695866 2489.364341524498 206 38 243 28943 4794959
4	28869 7956 114 729 364.490520695866 2489.364341524498 206 0.005747235197 19.304564105035 856.02942023037 6865.6270169424
5	36825 13 730 730 2500 2500 1 0 0 0 0
6	36838 18 730 730 2500 2500 1 0.0972 0.0972 0.0972 0.00944784

