version 2
run warm_up_time-20-20221220-17:01:07-18602
attr configname warm_up_time
attr datetime 20221220-17:01:07
attr experiment warm_up_time
attr inifile omnetpp.ini
attr iterationvars ""
attr iterationvarsf ""
attr measurement ""
attr network Network
attr processid 18602
attr repetition 20
attr replication #20
attr resultdir results
attr runnumber 20
attr seedset 20
param **.minion.arrival_distribution 0
param **.minion.service_distribution 0
param **.boss.arrival_distribution 0
param **.boss.service_distribution 0
param *.minion.arrival_mean 0
param *.minion.service_mean 0
param *.boss.arrival_mean 10
param *.boss.service_mean 3

vector 0 Network.player boss_jobs_number_stat:vector ETV
attr source signal_boss_jobs_number
vector 1 Network.player boss_jobs_queue_number_stat:vector ETV
attr source signal_boss_jobs_queue_number
vector 2 Network.player boss_waiting_time_stat:vector ETV
attr source signal_boss_waiting_time
vector 3 Network.player boss_defeated_stat:vector ETV
attr source signal_boss_defeated
vector 4 Network.player boss_response_time_stat:vector ETV
attr source signal_boss_response_time
vector 5 Network.player minion_throughput:vector ETV
attr source signal_minion_throughput
vector 6 Network.player boss_throughput:vector ETV
attr source signal_boss_throughput
0	80	382.235252452551	1
0	82	387.480297865424	2
0	86	391.562425913147	1
0	89	395.860787316929	1
0	92	412.390445041951	1
0	95	424.346477792917	1
0	98	435.46086739259	1
0	101	439.83699385088	1
0	104	447.56192980451	1
0	106	448.543946047962	2
0	108	449.264372600713	3
0	110	451.459244959923	4
0	112	452.396872329017	5
0	115	452.969891319892	5
0	122	473.51092714349	1
0	125	493.726537843581	1
0	128	502.59468378475	1
0	131	511.660225002818	1
0	134	512.456779232194	1
0	137	515.835756677778	1
0	140	520.053346861379	1
0	142	523.429041598154	2
0	145	527.991516989692	2
0	149	562.917222430187	1
0	151	563.036614877451	2
0	154	565.011189793489	2
0	158	570.842152669801	1
0	161	575.971739290579	1
0	163	576.522033548285	2
0	167	585.986414216804	1
0	170	597.151784231635	1
0	173	606.560195387816	1
0	175	606.888206160338	2
0	179	621.482709564796	1
0	182	626.335759090187	1
0	185	630.125767606979	1
0	188	647.506007837301	1
0	191	663.611069897342	1
0	194	686.447978941902	1
0	196	690.958742721409	2
0	198	694.960365611486	3
0	200	696.349236392804	4
0	203	697.373356893524	4
0	209	716.276760613937	1
0	211	718.364174378789	2
0	214	719.732147877242	2
0	216	721.530577457775	3
0	220	735.42085867992	2
0	224	763.109587343066	1
0	227	770.836066028553	1
0	230	815.33983698572	1
0	233	827.551832798022	1
0	236	828.526922134488	1
0	238	829.825873143116	2
0	241	832.866615852445	2
0	245	860.662560965945	1
0	247	862.085921264435	2
0	249	863.036788442537	3
0	254	875.795246241859	1
0	257	883.579432990996	1
0	260	885.703170665363	1
0	262	891.708959933482	2
0	264	891.861001511958	3
0	266	895.985526712522	4
0	268	897.658158529405	5
0	270	904.870597872283	6
0	277	928.058086926388	2
0	281	977.782795251715	1
0	284	987.312547274255	1
0	286	988.648392220139	2
0	288	989.664621099654	3
0	293	1003.063281732132	1
0	295	1004.884498333084	2
0	297	1012.466627116192	3
0	299	1012.514711565653	4
0	304	1023.574661847418	2
0	307	1029.815952142523	2
0	311	1038.261824281075	1
0	313	1038.98783250002	2
0	317	1050.812950753785	1
0	320	1074.686843164767	1
0	323	1076.559289956327	1
0	325	1079.77206653115	2
0	329	1089.998415916178	1
0	332	1098.699355091126	1
0	335	1102.971271764135	1
0	338	1125.653109149824	1
0	341	1135.191421216453	1
0	343	1136.923614548797	2
0	347	1166.342759992117	1
0	350	1183.179246432957	1
0	353	1194.976713073928	1
0	356	1200.126389400961	1
0	359	1223.809794302402	1
0	361	1226.451187147583	2
0	363	1227.293200463711	3
0	365	1228.570701207583	4
0	370	1241.810328847414	2
0	374	1245.863600940902	1
0	377	1267.622571549588	1
0	380	1280.618682422055	1
0	383	1290.803514613752	1
0	385	1291.020645331258	2
0	388	1297.015912371285	2
0	392	1300.676073721323	1
0	395	1303.421498056594	1
0	398	1306.755208086811	1
0	401	1311.727951545182	1
0	404	1328.95001639833	1
0	407	1345.315649321357	1
0	410	1353.473111470222	1
0	413	1382.007448984522	1
0	416	1412.467219625579	1
0	418	1412.617765391378	2
0	421	1416.163464791183	2
0	425	1463.694842513244	1
0	428	1467.809687119115	1
0	430	1471.685298201295	2
0	433	1475.124608918666	2
0	437	1481.222019093575	1
0	440	1485.473349908306	1
0	442	1490.733523797663	2
0	446	1523.936605642365	1
0	448	1526.146572376833	2
0	451	1532.17976432714	2
0	453	1532.662294179483	3
0	455	1533.25695787567	4
0	459	1537.369773411158	3
0	461	1539.59012149564	4
0	463	1543.134497804018	5
0	468	1551.917090225272	3
0	473	1562.905216282424	1
0	476	1565.39435816069	1
0	479	1569.56614317534	1
0	482	1585.004878894698	1
0	484	1585.570649449559	2
0	487	1588.807723754609	2
0	491	1593.09228561208	1
0	493	1605.844812455412	2
0	497	1613.581623404025	1
0	499	1613.923034737537	2
0	503	1629.979704196496	1
0	506	1633.894607879934	1
0	509	1646.339848198343	1
0	512	1649.151573117809	1
0	515	1651.034310947733	1
0	518	1699.147057802576	1
0	521	1702.882226501429	1
0	524	1716.8927531823	1
0	527	1733.608625682304	1
0	530	1738.620922869498	1
0	533	1760.877054496537	1
0	535	1763.3176125061	2
0	539	1774.468463635583	1
0	542	1796.032631171809	1
0	545	1807.405980025673	1
0	548	1811.795521547557	1
0	550	1813.495102074098	2
0	554	1819.400654037025	1
0	556	1823.252793017564	2
0	560	1839.464300303914	1
0	562	1839.482752687682	2
0	566	1852.269351684157	1
0	569	1867.894889153646	1
0	572	1891.176433489135	1
0	575	1905.574147502041	1
0	578	1917.346534166962	1
0	580	1919.859718383965	2
0	584	1939.349654962303	1
0	587	1961.090286819748	1
0	590	1975.049209993997	1
0	593	1981.065937883559	1
0	596	1990.659179635892	1
0	599	1999.517127929185	1
0	602	2015.983396403999	1
0	605	2017.779689082516	1
0	608	2031.848192065851	1
0	611	2045.450478944667	1
0	614	2053.813500628933	1
0	617	2057.33070754447	1
0	620	2063.037559367141	1
0	623	2068.0679469049	1
0	626	2069.778288494005	1
0	628	2071.543963765594	2
0	632	2076.020062079105	1
0	634	2077.826683610161	2
0	636	2079.059358367249	3
0	641	2084.071028906948	1
0	644	2098.677902277939	1
0	647	2105.047035183265	1
0	650	2108.586159525145	1
0	653	2113.59337292589	1
0	656	2117.077300258275	1
0	659	2124.693100903018	1
0	661	2126.741497365091	2
0	665	2139.962811783438	1
0	667	2144.905049449605	2
0	669	2148.390469556666	3
0	674	2172.412547039938	1
0	677	2194.469050653503	1
0	680	2211.610385307272	1
0	683	2216.492940178998	1
0	686	2233.599564744911	1
0	688	2238.456309878858	2
0	692	2239.400535291287	1
0	695	2242.560540373256	1
0	698	2258.990745364652	1
0	701	2285.224311488738	1
0	704	2289.433378744737	1
0	707	2293.952025824646	1
0	709	2295.466525984909	2
0	713	2311.323393629685	1
0	716	2312.700623700424	1
0	719	2315.02529342703	1
0	722	2322.439870130903	1
0	724	2329.07013642724	2
0	728	2347.010263693778	1
0	730	2349.214022638782	2
0	733	2349.900112886748	2
0	735	2350.234813927102	3
0	737	2351.958807693693	4
0	743	2393.727272460446	1
0	746	2399.566477350873	1
0	749	2401.67574430117	1
0	751	2401.728491683554	2
0	753	2405.930301765944	3
0	756	2413.441911465074	3
0	761	2424.470603051368	1
0	764	2437.616600674036	1
0	767	2458.378665750505	1
0	770	2473.096762305511	1
0	773	2480.105293345962	1
1	80	382.235252452551	0
1	82	387.480297865424	1
1	83	387.633002991719	1
1	84	388.940122899188	0
1	86	391.562425913147	0
1	87	393.77101005038	0
1	89	395.860787316929	0
1	90	396.259886811091	0
1	92	412.390445041951	0
1	93	412.799707017684	0
1	95	424.346477792917	0
1	96	425.790289494334	0
1	98	435.46086739259	0
1	99	437.06890724093	0
1	101	439.83699385088	0
1	102	443.075906427652	0
1	104	447.56192980451	0
1	106	448.543946047962	1
1	108	449.264372600713	2
1	110	451.459244959923	3
1	112	452.396872329017	4
1	113	452.720082694614	4
1	115	452.969891319892	4
1	116	453.553368495789	4
1	117	454.821123885328	3
1	118	456.470331181208	2
1	119	463.896349182901	1
1	120	467.456310187811	0
1	122	473.51092714349	0
1	123	474.133650171919	0
1	125	493.726537843581	0
1	126	494.676139853832	0
1	128	502.59468378475	0
1	129	502.677836297945	0
1	131	511.660225002818	0
1	132	512.157173366894	0
1	134	512.456779232194	0
1	135	513.268992104139	0
1	137	515.835756677778	0
1	138	518.763437112124	0
1	140	520.053346861379	0
1	142	523.429041598154	1
1	143	523.869637106979	1
1	145	527.991516989692	1
1	146	528.990259934937	1
1	147	529.931188760279	0
1	149	562.917222430187	0
1	151	563.036614877451	1
1	152	563.214012495389	1
1	154	565.011189793489	1
1	155	565.720765274452	1
1	156	567.857598760291	0
1	158	570.842152669801	0
1	159	573.824652254816	0
1	161	575.971739290579	0
1	163	576.522033548285	1
1	164	576.680441897595	1
1	165	577.39735627545	0
1	167	585.986414216804	0
1	168	586.047410918646	0
1	170	597.151784231635	0
1	171	601.172036317427	0
1	173	606.560195387816	0
1	175	606.888206160338	1
1	176	615.399737444815	1
1	177	616.677507023286	0
1	179	621.482709564796	0
1	180	622.570996277625	0
1	182	626.335759090187	0
1	183	627.514399644529	0
1	185	630.125767606979	0
1	186	633.864051462606	0
1	188	647.506007837301	0
1	189	648.650160990543	0
1	191	663.611069897342	0
1	192	665.186660433173	0
1	194	686.447978941902	0
1	196	690.958742721409	1
1	198	694.960365611486	2
1	200	696.349236392804	3
1	201	697.137352449443	3
1	203	697.373356893524	3
1	204	705.759732437248	3
1	205	706.125278168013	2
1	206	706.530753615799	1
1	207	707.738041611603	0
1	209	716.276760613937	0
1	211	718.364174378789	1
1	212	719.012790182745	1
1	214	719.732147877242	1
1	216	721.530577457775	2
1	217	730.513655284098	2
1	218	733.18618151388	1
1	220	735.42085867992	1
1	221	750.734120070891	1
1	222	754.827768574686	0
1	224	763.109587343066	0
1	225	763.708134173801	0
1	227	770.836066028553	0
1	228	772.281535980224	0
1	230	815.33983698572	0
1	231	815.789665364752	0
1	233	827.551832798022	0
1	234	828.366309723242	0
1	236	828.526922134488	0
1	238	829.825873143116	1
1	239	832.245011322249	1
1	241	832.866615852445	1
1	242	833.505352780016	1
1	243	836.715363095389	0
1	245	860.662560965945	0
1	247	862.085921264435	1
1	249	863.036788442537	2
1	250	864.102828435661	2
1	251	866.937089092145	1
1	252	868.518569799532	0
1	254	875.795246241859	0
1	255	877.873962097687	0
1	257	883.579432990996	0
1	258	884.348308590395	0
1	260	885.703170665363	0
1	262	891.708959933482	1
1	264	891.861001511958	2
1	266	895.985526712522	3
1	268	897.658158529405	4
1	270	904.870597872283	5
1	271	907.314567677495	5
1	272	907.323481523015	4
1	273	911.358310265468	3
1	274	917.682929097121	2
1	275	924.487254131429	1
1	277	928.058086926388	1
1	278	931.908531798475	1
1	279	934.289196755744	0
1	281	977.782795251715	0
1	282	981.043869021497	0
1	284	987.312547274255	0
1	286	988.648392220139	1
1	288	989.664621099654	2
1	289	991.549997728026	2
1	290	994.592562116549	1
1	291	997.518516730794	0
1	293	1003.063281732132	0
1	295	1004.884498333084	1
1	297	1012.466627116192	2
1	299	1012.514711565653	3
1	300	1013.366158987505	3
1	301	1014.062338714911	2
1	302	1022.121118845883	1
1	304	1023.574661847418	1
1	305	1028.24995331688	1
1	307	1029.815952142523	1
1	308	1031.112392000758	1
1	309	1032.428732941124	0
1	311	1038.261824281075	0
1	313	1038.98783250002	1
1	314	1039.288922773651	1
1	315	1041.660352269828	0
1	317	1050.812950753785	0
1	318	1054.609373870147	0
1	320	1074.686843164767	0
1	321	1074.862562765023	0
1	323	1076.559289956327	0
1	325	1079.77206653115	1
1	326	1080.027927877924	1
1	327	1081.129349144112	0
1	329	1089.998415916178	0
1	330	1092.932212592099	0
1	332	1098.699355091126	0
1	333	1100.732705527354	0
1	335	1102.971271764135	0
1	336	1107.431667638076	0
1	338	1125.653109149824	0
1	339	1127.115053390702	0
1	341	1135.191421216453	0
1	343	1136.923614548797	1
1	344	1137.636642721171	1
1	345	1139.618427932055	0
1	347	1166.342759992117	0
1	348	1167.233696058329	0
1	350	1183.179246432957	0
1	351	1183.652241057689	0
1	353	1194.976713073928	0
1	354	1199.46160766589	0
1	356	1200.126389400961	0
1	357	1200.983161799	0
1	359	1223.809794302402	0
1	361	1226.451187147583	1
1	363	1227.293200463711	2
1	365	1228.570701207583	3
1	366	1231.476993895863	3
1	367	1238.296339925972	2
1	368	1239.402338001823	1
1	370	1241.810328847414	1
1	371	1242.508996592216	1
1	372	1243.175921345953	0
1	374	1245.863600940902	0
1	375	1250.677554897122	0
1	377	1267.622571549588	0
1	378	1268.494285203471	0
1	380	1280.618682422055	0
1	381	1283.095568903624	0
1	383	1290.803514613752	0
1	385	1291.020645331258	1
1	386	1293.189692628493	1
1	388	1297.015912371285	1
1	389	1299.373506223852	1
1	390	1299.407032214415	0
1	392	1300.676073721323	0
1	393	1300.754161372703	0
1	395	1303.421498056594	0
1	396	1305.313789685272	0
1	398	1306.755208086811	0
1	399	1307.978477876628	0
1	401	1311.727951545182	0
1	402	1314.194152976642	0
1	404	1328.95001639833	0
1	405	1328.993679659076	0
1	407	1345.315649321357	0
1	408	1347.935876724512	0
1	410	1353.473111470222	0
1	411	1355.955245281398	0
1	413	1382.007448984522	0
1	414	1383.233371187403	0
1	416	1412.467219625579	0
1	418	1412.617765391378	1
1	419	1413.13075628884	1
1	421	1416.163464791183	1
1	422	1417.232178053047	1
1	423	1417.615292795025	0
1	425	1463.694842513244	0
1	426	1466.603470427307	0
1	428	1467.809687119115	0
1	430	1471.685298201295	1
1	431	1473.139670484572	1
1	433	1475.124608918666	1
1	434	1479.496242489057	1
1	435	1479.967303711331	0
1	437	1481.222019093575	0
1	438	1485.413692775927	0
1	440	1485.473349908306	0
1	442	1490.733523797663	1
1	443	1491.414737273803	1
1	444	1495.535928253941	0
1	446	1523.936605642365	0
1	448	1526.146572376833	1
1	449	1530.610656648086	1
1	451	1532.17976432714	1
1	453	1532.662294179483	2
1	455	1533.25695787567	3
1	456	1534.369197258364	3
1	457	1536.573628627652	2
1	459	1537.369773411158	2
1	461	1539.59012149564	3
1	463	1543.134497804018	4
1	464	1544.644085018073	4
1	465	1549.704535038311	3
1	466	1551.891675521093	2
1	468	1551.917090225272	2
1	469	1554.028096871033	2
1	470	1554.287012256349	1
1	471	1554.371691063241	0
1	473	1562.905216282424	0
1	474	1563.988782896513	0
1	476	1565.39435816069	0
1	477	1566.113509609686	0
1	479	1569.56614317534	0
1	480	1570.772533711162	0
1	482	1585.004878894698	0
1	484	1585.570649449559	1
1	485	1587.038265261284	1
1	487	1588.807723754609	1
1	488	1589.47315330914	1
1	489	1589.896620409253	0
1	491	1593.09228561208	0
1	493	1605.844812455412	1
1	494	1608.563558242828	1
1	495	1611.043844433683	0
1	497	1613.581623404025	0
1	499	1613.923034737537	1
1	500	1618.448524633422	1
1	501	1628.013006687648	0
1	503	1629.979704196496	0
1	504	1631.291573620126	0
1	506	1633.894607879934	0
1	507	1635.989660908188	0
1	509	1646.339848198343	0
1	510	1646.672692138926	0
1	512	1649.151573117809	0
1	513	1649.202390304935	0
1	515	1651.034310947733	0
1	516	1653.084860608314	0
1	518	1699.147057802576	0
1	519	1700.085725666098	0
1	521	1702.882226501429	0
1	522	1703.627272787836	0
1	524	1716.8927531823	0
1	525	1727.317907443104	0
1	527	1733.608625682304	0
1	528	1734.121557394085	0
1	530	1738.620922869498	0
1	531	1738.972623424602	0
1	533	1760.877054496537	0
1	535	1763.3176125061	1
1	536	1763.528458482954	1
1	537	1766.465086589998	0
1	539	1774.468463635583	0
1	540	1778.29337984451	0
1	542	1796.032631171809	0
1	543	1798.928582228701	0
1	545	1807.405980025673	0
1	546	1810.532508235655	0
1	548	1811.795521547557	0
1	550	1813.495102074098	1
1	551	1814.898386038337	1
1	552	1815.194699832893	0
1	554	1819.400654037025	0
1	556	1823.252793017564	1
1	557	1827.036379175716	1
1	558	1827.727650950379	0
1	560	1839.464300303914	0
1	562	1839.482752687682	1
1	563	1840.302336381191	1
1	564	1844.23412437923	0
1	566	1852.269351684157	0
1	567	1854.517658398498	0
1	569	1867.894889153646	0
1	570	1868.549678589948	0
1	572	1891.176433489135	0
1	573	1896.54757735458	0
1	575	1905.574147502041	0
1	576	1907.966190426314	0
1	578	1917.346534166962	0
1	580	1919.859718383965	1
1	581	1921.41431555001	1
1	582	1924.854546330318	0
1	584	1939.349654962303	0
1	585	1939.560904808161	0
1	587	1961.090286819748	0
1	588	1963.873031940013	0
1	590	1975.049209993997	0
1	591	1977.888553939738	0
1	593	1981.065937883559	0
1	594	1988.040200749582	0
1	596	1990.659179635892	0
1	597	1990.998783707096	0
1	599	1999.517127929185	0
1	600	2004.872234931111	0
1	602	2015.983396403999	0
1	603	2017.620192774197	0
1	605	2017.779689082516	0
1	606	2023.115884451121	0
1	608	2031.848192065851	0
1	609	2033.558697935047	0
1	611	2045.450478944667	0
1	612	2045.965897920642	0
1	614	2053.813500628933	0
1	615	2055.078823889332	0
1	617	2057.33070754447	0
1	618	2058.52606729203	0
1	620	2063.037559367141	0
1	621	2066.956709704264	0
1	623	2068.0679469049	0
1	624	2068.141611397145	0
1	626	2069.778288494005	0
1	628	2071.543963765594	1
1	629	2074.874358634331	1
1	630	2075.014153697319	0
1	632	2076.020062079105	0
1	634	2077.826683610161	1
1	636	2079.059358367249	2
1	637	2079.906004624178	2
1	638	2082.169320244887	1
1	639	2083.855914641499	0
1	641	2084.071028906948	0
1	642	2088.034511492832	0
1	644	2098.677902277939	0
1	645	2101.83744289661	0
1	647	2105.047035183265	0
1	648	2105.76039224554	0
1	650	2108.586159525145	0
1	651	2110.920097362465	0
1	653	2113.59337292589	0
1	654	2113.921825952597	0
1	656	2117.077300258275	0
1	657	2117.240306251158	0
1	659	2124.693100903018	0
1	661	2126.741497365091	1
1	662	2126.927291969884	1
1	663	2128.85587039754	0
1	665	2139.962811783438	0
1	667	2144.905049449605	1
1	669	2148.390469556666	2
1	670	2156.862761428744	2
1	671	2160.007503913658	1
1	672	2161.346650601201	0
1	674	2172.412547039938	0
1	675	2176.7349124635	0
1	677	2194.469050653503	0
1	678	2196.458308338069	0
1	680	2211.610385307272	0
1	681	2212.008420678018	0
1	683	2216.492940178998	0
1	684	2221.03090082238	0
1	686	2233.599564744911	0
1	688	2238.456309878858	1
1	689	2238.950430179325	1
1	690	2239.101586779809	0
1	692	2239.400535291287	0
1	693	2241.042202432834	0
1	695	2242.560540373256	0
1	696	2246.201976424695	0
1	698	2258.990745364652	0
1	699	2261.920608994199	0
1	701	2285.224311488738	0
1	702	2285.867396450754	0
1	704	2289.433378744737	0
1	705	2290.403167442114	0
1	707	2293.952025824646	0
1	709	2295.466525984909	1
1	710	2295.898961790586	1
1	711	2297.431466178634	0
1	713	2311.323393629685	0
1	714	2311.903092518252	0
1	716	2312.700623700424	0
1	717	2313.080820353532	0
1	719	2315.02529342703	0
1	720	2317.382808297279	0
1	722	2322.439870130903	0
1	724	2329.07013642724	1
1	725	2330.513632373581	1
1	726	2332.128623906763	0
1	728	2347.010263693778	0
1	730	2349.214022638782	1
1	731	2349.864587599541	1
1	733	2349.900112886748	1
1	735	2350.234813927102	2
1	737	2351.958807693693	3
1	738	2358.819631976788	3
1	739	2370.175654748845	2
1	740	2371.573235969385	1
1	741	2372.095037293114	0
1	743	2393.727272460446	0
1	744	2394.649539388746	0
1	746	2399.566477350873	0
1	747	2401.146701240707	0
1	749	2401.67574430117	0
1	751	2401.728491683554	1
1	753	2405.930301765944	2
1	754	2406.893270187525	2
1	756	2413.441911465074	2
1	757	2413.927935179489	2
1	758	2418.365623171538	1
1	759	2419.453280127758	0
1	761	2424.470603051368	0
1	762	2428.605638926481	0
1	764	2437.616600674036	0
1	765	2439.506641870295	0
1	767	2458.378665750505	0
1	768	2459.150905230265	0
1	770	2473.096762305511	0
1	771	2475.657269867776	0
1	773	2480.105293345962	0
1	774	2480.598425782088	0
2	80	382.235252452551	0
2	83	387.633002991719	0.152705126295
2	86	391.562425913147	0
2	89	395.860787316929	0
2	92	412.390445041951	0
2	95	424.346477792917	0
2	98	435.46086739259	0
2	101	439.83699385088	0
2	104	447.56192980451	0
2	113	452.720082694614	4.176136646652
2	116	453.553368495789	4.288995895076
2	117	454.821123885328	3.361878925405
2	118	456.470331181208	4.073458852191
2	119	463.896349182901	10.926457863009
2	122	473.51092714349	0
2	125	493.726537843581	0
2	128	502.59468378475	0
2	131	511.660225002818	0
2	134	512.456779232194	0
2	137	515.835756677778	0
2	140	520.053346861379	0
2	143	523.869637106979	0.440595508825
2	146	528.990259934937	0.998742945245
2	149	562.917222430187	0
2	152	563.214012495389	0.177397617938
2	155	565.720765274452	0.709575480963
2	158	570.842152669801	0
2	161	575.971739290579	0
2	164	576.680441897595	0.15840834931
2	167	585.986414216804	0
2	170	597.151784231635	0
2	173	606.560195387816	0
2	176	615.399737444815	8.511531284477
2	179	621.482709564796	0
2	182	626.335759090187	0
2	185	630.125767606979	0
2	188	647.506007837301	0
2	191	663.611069897342	0
2	194	686.447978941902	0
2	201	697.137352449443	6.178609728034
2	204	705.759732437248	10.799366825762
2	205	706.125278168013	9.776041775209
2	206	706.530753615799	9.157396722275
2	209	716.276760613937	0
2	212	719.012790182745	0.648615803956
2	217	730.513655284098	10.781507406856
2	218	733.18618151388	11.655604056105
2	221	750.734120070891	15.313261390971
2	224	763.109587343066	0
2	227	770.836066028553	0
2	230	815.33983698572	0
2	233	827.551832798022	0
2	236	828.526922134488	0
2	239	832.245011322249	2.419138179133
2	242	833.505352780016	0.638736927571
2	245	860.662560965945	0
2	250	864.102828435661	2.016907171226
2	251	866.937089092145	3.900300649608
2	254	875.795246241859	0
2	257	883.579432990996	0
2	260	885.703170665363	0
2	271	907.314567677495	15.605607744013
2	272	907.323481523015	15.462480011057
2	273	911.358310265468	15.372783552946
2	274	917.682929097121	20.024770567716
2	275	924.487254131429	19.616656259146
2	278	931.908531798475	3.850444872087
2	281	977.782795251715	0
2	284	987.312547274255	0
2	289	991.549997728026	2.901605507887
2	290	994.592562116549	4.927941016895
2	293	1003.063281732132	0
2	300	1013.366158987505	8.481660654421
2	301	1014.062338714911	1.595711598719
2	302	1022.121118845883	9.60640728023
2	305	1028.24995331688	4.675291469462
2	308	1031.112392000758	1.296439858235
2	311	1038.261824281075	0
2	314	1039.288922773651	0.301090273631
2	317	1050.812950753785	0
2	320	1074.686843164767	0
2	323	1076.559289956327	0
2	326	1080.027927877924	0.255861346774
2	329	1089.998415916178	0
2	332	1098.699355091126	0
2	335	1102.971271764135	0
2	338	1125.653109149824	0
2	341	1135.191421216453	0
2	344	1137.636642721171	0.713028172374
2	347	1166.342759992117	0
2	350	1183.179246432957	0
2	353	1194.976713073928	0
2	356	1200.126389400961	0
2	359	1223.809794302402	0
2	366	1231.476993895863	5.02580674828
2	367	1238.296339925972	11.003139462261
2	368	1239.402338001823	10.83163679424
2	371	1242.508996592216	0.698667744802
2	374	1245.863600940902	0
2	377	1267.622571549588	0
2	380	1280.618682422055	0
2	383	1290.803514613752	0
2	386	1293.189692628493	2.169047297235
2	389	1299.373506223852	2.357593852567
2	392	1300.676073721323	0
2	395	1303.421498056594	0
2	398	1306.755208086811	0
2	401	1311.727951545182	0
2	404	1328.95001639833	0
2	407	1345.315649321357	0
2	410	1353.473111470222	0
2	413	1382.007448984522	0
2	416	1412.467219625579	0
2	419	1413.13075628884	0.512990897462
2	422	1417.232178053047	1.068713261864
2	425	1463.694842513244	0
2	428	1467.809687119115	0
2	431	1473.139670484572	1.454372283277
2	434	1479.496242489057	4.371633570391
2	437	1481.222019093575	0
2	440	1485.473349908306	0
2	443	1491.414737273803	0.68121347614
2	446	1523.936605642365	0
2	449	1530.610656648086	4.464084271253
2	456	1534.369197258364	2.189432931224
2	457	1536.573628627652	3.911334448169
2	464	1544.644085018073	11.387127142403
2	465	1549.704535038311	12.334761627153
2	466	1551.891675521093	12.301554025453
2	469	1554.028096871033	10.893599067015
2	470	1554.287012256349	2.369922031077
2	473	1562.905216282424	0
2	476	1565.39435816069	0
2	479	1569.56614317534	0
2	482	1585.004878894698	0
2	485	1587.038265261284	1.467615811725
2	488	1589.47315330914	0.665429554531
2	491	1593.09228561208	0
2	494	1608.563558242828	2.718745787416
2	497	1613.581623404025	0
2	500	1618.448524633422	4.525489895885
2	503	1629.979704196496	0
2	506	1633.894607879934	0
2	509	1646.339848198343	0
2	512	1649.151573117809	0
2	515	1651.034310947733	0
2	518	1699.147057802576	0
2	521	1702.882226501429	0
2	524	1716.8927531823	0
2	527	1733.608625682304	0
2	530	1738.620922869498	0
2	533	1760.877054496537	0
2	536	1763.528458482954	0.210845976854
2	539	1774.468463635583	0
2	542	1796.032631171809	0
2	545	1807.405980025673	0
2	548	1811.795521547557	0
2	551	1814.898386038337	1.403283964239
2	554	1819.400654037025	0
2	557	1827.036379175716	3.783586158152
2	560	1839.464300303914	0
2	563	1840.302336381191	0.819583693509
2	566	1852.269351684157	0
2	569	1867.894889153646	0
2	572	1891.176433489135	0
2	575	1905.574147502041	0
2	578	1917.346534166962	0
2	581	1921.41431555001	1.554597166045
2	584	1939.349654962303	0
2	587	1961.090286819748	0
2	590	1975.049209993997	0
2	593	1981.065937883559	0
2	596	1990.659179635892	0
2	599	1999.517127929185	0
2	602	2015.983396403999	0
2	605	2017.779689082516	0
2	608	2031.848192065851	0
2	611	2045.450478944667	0
2	614	2053.813500628933	0
2	617	2057.33070754447	0
2	620	2063.037559367141	0
2	623	2068.0679469049	0
2	626	2069.778288494005	0
2	629	2074.874358634331	3.330394868737
2	632	2076.020062079105	0
2	637	2079.906004624178	2.079321014017
2	638	2082.169320244887	3.109961877638
2	641	2084.071028906948	0
2	644	2098.677902277939	0
2	647	2105.047035183265	0
2	650	2108.586159525145	0
2	653	2113.59337292589	0
2	656	2117.077300258275	0
2	659	2124.693100903018	0
2	662	2126.927291969884	0.185794604793
2	665	2139.962811783438	0
2	670	2156.862761428744	11.957711979139
2	671	2160.007503913658	11.617034356992
2	674	2172.412547039938	0
2	677	2194.469050653503	0
2	680	2211.610385307272	0
2	683	2216.492940178998	0
2	686	2233.599564744911	0
2	689	2238.950430179325	0.494120300467
2	692	2239.400535291287	0
2	695	2242.560540373256	0
2	698	2258.990745364652	0
2	701	2285.224311488738	0
2	704	2289.433378744737	0
2	707	2293.952025824646	0
2	710	2295.898961790586	0.432435805677
2	713	2311.323393629685	0
2	716	2312.700623700424	0
2	719	2315.02529342703	0
2	722	2322.439870130903	0
2	725	2330.513632373581	1.443495946341
2	728	2347.010263693778	0
2	731	2349.864587599541	0.650564960759
2	738	2358.819631976788	8.91951909004
2	739	2370.175654748845	19.940840821743
2	740	2371.573235969385	19.614428275692
2	743	2393.727272460446	0
2	746	2399.566477350873	0
2	749	2401.67574430117	0
2	754	2406.893270187525	5.164778503971
2	757	2413.927935179489	7.997633413545
2	758	2418.365623171538	4.923711706464
2	761	2424.470603051368	0
2	764	2437.616600674036	0
2	767	2458.378665750505	0
2	770	2473.096762305511	0
2	773	2480.105293345962	0
3	83	387.633002991719	27
3	84	388.940122899188	28
3	87	393.77101005038	29
3	90	396.259886811091	30
3	93	412.799707017684	31
3	96	425.790289494334	32
3	99	437.06890724093	33
3	102	443.075906427652	34
3	113	452.720082694614	35
3	116	453.553368495789	36
3	117	454.821123885328	37
3	118	456.470331181208	38
3	119	463.896349182901	39
3	120	467.456310187811	40
3	123	474.133650171919	41
3	126	494.676139853832	42
3	129	502.677836297945	43
3	132	512.157173366894	44
3	135	513.268992104139	45
3	138	518.763437112124	46
3	143	523.869637106979	47
3	146	528.990259934937	48
3	147	529.931188760279	49
3	152	563.214012495389	50
3	155	565.720765274452	51
3	156	567.857598760291	52
3	159	573.824652254816	53
3	164	576.680441897595	54
3	165	577.39735627545	55
3	168	586.047410918646	56
3	171	601.172036317427	57
3	176	615.399737444815	58
3	177	616.677507023286	59
3	180	622.570996277625	60
3	183	627.514399644529	61
3	186	633.864051462606	62
3	189	648.650160990543	63
3	192	665.186660433173	64
3	201	697.137352449443	65
3	204	705.759732437248	66
3	205	706.125278168013	67
3	206	706.530753615799	68
3	207	707.738041611603	69
3	212	719.012790182745	70
3	217	730.513655284098	71
3	218	733.18618151388	72
3	221	750.734120070891	73
3	222	754.827768574686	74
3	225	763.708134173801	75
3	228	772.281535980224	76
3	231	815.789665364752	77
3	234	828.366309723242	78
3	239	832.245011322249	79
3	242	833.505352780016	80
3	243	836.715363095389	81
3	250	864.102828435661	82
3	251	866.937089092145	83
3	252	868.518569799532	84
3	255	877.873962097687	85
3	258	884.348308590395	86
3	271	907.314567677495	87
3	272	907.323481523015	88
3	273	911.358310265468	89
3	274	917.682929097121	90
3	275	924.487254131429	91
3	278	931.908531798475	92
3	279	934.289196755744	93
3	282	981.043869021497	94
3	289	991.549997728026	95
3	290	994.592562116549	96
3	291	997.518516730794	97
3	300	1013.366158987505	98
3	301	1014.062338714911	99
3	302	1022.121118845883	100
3	305	1028.24995331688	101
3	308	1031.112392000758	102
3	309	1032.428732941124	103
3	314	1039.288922773651	104
3	315	1041.660352269828	105
3	318	1054.609373870147	106
3	321	1074.862562765023	107
3	326	1080.027927877924	108
3	327	1081.129349144112	109
3	330	1092.932212592099	110
3	333	1100.732705527354	111
3	336	1107.431667638076	112
3	339	1127.115053390702	113
3	344	1137.636642721171	114
3	345	1139.618427932055	115
3	348	1167.233696058329	116
3	351	1183.652241057689	117
3	354	1199.46160766589	118
3	357	1200.983161799	119
3	366	1231.476993895863	120
3	367	1238.296339925972	121
3	368	1239.402338001823	122
3	371	1242.508996592216	123
3	372	1243.175921345953	124
3	375	1250.677554897122	125
3	378	1268.494285203471	126
3	381	1283.095568903624	127
3	386	1293.189692628493	128
3	389	1299.373506223852	129
3	390	1299.407032214415	130
3	393	1300.754161372703	131
3	396	1305.313789685272	132
3	399	1307.978477876628	133
3	402	1314.194152976642	134
3	405	1328.993679659076	135
3	408	1347.935876724512	136
3	411	1355.955245281398	137
3	414	1383.233371187403	138
3	419	1413.13075628884	139
3	422	1417.232178053047	140
3	423	1417.615292795025	141
3	426	1466.603470427307	142
3	431	1473.139670484572	143
3	434	1479.496242489057	144
3	435	1479.967303711331	145
3	438	1485.413692775927	146
3	443	1491.414737273803	147
3	444	1495.535928253941	148
3	449	1530.610656648086	149
3	456	1534.369197258364	150
3	457	1536.573628627652	151
3	464	1544.644085018073	152
3	465	1549.704535038311	153
3	466	1551.891675521093	154
3	469	1554.028096871033	155
3	470	1554.287012256349	156
3	471	1554.371691063241	157
3	474	1563.988782896513	158
3	477	1566.113509609686	159
3	480	1570.772533711162	160
3	485	1587.038265261284	161
3	488	1589.47315330914	162
3	489	1589.896620409253	163
3	494	1608.563558242828	164
3	495	1611.043844433683	165
3	500	1618.448524633422	166
3	501	1628.013006687648	167
3	504	1631.291573620126	168
3	507	1635.989660908188	169
3	510	1646.672692138926	170
3	513	1649.202390304935	171
3	516	1653.084860608314	172
3	519	1700.085725666098	173
3	522	1703.627272787836	174
3	525	1727.317907443104	175
3	528	1734.121557394085	176
3	531	1738.972623424602	177
3	536	1763.528458482954	178
3	537	1766.465086589998	179
3	540	1778.29337984451	180
3	543	1798.928582228701	181
3	546	1810.532508235655	182
3	551	1814.898386038337	183
3	552	1815.194699832893	184
3	557	1827.036379175716	185
3	558	1827.727650950379	186
3	563	1840.302336381191	187
3	564	1844.23412437923	188
3	567	1854.517658398498	189
3	570	1868.549678589948	190
3	573	1896.54757735458	191
3	576	1907.966190426314	192
3	581	1921.41431555001	193
3	582	1924.854546330318	194
3	585	1939.560904808161	195
3	588	1963.873031940013	196
3	591	1977.888553939738	197
3	594	1988.040200749582	198
3	597	1990.998783707096	199
3	600	2004.872234931111	200
3	603	2017.620192774197	201
3	606	2023.115884451121	202
3	609	2033.558697935047	203
3	612	2045.965897920642	204
3	615	2055.078823889332	205
3	618	2058.52606729203	206
3	621	2066.956709704264	207
3	624	2068.141611397145	208
3	629	2074.874358634331	209
3	630	2075.014153697319	210
3	637	2079.906004624178	211
3	638	2082.169320244887	212
3	639	2083.855914641499	213
3	642	2088.034511492832	214
3	645	2101.83744289661	215
3	648	2105.76039224554	216
3	651	2110.920097362465	217
3	654	2113.921825952597	218
3	657	2117.240306251158	219
3	662	2126.927291969884	220
3	663	2128.85587039754	221
3	670	2156.862761428744	222
3	671	2160.007503913658	223
3	672	2161.346650601201	224
3	675	2176.7349124635	225
3	678	2196.458308338069	226
3	681	2212.008420678018	227
3	684	2221.03090082238	228
3	689	2238.950430179325	229
3	690	2239.101586779809	230
3	693	2241.042202432834	231
3	696	2246.201976424695	232
3	699	2261.920608994199	233
3	702	2285.867396450754	234
3	705	2290.403167442114	235
3	710	2295.898961790586	236
3	711	2297.431466178634	237
3	714	2311.903092518252	238
3	717	2313.080820353532	239
3	720	2317.382808297279	240
3	725	2330.513632373581	241
3	726	2332.128623906763	242
3	731	2349.864587599541	243
3	738	2358.819631976788	244
3	739	2370.175654748845	245
3	740	2371.573235969385	246
3	741	2372.095037293114	247
3	744	2394.649539388746	248
3	747	2401.146701240707	249
3	754	2406.893270187525	250
3	757	2413.927935179489	251
3	758	2418.365623171538	252
3	759	2419.453280127758	253
3	762	2428.605638926481	254
3	765	2439.506641870295	255
3	768	2459.150905230265	256
3	771	2475.657269867776	257
3	774	2480.598425782088	258
4	83	387.633002991719	5.397750539168
4	84	388.940122899188	1.459825033764
4	87	393.77101005038	2.208584137233
4	90	396.259886811091	0.399099494162
4	93	412.799707017684	0.409261975733
4	96	425.790289494334	1.443811701417
4	99	437.06890724093	1.60803984834
4	102	443.075906427652	3.238912576772
4	113	452.720082694614	5.158152890104
4	116	453.553368495789	5.009422447827
4	117	454.821123885328	5.556751284615
4	118	456.470331181208	5.011086221285
4	119	463.896349182901	11.499476853884
4	120	467.456310187811	14.486418867919
4	123	474.133650171919	0.622723028429
4	126	494.676139853832	0.949602010251
4	129	502.677836297945	0.083152513195
4	132	512.157173366894	0.496948364076
4	135	513.268992104139	0.812212871945
4	138	518.763437112124	2.927680434346
4	143	523.869637106979	3.8162902456
4	146	528.990259934937	5.561218336783
4	147	529.931188760279	1.939671770587
4	152	563.214012495389	0.296790065202
4	155	565.720765274452	2.684150397001
4	156	567.857598760291	2.846408966802
4	159	573.824652254816	2.982499585015
4	164	576.680441897595	0.708702607016
4	165	577.39735627545	0.875322727165
4	168	586.047410918646	0.060996701842
4	171	601.172036317427	4.020252085792
4	176	615.399737444815	8.839542056999
4	177	616.677507023286	9.789300862948
4	180	622.570996277625	1.088286712829
4	183	627.514399644529	1.178640554342
4	186	633.864051462606	3.738283855627
4	189	648.650160990543	1.144153153242
4	192	665.186660433173	1.575590535831
4	201	697.137352449443	10.689373507541
4	204	705.759732437248	14.800989715839
4	205	706.125278168013	11.164912556527
4	206	706.530753615799	10.181517222995
4	207	707.738041611603	10.364684718079
4	212	719.012790182745	2.736029568808
4	217	730.513655284098	12.149480905309
4	218	733.18618151388	13.454033636638
4	221	750.734120070891	29.203542613116
4	222	754.827768574686	19.406909894766
4	225	763.708134173801	0.598546830735
4	228	772.281535980224	1.445469951671
4	231	815.789665364752	0.449828379032
4	234	828.366309723242	0.81447692522
4	239	832.245011322249	3.718089187761
4	242	833.505352780016	3.6794796369
4	243	836.715363095389	3.848747242944
4	250	864.102828435661	3.440267469716
4	251	866.937089092145	4.85116782771
4	252	868.518569799532	5.481781356995
4	255	877.873962097687	2.078715855828
4	258	884.348308590395	0.768875599399
4	271	907.314567677495	21.611397012132
4	272	907.323481523015	15.614521589533
4	273	911.358310265468	19.49730875351
4	274	917.682929097121	21.697402384599
4	275	924.487254131429	26.829095602024
4	278	931.908531798475	27.037933926192
4	279	934.289196755744	6.231109829356
4	282	981.043869021497	3.261073769782
4	289	991.549997728026	4.237450453771
4	290	994.592562116549	5.94416989641
4	291	997.518516730794	7.85389563114
4	300	1013.366158987505	10.302877255373
4	301	1014.062338714911	9.177840381827
4	302	1022.121118845883	9.654491729691
4	305	1028.24995331688	15.735241751227
4	308	1031.112392000758	7.53773015334
4	309	1032.428732941124	2.612780798601
4	314	1039.288922773651	1.027098492576
4	315	1041.660352269828	2.672519769808
4	318	1054.609373870147	3.796423116362
4	321	1074.862562765023	0.175719600256
4	326	1080.027927877924	3.468637921597
4	327	1081.129349144112	1.357282612962
4	330	1092.932212592099	2.933796675921
4	333	1100.732705527354	2.033350436228
4	336	1107.431667638076	4.460395873941
4	339	1127.115053390702	1.461944240878
4	344	1137.636642721171	2.445221504718
4	345	1139.618427932055	2.694813383258
4	348	1167.233696058329	0.890936066212
4	351	1183.652241057689	0.472994624732
4	354	1199.46160766589	4.484894591962
4	357	1200.983161799	0.856772398039
4	366	1231.476993895863	7.667199593461
4	367	1238.296339925972	11.845152778389
4	368	1239.402338001823	12.109137538112
4	371	1242.508996592216	13.938295384633
4	372	1243.175921345953	1.365592498539
4	375	1250.677554897122	4.81395395622
4	378	1268.494285203471	0.871713653883
4	381	1283.095568903624	2.476886481569
4	386	1293.189692628493	2.386178014741
4	389	1299.373506223852	8.352860892594
4	390	1299.407032214415	2.39111984313
4	393	1300.754161372703	0.07808765138
4	396	1305.313789685272	1.892291628678
4	399	1307.978477876628	1.223269789817
4	402	1314.194152976642	2.46620143146
4	405	1328.993679659076	0.043663260746
4	408	1347.935876724512	2.620227403155
4	411	1355.955245281398	2.482133811176
4	414	1383.233371187403	1.225922202881
4	419	1413.13075628884	0.663536663261
4	422	1417.232178053047	4.614412661669
4	423	1417.615292795025	1.451828003842
4	426	1466.603470427307	2.908627914063
4	431	1473.139670484572	5.329983365457
4	434	1479.496242489057	7.810944287762
4	435	1479.967303711331	4.842694792665
4	438	1485.413692775927	4.191673682352
4	443	1491.414737273803	5.941387365497
4	444	1495.535928253941	4.802404456278
4	449	1530.610656648086	6.674051005721
4	456	1534.369197258364	8.222624881531
4	457	1536.573628627652	4.393864300512
4	464	1544.644085018073	11.98179083859
4	465	1549.704535038311	16.447577162641
4	466	1551.891675521093	14.521902109935
4	469	1554.028096871033	14.437975375393
4	470	1554.287012256349	11.152514452331
4	471	1554.371691063241	2.454600837969
4	474	1563.988782896513	1.083566614089
4	477	1566.113509609686	0.719151448996
4	480	1570.772533711162	1.206390535822
4	485	1587.038265261284	2.033386366586
4	488	1589.47315330914	3.902503859581
4	489	1589.896620409253	1.088896654644
4	494	1608.563558242828	15.471272630748
4	495	1611.043844433683	5.199031978271
4	500	1618.448524633422	4.866901229397
4	501	1628.013006687648	14.089971950111
4	504	1631.291573620126	1.31186942363
4	507	1635.989660908188	2.095053028254
4	510	1646.672692138926	0.332843940583
4	513	1649.202390304935	0.050817187126
4	516	1653.084860608314	2.050549660581
4	519	1700.085725666098	0.938667863522
4	522	1703.627272787836	0.745046286407
4	525	1727.317907443104	10.425154260804
4	528	1734.121557394085	0.512931711781
4	531	1738.972623424602	0.351700555104
4	536	1763.528458482954	2.651403986417
4	537	1766.465086589998	3.147474083898
4	540	1778.29337984451	3.824916208927
4	543	1798.928582228701	2.895951056892
4	546	1810.532508235655	3.126528209982
4	551	1814.898386038337	3.10286449078
4	552	1815.194699832893	1.699597758795
4	557	1827.036379175716	7.635725138691
4	558	1827.727650950379	4.474857932815
4	563	1840.302336381191	0.838036077277
4	564	1844.23412437923	4.751371691548
4	567	1854.517658398498	2.248306714341
4	570	1868.549678589948	0.654789436302
4	573	1896.54757735458	5.371143865445
4	576	1907.966190426314	2.392042924273
4	581	1921.41431555001	4.067781383048
4	582	1924.854546330318	4.994827946353
4	585	1939.560904808161	0.211249845858
4	588	1963.873031940013	2.782745120265
4	591	1977.888553939738	2.839343945741
4	594	1988.040200749582	6.974262866023
4	597	1990.998783707096	0.339604071204
4	600	2004.872234931111	5.355107001926
4	603	2017.620192774197	1.636796370198
4	606	2023.115884451121	5.336195368605
4	609	2033.558697935047	1.710505869196
4	612	2045.965897920642	0.515418975975
4	615	2055.078823889332	1.265323260399
4	618	2058.52606729203	1.19535974756
4	621	2066.956709704264	3.919150337123
4	624	2068.141611397145	0.073664492245
4	629	2074.874358634331	5.096070140326
4	630	2075.014153697319	3.470189931725
4	637	2079.906004624178	3.885942545073
4	638	2082.169320244887	4.342636634726
4	639	2083.855914641499	4.79655627425
4	642	2088.034511492832	3.963482585884
4	645	2101.83744289661	3.159540618671
4	648	2105.76039224554	0.713357062275
4	651	2110.920097362465	2.33393783732
4	654	2113.921825952597	0.328453026707
4	657	2117.240306251158	0.163005992883
4	662	2126.927291969884	2.234191066866
4	663	2128.85587039754	2.114373032449
4	670	2156.862761428744	16.899949645306
4	671	2160.007503913658	15.102454464053
4	672	2161.346650601201	12.956181044535
4	675	2176.7349124635	4.322365423562
4	678	2196.458308338069	1.989257684566
4	681	2212.008420678018	0.398035370746
4	684	2221.03090082238	4.537960643382
4	689	2238.950430179325	5.350865434414
4	690	2239.101586779809	0.645276900951
4	693	2241.042202432834	1.641667141547
4	696	2246.201976424695	3.641436051439
4	699	2261.920608994199	2.929863629547
4	702	2285.867396450754	0.643084962016
4	705	2290.403167442114	0.969788697377
4	710	2295.898961790586	1.94693596594
4	711	2297.431466178634	1.964940193725
4	714	2311.903092518252	0.579698888567
4	717	2313.080820353532	0.380196653108
4	720	2317.382808297279	2.357514870249
4	725	2330.513632373581	8.073762242678
4	726	2332.128623906763	3.058487479523
4	731	2349.864587599541	2.854323905763
4	738	2358.819631976788	9.605609338006
4	739	2370.175654748845	20.275541862097
4	740	2371.573235969385	21.338422042283
4	741	2372.095037293114	20.136229599421
4	744	2394.649539388746	0.9222669283
4	747	2401.146701240707	1.580223889834
4	754	2406.893270187525	5.217525886355
4	757	2413.927935179489	12.199443495935
4	758	2418.365623171538	12.435321405594
4	759	2419.453280127758	6.011368662684
4	762	2428.605638926481	4.135035875113
4	765	2439.506641870295	1.890041196259
4	768	2459.150905230265	0.77223947976
4	771	2475.657269867776	2.560507562265
4	774	2480.598425782088	0.493132436126
5	775	2500	0
6	775	2500	0.1032

