version 2
run warm_up_time-11-20221220-17:01:05-18557
attr configname warm_up_time
attr datetime 20221220-17:01:05
attr experiment warm_up_time
attr inifile omnetpp.ini
attr iterationvars ""
attr iterationvarsf ""
attr measurement ""
attr network Network
attr processid 18557
attr repetition 11
attr replication #11
attr resultdir results
attr runnumber 11
attr seedset 11
param **.minion.arrival_distribution 0
param **.minion.service_distribution 0
param **.boss.arrival_distribution 0
param **.boss.service_distribution 0
param *.minion.arrival_mean 0
param *.minion.service_mean 0
param *.boss.arrival_mean 10
param *.boss.service_mean 3

vector 0 Network.player boss_defeated_stat:vector ETV
attr source signal_boss_defeated
vector 1 Network.player boss_jobs_queue_number_stat:vector ETV
attr source signal_boss_jobs_queue_number
vector 2 Network.player boss_response_time_stat:vector ETV
attr source signal_boss_response_time
vector 3 Network.player boss_jobs_number_stat:vector ETV
attr source signal_boss_jobs_number
vector 4 Network.player boss_waiting_time_stat:vector ETV
attr source signal_boss_waiting_time
vector 5 Network.player minion_throughput:vector ETV
attr source signal_minion_throughput
vector 6 Network.player boss_throughput:vector ETV
attr source signal_boss_throughput
0	102	350.469658015754	34
0	105	367.883031681865	35
0	108	372.192838410522	36
0	111	377.143913442729	37
0	114	381.529703731998	38
0	117	388.789792337323	39
0	122	397.176661460005	40
0	125	406.44103854306	41
0	132	411.359462157356	42
0	133	411.767315051161	43
0	134	419.468610996223	44
0	135	423.594850508637	45
0	138	431.861126356741	46
0	141	435.169671539456	47
0	144	439.540115822707	48
0	147	446.254054655115	49
0	150	450.807615684668	50
0	153	496.699083851938	51
0	156	523.333999495179	52
0	159	530.363406809863	53
0	162	549.445978633146	54
0	171	558.950061613331	55
0	174	565.260503743975	56
0	175	567.416659001287	57
0	180	569.38721663723	58
0	181	569.97384578692	59
0	184	577.186169725063	60
0	187	579.495384892828	61
0	192	586.572797627455	62
0	193	587.614923258448	63
0	194	587.701836042231	64
0	195	587.733812000089	65
0	198	596.140308275113	66
0	203	633.876066967118	67
0	204	635.153886902676	68
0	207	644.985583094369	69
0	210	652.710523566935	70
0	215	675.864699464059	71
0	218	681.422097386955	72
0	223	685.520929125811	73
0	224	686.817746875363	74
0	225	687.750437018476	75
0	228	711.698281874508	76
0	231	716.324221871033	77
0	234	723.757043762604	78
0	237	763.515693732409	79
0	244	784.643620513641	80
0	245	787.0184482892	81
0	246	788.059472458147	82
0	249	808.305805887203	83
0	254	821.479531853525	84
0	255	822.055325429615	85
0	258	840.368416694511	86
0	261	851.58896442494	87
0	266	863.66272843382	88
0	267	864.115832988578	89
0	270	871.376769605947	90
0	275	875.314474791487	91
0	276	875.65650741802	92
0	279	878.856799234808	93
0	282	893.174471313663	94
0	289	905.503701884275	95
0	290	907.209155649453	96
0	291	907.681108787414	97
0	294	909.392262451681	98
0	297	917.635485624591	99
0	304	943.473093322591	100
0	305	945.723210062525	101
0	306	950.495677883447	102
0	309	959.067605003401	103
0	320	991.066436700546	104
0	321	991.588335481956	105
0	330	1005.233991711418	106
0	331	1007.959789293821	107
0	332	1013.231107633134	108
0	333	1013.559644377527	109
0	334	1014.641857732991	110
0	341	1017.159611267244	111
0	346	1029.220688761305	112
0	347	1030.685467167966	113
0	348	1034.739607874196	114
0	349	1035.005190337648	115
0	350	1039.156545742968	116
0	351	1041.633149198099	117
0	354	1086.782899830275	118
0	357	1098.391369861584	119
0	360	1120.142124628482	120
0	365	1124.021974471381	121
0	366	1124.689019861939	122
0	371	1142.32539837691	123
0	374	1149.357232755718	124
0	379	1158.601687869008	125
0	384	1166.066614448613	126
0	385	1166.249128846933	127
0	386	1167.867577253546	128
0	389	1174.233528219032	129
0	390	1174.772189888498	130
0	393	1182.136212625898	131
0	396	1192.591725852179	132
0	399	1219.724543380842	133
0	406	1248.019006034038	134
0	409	1255.874616068226	135
0	410	1258.517301243792	136
0	413	1260.282314933097	137
0	414	1260.477654930462	138
0	417	1279.345773188092	139
0	420	1280.848788250567	140
0	425	1299.678973352509	141
0	426	1302.777431721108	142
0	429	1307.361117237271	143
0	432	1314.325696232008	144
0	435	1320.85788619272	145
0	438	1331.125030547094	146
0	441	1347.218870819011	147
0	446	1388.48956337369	148
0	447	1390.459906799262	149
0	450	1406.350895398711	150
0	455	1409.76840839101	151
0	456	1410.186270364702	152
0	459	1419.767076143351	153
0	464	1449.266754671078	154
0	465	1451.519928031004	155
0	470	1487.72159286887	156
0	471	1490.532180211776	157
0	476	1498.675743088441	158
0	479	1500.910612109663	159
0	482	1504.505689729917	160
0	487	1515.951488077686	161
0	488	1518.746908050557	162
0	489	1521.511118492381	163
0	492	1528.431774977859	164
0	497	1549.163929294048	165
0	500	1554.210461698432	166
0	501	1554.478187865939	167
0	504	1557.06669049958	168
0	507	1568.645972379956	169
0	510	1583.865263794625	170
0	513	1595.61815751053	171
0	516	1612.43206406703	172
0	523	1622.0351314996	173
0	524	1622.076148406913	174
0	525	1622.809569919431	175
0	528	1628.001990125954	176
0	531	1652.279800285294	177
0	534	1667.200912757883	178
0	537	1671.370435719686	179
0	540	1715.9641289151	180
0	545	1720.488387110433	181
0	548	1728.47564078927	182
0	549	1730.400896390522	183
0	552	1751.730301147507	184
0	557	1762.525788214548	185
0	560	1765.939923253717	186
0	563	1768.609480661446	187
0	564	1769.279734966846	188
0	567	1770.525482535215	189
0	570	1784.696411714701	190
0	573	1799.817767882723	191
0	576	1810.167582427859	192
0	579	1826.510329447485	193
0	582	1831.768803499891	194
0	585	1839.419183282733	195
0	588	1849.78571787077	196
0	593	1863.685283103087	197
0	600	1871.468934540722	198
0	601	1874.713442547752	199
0	604	1885.376634568009	200
0	605	1887.775488996548	201
0	610	1900.59941234854	202
0	611	1905.424641410805	203
0	612	1906.014164027049	204
0	615	1913.621475177462	205
0	626	1933.602105005935	206
0	627	1933.720676866602	207
0	630	1938.133490263446	208
0	631	1943.089518850204	209
0	634	1946.228601129697	210
0	637	1950.998313442114	211
0	638	1953.075705695282	212
0	639	1954.060881515639	213
0	644	1983.460370574541	214
0	645	1985.283699895744	215
0	650	1999.603115590482	216
0	653	2001.123861145787	217
0	654	2003.147295543359	218
0	657	2015.724406346336	219
0	660	2020.376449903271	220
0	663	2025.732069605833	221
0	666	2027.576138861929	222
0	669	2041.828370227858	223
0	672	2049.662402082864	224
0	675	2050.945773558619	225
0	682	2075.854481673011	226
0	685	2078.69190078758	227
0	690	2080.064641354745	228
0	691	2081.33575066318	229
0	694	2087.816429930116	230
0	695	2089.771265798153	231
0	696	2092.054589011416	232
0	699	2105.602203552891	233
0	702	2123.060497569359	234
0	705	2123.836340085239	235
0	708	2134.321628104694	236
0	713	2162.159776956931	237
0	714	2162.162641330602	238
0	721	2182.367913563688	239
0	722	2183.254806305797	240
0	723	2186.9840067306	241
0	726	2198.23279610806	242
0	729	2213.708500095789	243
0	732	2217.084714869097	244
0	735	2233.000296649616	245
0	738	2246.751438773742	246
0	741	2247.553278643127	247
0	744	2250.760184405785	248
0	747	2270.026419728999	249
0	750	2271.145082506001	250
0	753	2272.213347314006	251
0	756	2281.358966083288	252
0	759	2323.229911663108	253
0	762	2326.664182673786	254
0	765	2329.194703975015	255
0	768	2333.270841749821	256
0	771	2336.493091406947	257
0	774	2364.899803852426	258
0	777	2370.825234834892	259
0	780	2387.66918414346	260
0	783	2448.909281764973	261
0	788	2462.413722798523	262
0	789	2469.377370717746	263
0	794	2477.499238949844	264
0	795	2477.979632747268	265
0	800	2482.167287970641	266
0	805	2486.993651929396	267
0	808	2488.685998342691	268
0	809	2489.579308551656	269
0	810	2490.681188153997	270
0	817	2497.384185248708	271
1	102	350.469658015754	0
1	104	360.409283811401	0
1	105	367.883031681865	0
1	107	371.173503734935	0
1	108	372.192838410522	0
1	110	376.19599468781	0
1	111	377.143913442729	0
1	113	377.948662242251	0
1	114	381.529703731998	0
1	116	387.831044191754	0
1	117	388.789792337323	0
1	119	395.04026741644	0
1	121	395.40678837798	1
1	122	397.176661460005	1
1	124	403.525662631662	1
1	125	406.44103854306	1
1	127	407.091095707291	1
1	129	409.825669589371	2
1	131	410.313930014622	3
1	132	411.359462157356	3
1	133	411.767315051161	2
1	134	419.468610996223	1
1	135	423.594850508637	0
1	137	430.49840349668	0
1	138	431.861126356741	0
1	140	435.153916374813	0
1	141	435.169671539456	0
1	143	437.379970209784	0
1	144	439.540115822707	0
1	146	440.423712324732	0
1	147	446.254054655115	0
1	149	446.535078190184	0
1	150	450.807615684668	0
1	152	493.127333277703	0
1	153	496.699083851938	0
1	155	522.919973343766	0
1	156	523.333999495179	0
1	158	527.947644250368	0
1	159	530.363406809863	0
1	161	547.064017488764	0
1	162	549.445978633146	0
1	164	550.739054872564	0
1	166	551.757633159105	1
1	168	554.256373907472	2
1	170	556.226346577834	3
1	171	558.950061613331	3
1	173	563.039027326864	3
1	174	565.260503743975	3
1	175	567.416659001287	2
1	177	568.639468796434	2
1	179	569.235643970711	3
1	180	569.38721663723	3
1	181	569.97384578692	2
1	183	575.374575279457	2
1	184	577.186169725063	2
1	186	578.795254539745	2
1	187	579.495384892828	2
1	189	581.915004590374	2
1	191	584.59315053204	3
1	192	586.572797627455	3
1	193	587.614923258448	2
1	194	587.701836042231	1
1	195	587.733812000089	0
1	197	594.333336005154	0
1	198	596.140308275113	0
1	200	627.418721012098	0
1	202	632.218020867006	1
1	203	633.876066967118	1
1	204	635.153886902676	0
1	206	641.780658871784	0
1	207	644.985583094369	0
1	209	647.462070929159	0
1	210	652.710523566935	0
1	212	667.309493403745	0
1	214	675.724615060903	1
1	215	675.864699464059	1
1	217	676.668658769998	1
1	218	681.422097386955	1
1	220	682.003934191433	1
1	222	683.617235247999	2
1	223	685.520929125811	2
1	224	686.817746875363	1
1	225	687.750437018476	0
1	227	703.811654052786	0
1	228	711.698281874508	0
1	230	714.976615598601	0
1	231	716.324221871033	0
1	233	722.64500892872	0
1	234	723.757043762604	0
1	236	761.273492518352	0
1	237	763.515693732409	0
1	239	782.366044891507	0
1	241	782.601019156934	1
1	243	783.579064935801	2
1	244	784.643620513641	2
1	245	787.0184482892	1
1	246	788.059472458147	0
1	248	807.407876331147	0
1	249	808.305805887203	0
1	251	820.861755107194	0
1	253	821.459799917703	1
1	254	821.479531853525	1
1	255	822.055325429615	0
1	257	836.154603739412	0
1	258	840.368416694511	0
1	260	850.246771939846	0
1	261	851.58896442494	0
1	263	862.885902373897	0
1	265	863.553743492777	1
1	266	863.66272843382	1
1	267	864.115832988578	0
1	269	870.88255346745	0
1	270	871.376769605947	0
1	272	873.83611358819	0
1	274	875.082885501818	1
1	275	875.314474791487	1
1	276	875.65650741802	0
1	278	876.941456615925	0
1	279	878.856799234808	0
1	281	892.928388602948	0
1	282	893.174471313663	0
1	284	895.099100078108	0
1	286	900.895113712182	1
1	288	902.021839417516	2
1	289	905.503701884275	2
1	290	907.209155649453	1
1	291	907.681108787414	0
1	293	908.113117590851	0
1	294	909.392262451681	0
1	296	915.469272871588	0
1	297	917.635485624591	0
1	299	942.09346134393	0
1	301	942.156120051135	1
1	303	942.339694740398	2
1	304	943.473093322591	2
1	305	945.723210062525	1
1	306	950.495677883447	0
1	308	957.975027695413	0
1	309	959.067605003401	0
1	311	973.563066403077	0
1	313	975.056317299243	1
1	315	975.780107577378	2
1	317	976.913420634174	3
1	319	987.670625241841	4
1	320	991.066436700546	4
1	321	991.588335481956	3
1	323	993.284819736379	3
1	325	994.618843071189	4
1	327	997.090297090786	5
1	329	998.087854874931	6
1	330	1005.233991711418	6
1	331	1007.959789293821	5
1	332	1013.231107633134	4
1	333	1013.559644377527	3
1	334	1014.641857732991	2
1	336	1016.157706749793	2
1	338	1016.356808757721	3
1	340	1016.415729162452	4
1	341	1017.159611267244	4
1	343	1025.037997592616	4
1	345	1026.643475602598	5
1	346	1029.220688761305	5
1	347	1030.685467167966	4
1	348	1034.739607874196	3
1	349	1035.005190337648	2
1	350	1039.156545742968	1
1	351	1041.633149198099	0
1	353	1083.273712009621	0
1	354	1086.782899830275	0
1	356	1095.258386564379	0
1	357	1098.391369861584	0
1	359	1119.171322462318	0
1	360	1120.142124628482	0
1	362	1120.768432521426	0
1	364	1121.233298298426	1
1	365	1124.021974471381	1
1	366	1124.689019861939	0
1	368	1141.696038396732	0
1	370	1141.97171976986	1
1	371	1142.32539837691	1
1	373	1149.186902802394	1
1	374	1149.357232755718	1
1	376	1152.093990049477	1
1	378	1157.624369222406	2
1	379	1158.601687869008	2
1	381	1160.432939703849	2
1	383	1160.624445586746	3
1	384	1166.066614448613	3
1	385	1166.249128846933	2
1	386	1167.867577253546	1
1	388	1170.723509676108	1
1	389	1174.233528219032	1
1	390	1174.772189888498	0
1	392	1177.542138996658	0
1	393	1182.136212625898	0
1	395	1189.547606851514	0
1	396	1192.591725852179	0
1	398	1218.851571102707	0
1	399	1219.724543380842	0
1	401	1237.51137602908	0
1	403	1241.754850078178	1
1	405	1246.82248801478	2
1	406	1248.019006034038	2
1	408	1252.053644648257	2
1	409	1255.874616068226	2
1	410	1258.517301243792	1
1	412	1260.268802235598	1
1	413	1260.282314933097	1
1	414	1260.477654930462	0
1	416	1277.925418064961	0
1	417	1279.345773188092	0
1	419	1280.43284342461	0
1	420	1280.848788250567	0
1	422	1292.951016551003	0
1	424	1296.486738682005	1
1	425	1299.678973352509	1
1	426	1302.777431721108	0
1	428	1303.153188973806	0
1	429	1307.361117237271	0
1	431	1313.740786481238	0
1	432	1314.325696232008	0
1	434	1316.39013935346	0
1	435	1320.85788619272	0
1	437	1329.73446412743	0
1	438	1331.125030547094	0
1	440	1340.881773789299	0
1	441	1347.218870819011	0
1	443	1379.162156647238	0
1	445	1387.805182179456	1
1	446	1388.48956337369	1
1	447	1390.459906799262	0
1	449	1402.736864065567	0
1	450	1406.350895398711	0
1	452	1408.685926029236	0
1	454	1409.419570943823	1
1	455	1409.76840839101	1
1	456	1410.186270364702	0
1	458	1418.011894498142	0
1	459	1419.767076143351	0
1	461	1444.216694327778	0
1	463	1447.94324536589	1
1	464	1449.266754671078	1
1	465	1451.519928031004	0
1	467	1476.897292679376	0
1	469	1487.454871551072	1
1	470	1487.72159286887	1
1	471	1490.532180211776	0
1	473	1497.547881882029	0
1	475	1498.501440355677	1
1	476	1498.675743088441	1
1	478	1499.410361505714	1
1	479	1500.910612109663	1
1	481	1503.987185299263	1
1	482	1504.505689729917	1
1	484	1506.678973331682	1
1	486	1515.169294602837	2
1	487	1515.951488077686	2
1	488	1518.746908050557	1
1	489	1521.511118492381	0
1	491	1527.108186464722	0
1	492	1528.431774977859	0
1	494	1543.753113980184	0
1	496	1547.588379641401	1
1	497	1549.163929294048	1
1	499	1553.872904737098	1
1	500	1554.210461698432	1
1	501	1554.478187865939	0
1	503	1556.846556782399	0
1	504	1557.06669049958	0
1	506	1566.635975919891	0
1	507	1568.645972379956	0
1	509	1580.544060030215	0
1	510	1583.865263794625	0
1	512	1588.700997016128	0
1	513	1595.61815751053	0
1	515	1610.52787037836	0
1	516	1612.43206406703	0
1	518	1614.566367107468	0
1	520	1617.707324717466	1
1	522	1619.183222695166	2
1	523	1622.0351314996	2
1	524	1622.076148406913	1
1	525	1622.809569919431	0
1	527	1627.295339769671	0
1	528	1628.001990125954	0
1	530	1650.744215570874	0
1	531	1652.279800285294	0
1	533	1666.40924544859	0
1	534	1667.200912757883	0
1	536	1669.006926820633	0
1	537	1671.370435719686	0
1	539	1715.019778212979	0
1	540	1715.9641289151	0
1	542	1717.407372213872	0
1	544	1720.038016141211	1
1	545	1720.488387110433	1
1	547	1721.995534845175	1
1	548	1728.47564078927	1
1	549	1730.400896390522	0
1	551	1749.388705263137	0
1	552	1751.730301147507	0
1	554	1760.03837803681	0
1	556	1762.270339841964	1
1	557	1762.525788214548	1
1	559	1762.794219298681	1
1	560	1765.939923253717	1
1	562	1768.43727068518	1
1	563	1768.609480661446	1
1	564	1769.279734966846	0
1	566	1769.396649355495	0
1	567	1770.525482535215	0
1	569	1783.459310527003	0
1	570	1784.696411714701	0
1	572	1795.561084858444	0
1	573	1799.817767882723	0
1	575	1807.760989170958	0
1	576	1810.167582427859	0
1	578	1820.672102687735	0
1	579	1826.510329447485	0
1	581	1830.227321057385	0
1	582	1831.768803499891	0
1	584	1837.477540472493	0
1	585	1839.419183282733	0
1	587	1846.958215714485	0
1	588	1849.78571787077	0
1	590	1857.718955316991	0
1	592	1860.625000295579	1
1	593	1863.685283103087	1
1	595	1864.342964619316	1
1	597	1866.923552828266	2
1	599	1867.744110389014	3
1	600	1871.468934540722	3
1	601	1874.713442547752	2
1	603	1876.615502411451	2
1	604	1885.376634568009	2
1	605	1887.775488996548	1
1	607	1889.162415231729	1
1	609	1899.632033191065	2
1	610	1900.59941234854	2
1	611	1905.424641410805	1
1	612	1906.014164027049	0
1	614	1912.487447544114	0
1	615	1913.621475177462	0
1	617	1924.814771468195	0
1	619	1925.049409947819	1
1	621	1926.607140097547	2
1	623	1927.918939666465	3
1	625	1928.68033645609	4
1	626	1933.602105005935	4
1	627	1933.720676866602	3
1	629	1934.637593830675	3
1	630	1938.133490263446	3
1	631	1943.089518850204	2
1	633	1943.19574811059	2
1	634	1946.228601129697	2
1	636	1947.036098860944	2
1	637	1950.998313442114	2
1	638	1953.075705695282	1
1	639	1954.060881515639	0
1	641	1962.664302461839	0
1	643	1969.327919103555	1
1	644	1983.460370574541	1
1	645	1985.283699895744	0
1	647	1998.845633853626	0
1	649	1998.922037722472	1
1	650	1999.603115590482	1
1	652	2001.091776104848	1
1	653	2001.123861145787	1
1	654	2003.147295543359	0
1	656	2006.523924416656	0
1	657	2015.724406346336	0
1	659	2018.818629882161	0
1	660	2020.376449903271	0
1	662	2024.441189299408	0
1	663	2025.732069605833	0
1	665	2026.152365272502	0
1	666	2027.576138861929	0
1	668	2041.644573176964	0
1	669	2041.828370227858	0
1	671	2048.193289222042	0
1	672	2049.662402082864	0
1	674	2050.935708923166	0
1	675	2050.945773558619	0
1	677	2072.688279215453	0
1	679	2075.006941169214	1
1	681	2075.369789573536	2
1	682	2075.854481673011	2
1	684	2076.241899633652	2
1	685	2078.69190078758	2
1	687	2079.726223318149	2
1	689	2079.858408575431	3
1	690	2080.064641354745	3
1	691	2081.33575066318	2
1	693	2082.469363466365	2
1	694	2087.816429930116	2
1	695	2089.771265798153	1
1	696	2092.054589011416	0
1	698	2093.394677603156	0
1	699	2105.602203552891	0
1	701	2119.086032386407	0
1	702	2123.060497569359	0
1	704	2123.18561464143	0
1	705	2123.836340085239	0
1	707	2132.388618939407	0
1	708	2134.321628104694	0
1	710	2160.983927972809	0
1	712	2162.041293571091	1
1	713	2162.159776956931	1
1	714	2162.162641330602	0
1	716	2171.082298131178	0
1	718	2176.878517046148	1
1	720	2181.214560228553	2
1	721	2182.367913563688	2
1	722	2183.254806305797	1
1	723	2186.9840067306	0
1	725	2194.181023635168	0
1	726	2198.23279610806	0
1	728	2209.492911153626	0
1	729	2213.708500095789	0
1	731	2213.925150331612	0
1	732	2217.084714869097	0
1	734	2232.751090414705	0
1	735	2233.000296649616	0
1	737	2246.15890269224	0
1	738	2246.751438773742	0
1	740	2247.506701987261	0
1	741	2247.553278643127	0
1	743	2250.663642847963	0
1	744	2250.760184405785	0
1	746	2269.472941024361	0
1	747	2270.026419728999	0
1	749	2270.167681859663	0
1	750	2271.145082506001	0
1	752	2272.095352319535	0
1	753	2272.213347314006	0
1	755	2281.126297054591	0
1	756	2281.358966083288	0
1	758	2319.635358806804	0
1	759	2323.229911663108	0
1	761	2325.146277146998	0
1	762	2326.664182673786	0
1	764	2326.698723788778	0
1	765	2329.194703975015	0
1	767	2332.214596350125	0
1	768	2333.270841749821	0
1	770	2333.404893352369	0
1	771	2336.493091406947	0
1	773	2361.810848570402	0
1	774	2364.899803852426	0
1	776	2370.332937913102	0
1	777	2370.825234834892	0
1	779	2384.518035803758	0
1	780	2387.66918414346	0
1	782	2446.739159097094	0
1	783	2448.909281764973	0
1	785	2460.982521493547	0
1	787	2460.995104979324	1
1	788	2462.413722798523	1
1	789	2469.377370717746	0
1	791	2473.946986795827	0
1	793	2474.769086185738	1
1	794	2477.499238949844	1
1	795	2477.979632747268	0
1	797	2478.214198769322	0
1	799	2478.24121628673	1
1	800	2482.167287970641	1
1	802	2482.471116215921	1
1	804	2483.20787356238	2
1	805	2486.993651929396	2
1	807	2488.028147135494	2
1	808	2488.685998342691	2
1	809	2489.579308551656	1
1	810	2490.681188153997	0
1	812	2492.165071389394	0
1	814	2492.199178833457	1
1	816	2496.011695091498	2
1	817	2497.384185248708	2
2	102	350.469658015754	6.260714969694
2	105	367.883031681865	7.473747870464
2	108	372.192838410522	1.019334675587
2	111	377.143913442729	0.947918754919
2	114	381.529703731998	3.581041489747
2	117	388.789792337323	0.958748145569
2	122	397.176661460005	2.136394043565
2	125	406.44103854306	11.03425016508
2	132	411.359462157356	7.833799525694
2	133	411.767315051161	4.67621934387
2	134	419.468610996223	9.642941406852
2	135	423.594850508637	13.280920494015
2	138	431.861126356741	1.362722860061
2	141	435.169671539456	0.015755164643
2	144	439.540115822707	2.160145612923
2	147	446.254054655115	5.830342330383
2	150	450.807615684668	4.272537494484
2	153	496.699083851938	3.571750574235
2	156	523.333999495179	0.414026151413
2	159	530.363406809863	2.415762559495
2	162	549.445978633146	2.381961144382
2	171	558.950061613331	8.211006740767
2	174	565.260503743975	13.50287058487
2	175	567.416659001287	13.160285093815
2	180	569.38721663723	13.160870059396
2	181	569.97384578692	6.934818460056
2	184	577.186169725063	8.546700928629
2	187	579.495384892828	10.259740922117
2	192	586.572797627455	11.198222347998
2	193	587.614923258448	8.819668718703
2	194	587.701836042231	5.786831451857
2	195	587.733812000089	3.140661468049
2	198	596.140308275113	1.806972269959
2	203	633.876066967118	6.45734595502
2	204	635.153886902676	2.93586603567
2	207	644.985583094369	3.204924222585
2	210	652.710523566935	5.248452637776
2	215	675.864699464059	8.555206060314
2	218	681.422097386955	5.697482326052
2	223	685.520929125811	8.852270355813
2	224	686.817746875363	4.81381268393
2	225	687.750437018476	4.133201770477
2	228	711.698281874508	7.886627821722
2	231	716.324221871033	1.347606272432
2	234	723.757043762604	1.112034833884
2	237	763.515693732409	2.242201214057
2	244	784.643620513641	2.277575622134
2	245	787.0184482892	4.417429132266
2	246	788.059472458147	4.480407522346
2	249	808.305805887203	0.897929556056
2	254	821.479531853525	0.617776746331
2	255	822.055325429615	0.595525511912
2	258	840.368416694511	4.213812955099
2	261	851.58896442494	1.342192485094
2	266	863.66272843382	0.776826059923
2	267	864.115832988578	0.562089495801
2	270	871.376769605947	0.494216138497
2	275	875.314474791487	1.478361203297
2	276	875.65650741802	0.573621916202
2	279	878.856799234808	1.915342618883
2	282	893.174471313663	0.246082710715
2	289	905.503701884275	10.404601806167
2	290	907.209155649453	6.314041937271
2	291	907.681108787414	5.659269369898
2	294	909.392262451681	1.27914486083
2	297	917.635485624591	2.166212753003
2	304	943.473093322591	1.379631978661
2	305	945.723210062525	3.56709001139
2	306	950.495677883447	8.155983143049
2	309	959.067605003401	1.092577307988
2	320	991.066436700546	17.503370297469
2	321	991.588335481956	16.532018182713
2	330	1005.233991711418	29.45388413404
2	331	1007.959789293821	31.046368659647
2	332	1013.231107633134	25.560482391293
2	333	1013.559644377527	20.274824641148
2	334	1014.641857732991	20.023014661802
2	341	1017.159611267244	20.069314176458
2	346	1029.220688761305	31.132833886374
2	347	1030.685467167966	14.527760418173
2	348	1034.739607874196	18.382799116475
2	349	1035.005190337648	18.589461175196
2	350	1039.156545742968	14.118548150352
2	351	1041.633149198099	14.989673595501
2	354	1086.782899830275	3.509187820654
2	357	1098.391369861584	3.132983297205
2	360	1120.142124628482	0.970802166164
2	365	1124.021974471381	3.253541949955
2	366	1124.689019861939	3.455721563513
2	371	1142.32539837691	0.629359980178
2	374	1149.357232755718	7.385512985858
2	379	1158.601687869008	9.414785066614
2	384	1166.066614448613	13.972624399136
2	385	1166.249128846933	8.624759624527
2	386	1167.867577253546	7.434637549697
2	389	1174.233528219032	13.609082632286
2	390	1174.772189888498	4.04868021239
2	393	1182.136212625898	4.59407362924
2	396	1192.591725852179	3.044119000665
2	399	1219.724543380842	0.872972278135
2	406	1248.019006034038	10.507630004958
2	409	1255.874616068226	14.119765990048
2	410	1258.517301243792	11.694813229012
2	413	1260.282314933097	8.22867028484
2	414	1260.477654930462	0.208852694864
2	417	1279.345773188092	1.420355123131
2	420	1280.848788250567	0.415944825957
2	425	1299.678973352509	6.727956801506
2	426	1302.777431721108	6.290693039103
2	429	1307.361117237271	4.207928263465
2	432	1314.325696232008	0.58490975077
2	435	1320.85788619272	4.46774683926
2	438	1331.125030547094	1.390566419664
2	441	1347.218870819011	6.337097029712
2	446	1388.48956337369	9.327406726452
2	447	1390.459906799262	2.654724619806
2	450	1406.350895398711	3.614031333144
2	455	1409.76840839101	1.082482361774
2	456	1410.186270364702	0.766699420879
2	459	1419.767076143351	1.755181645209
2	464	1449.266754671078	5.0500603433
2	465	1451.519928031004	3.576682665114
2	470	1487.72159286887	10.824300189494
2	471	1490.532180211776	3.077308660704
2	476	1498.675743088441	1.127861206412
2	479	1500.910612109663	2.409171753986
2	482	1504.505689729917	5.095328224203
2	487	1515.951488077686	11.964302778423
2	488	1518.746908050557	12.067934718875
2	489	1521.511118492381	6.341823889544
2	492	1528.431774977859	1.323588513137
2	497	1549.163929294048	5.410815313864
2	500	1554.210461698432	6.622082057031
2	501	1554.478187865939	0.605283128841
2	504	1557.06669049958	0.220133717181
2	507	1568.645972379956	2.009996460065
2	510	1583.865263794625	3.32120376441
2	513	1595.61815751053	6.917160494402
2	516	1612.43206406703	1.90419368867
2	523	1622.0351314996	7.468764392132
2	524	1622.076148406913	4.368823689447
2	525	1622.809569919431	3.626347224265
2	528	1628.001990125954	0.706650356283
2	531	1652.279800285294	1.53558471442
2	534	1667.200912757883	0.791667309293
2	537	1671.370435719686	2.363508899053
2	540	1715.9641289151	0.944350702121
2	545	1720.488387110433	3.081014896561
2	548	1728.47564078927	8.437624648059
2	549	1730.400896390522	8.405361545347
2	552	1751.730301147507	2.34159588437
2	557	1762.525788214548	2.487410177738
2	560	1765.939923253717	3.669583411753
2	563	1768.609480661446	5.815261362765
2	564	1769.279734966846	0.842464281666
2	567	1770.525482535215	1.12883317972
2	570	1784.696411714701	1.237101187698
2	573	1799.817767882723	4.256683024279
2	576	1810.167582427859	2.406593256901
2	579	1826.510329447485	5.83822675975
2	582	1831.768803499891	1.541482442506
2	585	1839.419183282733	1.94164281024
2	588	1849.78571787077	2.827502156285
2	593	1863.685283103087	5.966327786096
2	600	1871.468934540722	10.843934245143
2	601	1874.713442547752	10.370477928436
2	604	1885.376634568009	18.453081739743
2	605	1887.775488996548	20.031378607534
2	610	1900.59941234854	23.983909937089
2	611	1905.424641410805	16.262226179076
2	612	1906.014164027049	6.382130835984
2	615	1913.621475177462	1.134027633348
2	626	1933.602105005935	8.78733353774
2	627	1933.720676866602	8.671266918783
2	630	1938.133490263446	11.526350165899
2	631	1943.089518850204	15.170579183739
2	634	1946.228601129697	17.548264673607
2	637	1950.998313442114	16.360719611439
2	638	1953.075705695282	9.879957584692
2	639	1954.060881515639	7.024782654695
2	644	1983.460370574541	20.796068112702
2	645	1985.283699895744	15.955780792189
2	650	1999.603115590482	0.757481736856
2	653	2001.123861145787	2.201823423315
2	654	2003.147295543359	2.055519438511
2	657	2015.724406346336	9.20048192968
2	660	2020.376449903271	1.55782002111
2	663	2025.732069605833	1.290880306425
2	666	2027.576138861929	1.423773589427
2	669	2041.828370227858	0.183797050894
2	672	2049.662402082864	1.469112860822
2	675	2050.945773558619	0.010064635453
2	682	2075.854481673011	3.166202457558
2	685	2078.69190078758	3.684959618366
2	690	2080.064641354745	4.694851781209
2	691	2081.33575066318	5.093851029528
2	694	2087.816429930116	8.090206611967
2	695	2089.771265798153	9.912857222722
2	696	2092.054589011416	9.585225545051
2	699	2105.602203552891	12.207525949735
2	702	2123.060497569359	3.974465182952
2	705	2123.836340085239	0.650725443809
2	708	2134.321628104694	1.933009165287
2	713	2162.159776956931	1.175848984122
2	714	2162.162641330602	0.121347759511
2	721	2182.367913563688	11.28561543251
2	722	2183.254806305797	6.376289259649
2	723	2186.9840067306	5.769446502047
2	726	2198.23279610806	4.051772472892
2	729	2213.708500095789	4.215588942163
2	732	2217.084714869097	3.159564537485
2	735	2233.000296649616	0.249206234911
2	738	2246.751438773742	0.592536081502
2	741	2247.553278643127	0.046576655866
2	744	2250.760184405785	0.096541557822
2	747	2270.026419728999	0.553478704638
2	750	2271.145082506001	0.977400646338
2	753	2272.213347314006	0.117994994471
2	756	2281.358966083288	0.232669028697
2	759	2323.229911663108	3.594552856304
2	762	2326.664182673786	1.517905526788
2	765	2329.194703975015	2.495980186237
2	768	2333.270841749821	1.056245399696
2	771	2336.493091406947	3.088198054578
2	774	2364.899803852426	3.088955282024
2	777	2370.825234834892	0.49229692179
2	780	2387.66918414346	3.151148339702
2	783	2448.909281764973	2.170122667879
2	788	2462.413722798523	1.431201304976
2	789	2469.377370717746	8.382265738422
2	794	2477.499238949844	3.552252154017
2	795	2477.979632747268	3.21054656153
2	800	2482.167287970641	3.953089201319
2	805	2486.993651929396	8.752435642666
2	808	2488.685998342691	6.21488212677
2	809	2489.579308551656	6.371434989276
2	810	2490.681188153997	2.653041018503
2	817	2497.384185248708	5.219113859314
3	104	360.409283811401	1
3	107	371.173503734935	1
3	110	376.19599468781	1
3	113	377.948662242251	1
3	116	387.831044191754	1
3	119	395.04026741644	1
3	121	395.40678837798	2
3	124	403.525662631662	2
3	127	407.091095707291	2
3	129	409.825669589371	3
3	131	410.313930014622	4
3	137	430.49840349668	1
3	140	435.153916374813	1
3	143	437.379970209784	1
3	146	440.423712324732	1
3	149	446.535078190184	1
3	152	493.127333277703	1
3	155	522.919973343766	1
3	158	527.947644250368	1
3	161	547.064017488764	1
3	164	550.739054872564	1
3	166	551.757633159105	2
3	168	554.256373907472	3
3	170	556.226346577834	4
3	173	563.039027326864	4
3	177	568.639468796434	3
3	179	569.235643970711	4
3	183	575.374575279457	3
3	186	578.795254539745	3
3	189	581.915004590374	3
3	191	584.59315053204	4
3	197	594.333336005154	1
3	200	627.418721012098	1
3	202	632.218020867006	2
3	206	641.780658871784	1
3	209	647.462070929159	1
3	212	667.309493403745	1
3	214	675.724615060903	2
3	217	676.668658769998	2
3	220	682.003934191433	2
3	222	683.617235247999	3
3	227	703.811654052786	1
3	230	714.976615598601	1
3	233	722.64500892872	1
3	236	761.273492518352	1
3	239	782.366044891507	1
3	241	782.601019156934	2
3	243	783.579064935801	3
3	248	807.407876331147	1
3	251	820.861755107194	1
3	253	821.459799917703	2
3	257	836.154603739412	1
3	260	850.246771939846	1
3	263	862.885902373897	1
3	265	863.553743492777	2
3	269	870.88255346745	1
3	272	873.83611358819	1
3	274	875.082885501818	2
3	278	876.941456615925	1
3	281	892.928388602948	1
3	284	895.099100078108	1
3	286	900.895113712182	2
3	288	902.021839417516	3
3	293	908.113117590851	1
3	296	915.469272871588	1
3	299	942.09346134393	1
3	301	942.156120051135	2
3	303	942.339694740398	3
3	308	957.975027695413	1
3	311	973.563066403077	1
3	313	975.056317299243	2
3	315	975.780107577378	3
3	317	976.913420634174	4
3	319	987.670625241841	5
3	323	993.284819736379	4
3	325	994.618843071189	5
3	327	997.090297090786	6
3	329	998.087854874931	7
3	336	1016.157706749793	3
3	338	1016.356808757721	4
3	340	1016.415729162452	5
3	343	1025.037997592616	5
3	345	1026.643475602598	6
3	353	1083.273712009621	1
3	356	1095.258386564379	1
3	359	1119.171322462318	1
3	362	1120.768432521426	1
3	364	1121.233298298426	2
3	368	1141.696038396732	1
3	370	1141.97171976986	2
3	373	1149.186902802394	2
3	376	1152.093990049477	2
3	378	1157.624369222406	3
3	381	1160.432939703849	3
3	383	1160.624445586746	4
3	388	1170.723509676108	2
3	392	1177.542138996658	1
3	395	1189.547606851514	1
3	398	1218.851571102707	1
3	401	1237.51137602908	1
3	403	1241.754850078178	2
3	405	1246.82248801478	3
3	408	1252.053644648257	3
3	412	1260.268802235598	2
3	416	1277.925418064961	1
3	419	1280.43284342461	1
3	422	1292.951016551003	1
3	424	1296.486738682005	2
3	428	1303.153188973806	1
3	431	1313.740786481238	1
3	434	1316.39013935346	1
3	437	1329.73446412743	1
3	440	1340.881773789299	1
3	443	1379.162156647238	1
3	445	1387.805182179456	2
3	449	1402.736864065567	1
3	452	1408.685926029236	1
3	454	1409.419570943823	2
3	458	1418.011894498142	1
3	461	1444.216694327778	1
3	463	1447.94324536589	2
3	467	1476.897292679376	1
3	469	1487.454871551072	2
3	473	1497.547881882029	1
3	475	1498.501440355677	2
3	478	1499.410361505714	2
3	481	1503.987185299263	2
3	484	1506.678973331682	2
3	486	1515.169294602837	3
3	491	1527.108186464722	1
3	494	1543.753113980184	1
3	496	1547.588379641401	2
3	499	1553.872904737098	2
3	503	1556.846556782399	1
3	506	1566.635975919891	1
3	509	1580.544060030215	1
3	512	1588.700997016128	1
3	515	1610.52787037836	1
3	518	1614.566367107468	1
3	520	1617.707324717466	2
3	522	1619.183222695166	3
3	527	1627.295339769671	1
3	530	1650.744215570874	1
3	533	1666.40924544859	1
3	536	1669.006926820633	1
3	539	1715.019778212979	1
3	542	1717.407372213872	1
3	544	1720.038016141211	2
3	547	1721.995534845175	2
3	551	1749.388705263137	1
3	554	1760.03837803681	1
3	556	1762.270339841964	2
3	559	1762.794219298681	2
3	562	1768.43727068518	2
3	566	1769.396649355495	1
3	569	1783.459310527003	1
3	572	1795.561084858444	1
3	575	1807.760989170958	1
3	578	1820.672102687735	1
3	581	1830.227321057385	1
3	584	1837.477540472493	1
3	587	1846.958215714485	1
3	590	1857.718955316991	1
3	592	1860.625000295579	2
3	595	1864.342964619316	2
3	597	1866.923552828266	3
3	599	1867.744110389014	4
3	603	1876.615502411451	3
3	607	1889.162415231729	2
3	609	1899.632033191065	3
3	614	1912.487447544114	1
3	617	1924.814771468195	1
3	619	1925.049409947819	2
3	621	1926.607140097547	3
3	623	1927.918939666465	4
3	625	1928.68033645609	5
3	629	1934.637593830675	4
3	633	1943.19574811059	3
3	636	1947.036098860944	3
3	641	1962.664302461839	1
3	643	1969.327919103555	2
3	647	1998.845633853626	1
3	649	1998.922037722472	2
3	652	2001.091776104848	2
3	656	2006.523924416656	1
3	659	2018.818629882161	1
3	662	2024.441189299408	1
3	665	2026.152365272502	1
3	668	2041.644573176964	1
3	671	2048.193289222042	1
3	674	2050.935708923166	1
3	677	2072.688279215453	1
3	679	2075.006941169214	2
3	681	2075.369789573536	3
3	684	2076.241899633652	3
3	687	2079.726223318149	3
3	689	2079.858408575431	4
3	693	2082.469363466365	3
3	698	2093.394677603156	1
3	701	2119.086032386407	1
3	704	2123.18561464143	1
3	707	2132.388618939407	1
3	710	2160.983927972809	1
3	712	2162.041293571091	2
3	716	2171.082298131178	1
3	718	2176.878517046148	2
3	720	2181.214560228553	3
3	725	2194.181023635168	1
3	728	2209.492911153626	1
3	731	2213.925150331612	1
3	734	2232.751090414705	1
3	737	2246.15890269224	1
3	740	2247.506701987261	1
3	743	2250.663642847963	1
3	746	2269.472941024361	1
3	749	2270.167681859663	1
3	752	2272.095352319535	1
3	755	2281.126297054591	1
3	758	2319.635358806804	1
3	761	2325.146277146998	1
3	764	2326.698723788778	1
3	767	2332.214596350125	1
3	770	2333.404893352369	1
3	773	2361.810848570402	1
3	776	2370.332937913102	1
3	779	2384.518035803758	1
3	782	2446.739159097094	1
3	785	2460.982521493547	1
3	787	2460.995104979324	2
3	791	2473.946986795827	1
3	793	2474.769086185738	2
3	797	2478.214198769322	1
3	799	2478.24121628673	2
3	802	2482.471116215921	2
3	804	2483.20787356238	3
3	807	2488.028147135494	3
3	812	2492.165071389394	1
3	814	2492.199178833457	2
3	816	2496.011695091498	3
4	104	360.409283811401	0
4	107	371.173503734935	0
4	110	376.19599468781	0
4	113	377.948662242251	0
4	116	387.831044191754	0
4	119	395.04026741644	0
4	122	397.176661460005	1.769873082025
4	125	406.44103854306	2.915375911398
4	132	411.359462157356	4.268366450065
4	133	411.767315051161	1.94164546179
4	134	419.468610996223	9.154680981601
4	137	430.49840349668	0
4	140	435.153916374813	0
4	143	437.379970209784	0
4	146	440.423712324732	0
4	149	446.535078190184	0
4	152	493.127333277703	0
4	155	522.919973343766	0
4	158	527.947644250368	0
4	161	547.064017488764	0
4	164	550.739054872564	0
4	171	558.950061613331	7.192428454226
4	174	565.260503743975	11.004129836503
4	175	567.416659001287	11.190312423453
4	180	569.38721663723	6.348189310366
4	181	569.97384578692	1.334376990486
4	184	577.186169725063	7.950525754352
4	187	579.495384892828	4.120809613371
4	192	586.572797627455	7.77754308771
4	193	587.614923258448	5.699918668074
4	194	587.701836042231	3.108685510191
4	197	594.333336005154	0
4	200	627.418721012098	0
4	203	633.876066967118	1.658046100112
4	206	641.780658871784	0
4	209	647.462070929159	0
4	212	667.309493403745	0
4	215	675.864699464059	0.140084403156
4	218	681.422097386955	4.753438616957
4	223	685.520929125811	3.516994934378
4	224	686.817746875363	3.200511627364
4	227	703.811654052786	0
4	230	714.976615598601	0
4	233	722.64500892872	0
4	236	761.273492518352	0
4	239	782.366044891507	0
4	244	784.643620513641	2.042601356707
4	245	787.0184482892	3.439383353399
4	248	807.407876331147	0
4	251	820.861755107194	0
4	254	821.479531853525	0.019731935822
4	257	836.154603739412	0
4	260	850.246771939846	0
4	263	862.885902373897	0
4	266	863.66272843382	0.108984941043
4	269	870.88255346745	0
4	272	873.83611358819	0
4	275	875.314474791487	0.231589289669
4	278	876.941456615925	0
4	281	892.928388602948	0
4	284	895.099100078108	0
4	289	905.503701884275	4.608588172093
4	290	907.209155649453	5.187316231937
4	293	908.113117590851	0
4	296	915.469272871588	0
4	299	942.09346134393	0
4	304	943.473093322591	1.316973271456
4	305	945.723210062525	3.383515322127
4	308	957.975027695413	0
4	311	973.563066403077	0
4	320	991.066436700546	16.010119401303
4	321	991.588335481956	15.808227904578
4	330	1005.233991711418	28.320571077244
4	331	1007.959789293821	20.28916405198
4	332	1013.231107633134	19.946287896755
4	333	1013.559644377527	18.940801306338
4	334	1014.641857732991	17.551560642205
4	341	1017.159611267244	19.071756392313
4	346	1029.220688761305	13.062982011512
4	347	1030.685467167966	14.328658410245
4	348	1034.739607874196	18.323878711744
4	349	1035.005190337648	9.967192745032
4	350	1039.156545742968	12.51307014037
4	353	1083.273712009621	0
4	356	1095.258386564379	0
4	359	1119.171322462318	0
4	362	1120.768432521426	0
4	365	1124.021974471381	2.788676172955
4	368	1141.696038396732	0
4	371	1142.32539837691	0.35367860705
4	374	1149.357232755718	0.170329953324
4	379	1158.601687869008	6.507697819531
4	384	1166.066614448613	8.442245226207
4	385	1166.249128846933	5.816189143084
4	386	1167.867577253546	7.2431316668
4	389	1174.233528219032	3.510018542924
4	392	1177.542138996658	0
4	395	1189.547606851514	0
4	398	1218.851571102707	0
4	401	1237.51137602908	0
4	406	1248.019006034038	6.26415595586
4	409	1255.874616068226	9.052128053446
4	410	1258.517301243792	6.463656595535
4	413	1260.282314933097	0.013512697499
4	416	1277.925418064961	0
4	419	1280.43284342461	0
4	422	1292.951016551003	0
4	425	1299.678973352509	3.192234670504
4	428	1303.153188973806	0
4	431	1313.740786481238	0
4	434	1316.39013935346	0
4	437	1329.73446412743	0
4	440	1340.881773789299	0
4	443	1379.162156647238	0
4	446	1388.48956337369	0.684381194234
4	449	1402.736864065567	0
4	452	1408.685926029236	0
4	455	1409.76840839101	0.348837447187
4	458	1418.011894498142	0
4	461	1444.216694327778	0
4	464	1449.266754671078	1.323509305188
4	467	1476.897292679376	0
4	470	1487.72159286887	0.266721317798
4	473	1497.547881882029	0
4	476	1498.675743088441	0.174302732764
4	479	1500.910612109663	1.500250603949
4	482	1504.505689729917	0.518504430654
4	487	1515.951488077686	9.272514746004
4	488	1518.746908050557	3.57761344772
4	491	1527.108186464722	0
4	494	1543.753113980184	0
4	497	1549.163929294048	1.575549652647
4	500	1554.210461698432	0.337556961334
4	503	1556.846556782399	0
4	506	1566.635975919891	0
4	509	1580.544060030215	0
4	512	1588.700997016128	0
4	515	1610.52787037836	0
4	518	1614.566367107468	0
4	523	1622.0351314996	4.327806782134
4	524	1622.076148406913	2.892925711747
4	527	1627.295339769671	0
4	530	1650.744215570874	0
4	533	1666.40924544859	0
4	536	1669.006926820633	0
4	539	1715.019778212979	0
4	542	1717.407372213872	0
4	545	1720.488387110433	0.450370969222
4	548	1728.47564078927	6.480105944095
4	551	1749.388705263137	0
4	554	1760.03837803681	0
4	557	1762.525788214548	0.255448372584
4	560	1765.939923253717	3.145703955036
4	563	1768.609480661446	0.172209976266
4	566	1769.396649355495	0
4	569	1783.459310527003	0
4	572	1795.561084858444	0
4	575	1807.760989170958	0
4	578	1820.672102687735	0
4	581	1830.227321057385	0
4	584	1837.477540472493	0
4	587	1846.958215714485	0
4	590	1857.718955316991	0
4	593	1863.685283103087	3.060282807508
4	600	1871.468934540722	7.125969921406
4	601	1874.713442547752	7.789889719486
4	604	1885.376634568009	17.632524178995
4	605	1887.775488996548	11.159986585097
4	610	1900.59941234854	11.436997116811
4	611	1905.424641410805	5.79260821974
4	614	1912.487447544114	0
4	617	1924.814771468195	0
4	626	1933.602105005935	8.552695058116
4	627	1933.720676866602	7.113536769055
4	630	1938.133490263446	10.214550596981
4	631	1943.089518850204	14.409182394114
4	634	1946.228601129697	11.591007299022
4	637	1950.998313442114	7.802565331524
4	638	1953.075705695282	6.039606834338
4	641	1962.664302461839	0
4	644	1983.460370574541	14.132451470986
4	647	1998.845633853626	0
4	650	1999.603115590482	0.68107786801
4	653	2001.123861145787	0.032085040939
4	656	2006.523924416656	0
4	659	2018.818629882161	0
4	662	2024.441189299408	0
4	665	2026.152365272502	0
4	668	2041.644573176964	0
4	671	2048.193289222042	0
4	674	2050.935708923166	0
4	677	2072.688279215453	0
4	682	2075.854481673011	0.847540503797
4	685	2078.69190078758	3.322111214044
4	690	2080.064641354745	3.822741721093
4	691	2081.33575066318	1.609527345031
4	694	2087.816429930116	7.958021354685
4	695	2089.771265798153	7.301902331788
4	698	2093.394677603156	0
4	701	2119.086032386407	0
4	704	2123.18561464143	0
4	707	2132.388618939407	0
4	710	2160.983927972809	0
4	713	2162.159776956931	0.11848338584
4	716	2171.082298131178	0
4	721	2182.367913563688	5.48939651754
4	722	2183.254806305797	2.040246077244
4	725	2194.181023635168	0
4	728	2209.492911153626	0
4	731	2213.925150331612	0
4	734	2232.751090414705	0
4	737	2246.15890269224	0
4	740	2247.506701987261	0
4	743	2250.663642847963	0
4	746	2269.472941024361	0
4	749	2270.167681859663	0
4	752	2272.095352319535	0
4	755	2281.126297054591	0
4	758	2319.635358806804	0
4	761	2325.146277146998	0
4	764	2326.698723788778	0
4	767	2332.214596350125	0
4	770	2333.404893352369	0
4	773	2361.810848570402	0
4	776	2370.332937913102	0
4	779	2384.518035803758	0
4	782	2446.739159097094	0
4	785	2460.982521493547	0
4	788	2462.413722798523	1.418617819199
4	791	2473.946986795827	0
4	794	2477.499238949844	2.730152764106
4	797	2478.214198769322	0
4	800	2482.167287970641	3.926071683911
4	805	2486.993651929396	4.522535713475
4	808	2488.685998342691	5.478124780311
4	809	2489.579308551656	1.551161416162
4	812	2492.165071389394	0
4	817	2497.384185248708	5.185006415251
5	818	2500	0
6	818	2500	0.1084

