version 2
run factors_calibration_minions-182-20230319-11:55:35-8061
attr configname factors_calibration_minions
attr datetime 20230319-11:55:35
attr experiment factors_calibration_minions
attr inifile omnetpp.ini
attr iterationvars $0=12
attr iterationvarsf 12-
attr measurement $0=12
attr network Network
attr processid 8061
attr repetition 2
attr replication #2
attr resultdir results
attr runnumber 182
attr seedset 2
param *.minion.arrival_mean 20
param *.minion.service_mean 12
param *.boss.arrival_mean 20
param *.boss.service_mean 7
param *.player.recover_rate_x 100
param **.minion.arrival_distribution 0
param **.minion.service_distribution 0
param **.boss.arrival_distribution 0
param **.boss.service_distribution 0

vector 0 Network.player minion_defeated_stat:vector ETV
attr source signal_minion_defeated
vector 1 Network.player minion_response_time_stat:vector ETV
attr source signal_minion_response_time
vector 2 Network.player minion_waiting_time_stat:vector ETV
attr source signal_minion_waiting_time
vector 3 Network.player minion_recovered_stat:vector ETV
attr source signal_minion_recovered
vector 4 Network.player boss_waiting_time_stat:vector ETV
attr source signal_boss_waiting_time
vector 5 Network.player boss_defeated_stat:vector ETV
attr source signal_boss_defeated
vector 6 Network.player boss_response_time_stat:vector ETV
attr source signal_boss_response_time
vector 7 Network.player minion_throughput:vector ETV
attr source signal_minion_throughput
vector 8 Network.player boss_throughput:vector ETV
attr source signal_boss_throughput
0	112	351.225695749701	12
0	113	357.731596359103	13
0	114	359.507011066449	14
0	115	362.928853105149	15
0	116	364.719393786056	16
0	117	365.773042274078	17
0	123	375.538168402135	18
0	126	385.774594256699	19
0	145	456.275982083201	20
0	146	458.465420322106	21
0	147	463.017882153411	22
0	155	501.166170648142	23
0	162	519.80408669714	24
0	178	568.945484724885	25
0	191	620.797085601378	26
0	203	669.267677444944	27
0	210	714.070088545137	28
0	243	787.507448190222	29
0	249	793.33008009078	30
0	250	806.521793340882	31
0	254	810.59115081194	32
0	261	845.377323882995	33
0	265	854.712845595623	34
0	281	902.384016890889	35
0	319	995.69678352667	36
0	325	1020.651520531858	37
0	326	1030.636837735418	38
0	343	1083.836099932004	39
0	346	1101.215076330861	40
0	398	1247.429249209556	41
0	410	1277.204146024507	42
0	411	1284.551759684695	43
0	412	1285.87567301575	44
0	424	1311.117901368835	45
0	428	1336.041491609728	46
0	429	1344.876270247231	47
0	430	1345.717086010132	48
0	452	1388.338648591773	49
0	460	1431.381726330626	50
0	468	1455.18145297259	51
0	471	1467.76357337392	52
0	472	1470.58414531795	53
0	514	1601.027016017651	54
0	515	1618.195843496193	55
0	516	1631.486370144553	56
0	522	1669.765229824567	57
0	525	1673.107767966896	58
0	528	1683.567919113776	59
0	529	1708.368671699142	60
0	530	1708.585376618573	61
0	545	1771.724462654989	62
0	571	1813.477043746985	63
0	574	1830.516646604974	64
0	577	1834.377146768517	65
0	587	1868.578274311823	66
0	588	1873.690610486442	67
0	599	1883.597462381132	68
0	613	1953.679845456624	69
0	618	1982.529771554972	70
0	622	1991.849731477755	71
0	634	2042.52104089896	72
0	637	2073.198023385733	73
0	638	2083.039825653602	74
0	642	2085.813891632399	75
0	680	2210.772310055336	76
0	683	2242.638581731925	77
0	718	2331.207118424571	78
0	759	2384.229715784006	79
1	112	351.225695749701	100.36266678891
1	113	357.731596359103	95.609732530742
1	114	359.507011066449	68.331084670021
1	115	362.928853105149	61.457881550424
1	116	364.719393786056	52.967636130729
1	117	365.773042274078	39.230144996171
1	123	375.538168402135	6.579765896146
1	126	385.774594256699	5.086579437159
1	145	456.275982083201	23.395326260314
1	146	458.465420322106	9.375116801889
1	147	463.017882153411	10.758805519813
1	155	501.166170648142	31.363922399202
1	162	519.80408669714	12.093431499342
1	178	568.945484724885	37.903436663062
1	191	620.797085601378	64.833112675702
1	203	669.267677444944	74.376238332046
1	210	714.070088545137	93.131001966772
1	243	787.507448190222	94.181067054922
1	249	793.33008009078	72.109334142414
1	250	806.521793340882	84.014048844382
1	254	810.59115081194	63.051536586759
1	261	845.377323882995	72.081401603683
1	265	854.712845595623	73.938918837329
1	281	902.384016890889	116.56972158721
1	319	995.69678352667	149.9185421862
1	325	1020.651520531858	139.88982329922
1	326	1030.636837735418	134.00081394466
1	343	1083.836099932004	169.53688522242
1	346	1101.215076330861	182.88081204721
1	398	1247.429249209556	290.38116219273
1	410	1277.204146024507	300.6162339819
1	411	1284.551759684695	278.96162170932
1	412	1285.87567301575	266.14246748675
1	424	1311.117901368835	246.08950298139
1	428	1336.041491609728	256.59747216795
1	429	1344.876270247231	256.95574995766
1	430	1345.717086010132	235.40569298721
1	452	1388.338648591773	234.19566512281
1	460	1431.381726330626	261.91083490118
1	468	1455.18145297259	258.61176283916
1	471	1467.76357337392	270.61082525597
1	472	1470.58414531795	265.3429360687
1	514	1601.027016017651	325.32244206284
1	515	1618.195843496193	328.23356109237
1	516	1631.486370144553	334.19850133064
1	522	1669.765229824567	335.02308814099
1	525	1673.107767966896	319.94645899776
1	528	1683.567919113776	323.77864655529
1	529	1708.368671699142	340.87527106155
1	530	1708.585376618573	339.62633202815
1	545	1771.724462654989	395.3406782297
1	571	1813.477043746985	429.06748429354
1	574	1830.516646604974	439.80887891848
1	577	1834.377146768517	428.86931969652
1	587	1868.578274311823	424.19316073698
1	588	1873.690610486442	428.79890256173
1	599	1883.597462381132	404.00200144238
1	613	1953.679845456624	472.66112009398
1	618	1982.529771554972	493.80347677407
1	622	1991.849731477755	489.90468881292
1	634	2042.52104089896	519.09685058442
1	637	2073.198023385733	548.95568488123
1	638	2083.039825653602	540.5921940313
1	642	2085.813891632399	507.41142205024
1	680	2210.772310055336	540.45844296481
1	683	2242.638581731925	567.19042930316
1	718	2331.207118424571	525.81002625536
1	759	2384.229715784006	562.22290771045
2	112	351.225695749701	89.10383192134
2	113	357.731596359103	66.555669962675
2	114	359.507011066449	58.036039511724
2	115	362.928853105149	51.177095449822
2	116	364.719393786056	38.176496508149
2	119	367.671244185334	0
2	122	369.764205255802	0.805802749813
2	125	380.68801481954	0
2	140	448.08582664506	15.205170822173
2	145	456.275982083201	7.185678562984
2	146	458.465420322106	6.206343688508
2	149	467.93741500493	0
2	152	476.003696752653	6.201448503713
2	155	501.166170648142	9.047178267836
2	158	504.557674821238	1.262991045127
2	161	517.055505955124	9.344850757326
2	164	520.736090174502	0
2	172	541.490941884917	14.818152304586
2	175	553.024653998517	21.982605936694
2	178	568.945484724885	16.065704895571
2	190	620.322856799376	64.3588838737
2	191	620.797085601378	30.728891131774
2	202	659.097941317354	64.206502204456
2	203	669.267677444944	59.864527174096
2	206	680.4198088155	70.586437826721
2	209	703.86518120431	82.926094625945
2	210	714.070088545137	86.278325672164
2	213	719.605053683175	89.963598185694
2	216	721.399042374758	84.933819266166
2	221	746.822369075817	97.196754071104
2	233	777.269346523697	99.511879251221
2	240	784.478187998452	91.151806863152
2	243	787.507448190222	69.105492389573
2	248	793.078802408559	71.858056460193
2	249	793.33008009078	70.82233559428
2	250	806.521793340882	69.659539830353
2	253	809.13011143216	61.590497206979
2	254	810.59115081194	46.524010835442
2	257	832.77027304843	60.580605135518
2	260	835.713468627749	62.417546348437
2	261	845.377323882995	67.142892836711
2	264	846.607056100767	65.833129342473
2	265	854.712845595623	70.260024565589
2	276	896.521563342791	110.70726803911
2	281	902.384016890889	112.26304291399
2	297	932.775072167448	140.05052828478
2	305	945.698182672002	138.04054972255
2	310	957.449071458603	127.36608140231
2	315	968.915069278098	134.79877578168
2	318	981.162668966057	135.38442762559
2	319	995.69678352667	121.63312643069
2	322	1005.911747957057	125.15005072442
2	325	1020.651520531858	124.0154967411
2	326	1030.636837735418	131.26480593068
2	332	1048.700270548499	142.17707429457
2	337	1066.47960852008	152.87208276455
2	340	1076.315234412792	162.01601970321
2	343	1083.836099932004	165.50183564836
2	346	1101.215076330861	181.40911168971
2	357	1151.350263371021	219.93976979983
2	360	1152.747841537113	218.07513335739
2	363	1159.76971761577	223.26731516373
2	366	1167.259949499656	215.61493488311
2	395	1235.759745017321	278.71165800049
2	398	1247.429249209556	289.21916692156
2	404	1264.287559120223	302.63708417698
2	407	1274.17687757803	297.58896553543
2	410	1277.204146024507	271.61400804913
2	411	1284.551759684695	264.8185541557
2	412	1285.87567301575	247.56751499723
2	420	1304.659846704666	251.36639452067
2	423	1308.887204126084	243.85880573864
2	424	1311.117901368835	238.89237096265
2	427	1335.049830754136	255.60581131236
2	428	1336.041491609728	248.12097132016
2	429	1344.876270247231	234.56487722431
2	430	1345.717086010132	225.63065982703
2	444	1373.662447811475	221.41577609102
2	447	1376.891950893691	222.74896742473
2	452	1388.338648591773	226.0212676865
2	457	1410.03772863844	240.566837209
2	460	1431.381726330626	237.40755053908
2	467	1447.078245104654	250.50855497122
2	468	1455.18145297259	258.02870485464
2	471	1467.76357337392	262.52236412467
2	472	1470.58414531795	256.67537225233
2	477	1480.323218074852	259.99780897467
2	482	1489.237170002596	259.32008909155
2	485	1496.183260538198	249.3707308444
2	494	1526.642370653923	268.92199292234
2	502	1571.400875306287	301.12394404475
2	513	1598.564231619975	322.85965766517
2	514	1601.027016017651	311.06473361383
2	515	1618.195843496193	320.90797468228
2	516	1631.486370144553	323.05979999041
2	521	1650.221057840773	315.47891615719
2	522	1669.765229824567	316.60392085543
2	525	1673.107767966896	313.31849540842
2	528	1683.567919113776	316.07451847619
2	529	1708.368671699142	339.40962710872
2	530	1708.585376618573	337.92174511883
2	544	1767.568841118143	391.18505669285
2	545	1771.724462654989	389.73138872538
2	570	1812.903135761549	428.4935763081
2	571	1813.477043746985	422.76927606049
2	574	1830.516646604974	425.00881953297
2	577	1834.377146768517	421.78006604165
2	582	1838.502149163674	394.11703558883
2	587	1868.578274311823	423.68656638711
2	588	1873.690610486442	427.48134215235
2	593	1876.353243842207	409.80855595264
2	598	1881.504221175038	401.90876023629
2	599	1883.597462381132	403.5377410992
2	612	1942.363985573282	461.34526021063
2	613	1953.679845456624	464.95355067573
2	618	1982.529771554972	486.38863529513
2	621	1985.00093993139	483.05589726655
2	622	1991.849731477755	471.39581517029
2	631	2031.711183352151	508.28699303762
2	634	2042.52104089896	518.27870239446
2	637	2073.198023385733	530.75039176343
2	638	2083.039825653602	527.86459652567
2	641	2084.001809847681	505.59934026552
2	642	2085.813891632399	506.76078959346
2	645	2095.36475586037	515.64177859301
2	650	2115.155812315385	524.51381406147
2	655	2133.435718319366	541.55691079688
2	658	2160.028244738443	526.31389471119
2	661	2162.462693017154	523.37822019366
2	677	2208.282725231621	537.9688581411
2	680	2210.772310055336	535.32415762657
2	683	2242.638581731925	527.40882935184
2	688	2264.171475768633	499.24658729657
2	693	2270.456430613159	489.43568769159
2	696	2284.454505410366	502.65321077419
2	701	2299.120673720931	499.77968326991
2	717	2327.108393757139	521.71130158793
2	718	2331.207118424571	525.01623399713
2	753	2378.064877284089	567.88515427995
2	758	2383.746664728201	561.73985665465
2	759	2384.229715784006	552.84819463085
2	802	2495.119444905325	659.56857543188
3	121	368.958402505989	2
3	151	469.80224824894	3
3	157	503.294683776111	4
3	160	507.710655197798	5
3	166	526.672789580331	6
3	174	552.879779829314	7
3	182	594.891439112898	8
3	195	627.791762872973	9
3	205	677.757467272476	10
3	208	693.3263811353	11
3	212	718.401955800649	12
3	215	721.220745948366	13
3	220	736.862253510529	14
3	223	747.539614225181	15
3	237	780.773926758294	16
3	245	790.1209739769	17
3	252	807.657632949454	18
3	256	830.082990056291	19
3	259	834.116293496415	20
3	263	845.77824134047	21
3	269	880.761697232639	22
3	285	913.607525755531	23
3	299	934.672708179719	24
3	309	957.048087016828	25
3	312	958.210082287997	26
3	317	976.587912042603	27
3	321	1005.590137975379	28
3	328	1038.308158018523	29
3	334	1053.293452183994	30
3	339	1072.225530406186	31
3	350	1120.086426183102	32
3	359	1152.246671720459	33
3	362	1154.142983468966	34
3	365	1162.317380905273	35
3	368	1169.470891429442	36
3	400	1257.720377731584	37
3	406	1270.276931261535	38
3	414	1289.96228240382	39
3	422	1308.426570154145	40
3	426	1334.742141683582	41
3	438	1368.959044590421	42
3	446	1376.38378442529	43
3	456	1405.507827071999	44
3	462	1444.385113574848	45
3	476	1480.059721281932	46
3	481	1488.726294780898	47
3	484	1496.141136259839	48
3	493	1524.242338504501	49
3	496	1542.447631622299	50
3	510	1590.641998253917	51
3	518	1633.714350027253	52
3	532	1715.229752380084	53
3	547	1781.020742921571	54
3	581	1837.207809601665	55
3	592	1874.214819834976	56
3	595	1877.492323099577	57
3	601	1899.01190856079	58
3	620	1984.546275450773	59
3	624	1996.012842413922	60
3	640	2083.855153346219	61
3	644	2092.664060113132	62
3	647	2104.851380459965	63
3	652	2122.543875262575	64
3	657	2157.532000019822	65
3	660	2160.769943346489	66
3	663	2166.560262012353	67
3	685	2245.259994245578	68
3	690	2265.579539773758	69
3	695	2280.874893329279	70
3	700	2290.195761337989	71
3	705	2308.037549004393	72
3	720	2333.642706438426	73
3	755	2381.934676952752	74
3	765	2411.664070294826	75
4	121	368.958402505989	0
4	128	402.880317121656	0
4	131	407.987521800575	5.028083032898
4	134	423.691409343679	12.540351748888
4	139	434.463897447814	8.956161252964
4	151	469.80224824894	0
4	157	503.294683776111	0
4	160	507.710655197798	0
4	166	526.672789580331	0
4	171	533.676852399253	6.382160219347
4	174	552.879779829314	0
4	182	594.891439112898	0
4	189	619.453928800717	17.659766635825
4	195	627.791762872973	0
4	205	677.757467272476	0
4	208	693.3263811353	0
4	212	718.401955800649	0
4	215	721.220745948366	0
4	220	736.862253510529	0
4	223	747.539614225181	0
4	228	765.332507791499	14.725905769594
4	237	780.773926758294	0
4	245	790.1209739769	0
4	252	807.657632949454	0
4	256	830.082990056291	0
4	259	834.116293496415	0
4	263	845.77824134047	0
4	269	880.761697232639	0
4	274	894.727618111341	2.582202321957
4	275	895.34143248481	0.968404043297
4	285	913.607525755531	0
4	294	922.338755870742	2.06154894545
4	299	934.672708179719	0
4	304	941.078757260103	5.049821946901
4	309	957.048087016828	0
4	312	958.210082287997	0
4	317	976.587912042603	0
4	321	1005.590137975379	0
4	328	1038.308158018523	0
4	331	1041.903523721129	3.358204458122
4	334	1053.293452183994	0
4	339	1072.225530406186	0
4	350	1120.086426183102	0
4	353	1128.943620820311	0.791377498558
4	356	1144.900013770311	9.056976150778
4	359	1152.246671720459	0
4	362	1154.142983468966	0
4	365	1162.317380905273	0
4	368	1169.470891429442	0
4	375	1190.316467710195	10.252794763183
4	378	1194.693657737675	12.20957120148
4	391	1224.919572166604	40.836095564881
4	394	1232.871745407067	13.503671889067
4	400	1257.720377731584	0
4	403	1262.367655389194	3.686645911592
4	406	1270.276931261535	0
4	414	1289.96228240382	0
4	419	1301.104697632727	8.541285923704
4	422	1308.426570154145	0
4	426	1334.742141683582	0
4	438	1368.959044590421	0
4	443	1372.133720864252	0.186513246298
4	446	1376.38378442529	0
4	456	1405.507827071999	0
4	462	1444.385113574848	0
4	476	1480.059721281932	0
4	481	1488.726294780898	0
4	484	1496.141136259839	0
4	493	1524.242338504501	0
4	496	1542.447631622299	0
4	501	1560.47296952734	11.006887396984
4	510	1590.641998253917	0
4	518	1633.714350027253	0
4	532	1715.229752380084	0
4	539	1746.341114437235	23.235344906916
4	540	1757.353578073743	21.647993232291
4	541	1761.792983348056	22.480546659102
4	547	1781.020742921571	0
4	552	1793.163217022104	2.173449088661
4	557	1799.863341256803	1.852083079463
4	560	1800.227409522945	0.253740510653
4	563	1803.367664282012	0.579052531876
4	581	1837.207809601665	0
4	592	1874.214819834976	0
4	595	1877.492323099577	0
4	601	1899.01190856079	0
4	608	1925.459438872226	16.753647843934
4	611	1934.698407386664	7.893531467074
4	620	1984.546275450773	0
4	624	1996.012842413922	0
4	640	2083.855153346219	0
4	644	2092.664060113132	0
4	647	2104.851380459965	0
4	652	2122.543875262575	0
4	657	2157.532000019822	0
4	660	2160.769943346489	0
4	663	2166.560262012353	0
4	666	2175.015290871855	4.698569298702
4	671	2196.142273704817	7.630725058033
4	676	2205.429680314942	6.79591260484
4	685	2245.259994245578	0
4	690	2265.579539773758	0
4	695	2280.874893329279	0
4	700	2290.195761337989	0
4	705	2308.037549004393	0
4	710	2311.144494383216	3.058752097711
4	711	2314.400067685475	5.512843158627
4	716	2325.899828643105	1.09498765647
4	720	2333.642706438426	0
4	727	2343.764752523749	7.406296601452
4	730	2344.156506369458	6.138827581524
4	733	2351.55775236213	11.876947733172
4	738	2358.92213652975	11.95122373427
4	749	2370.582956560134	18.253445736266
4	752	2370.870118791173	10.509573123171
4	755	2381.934676952752	0
4	765	2411.664070294826	0
4	776	2433.762620535792	17.258311439967
4	779	2438.042451339352	20.722552112786
4	780	2440.886390830401	19.027309757369
4	783	2443.229611813179	10.145962706379
4	786	2452.612239859564	9.875237531852
4	789	2461.746267256021	11.4446710348
4	794	2482.693095186214	27.296936192153
4	795	2484.941997107442	9.306805648956
4	798	2487.791084859248	9.720475862314
4	799	2488.498831523037	1.924645008279
5	122	369.764205255802	23
5	131	407.987521800575	24
5	134	423.691409343679	25
5	139	434.463897447814	26
5	140	448.08582664506	27
5	152	476.003696752653	28
5	158	504.557674821238	29
5	161	517.055505955124	30
5	171	533.676852399253	31
5	172	541.490941884917	32
5	175	553.024653998517	33
5	189	619.453928800717	34
5	190	620.322856799376	35
5	202	659.097941317354	36
5	206	680.4198088155	37
5	209	703.86518120431	38
5	213	719.605053683175	39
5	216	721.399042374758	40
5	221	746.822369075817	41
5	228	765.332507791499	42
5	233	777.269346523697	43
5	240	784.478187998452	44
5	248	793.078802408559	45
5	253	809.13011143216	46
5	257	832.77027304843	47
5	260	835.713468627749	48
5	264	846.607056100767	49
5	274	894.727618111341	50
5	275	895.34143248481	51
5	276	896.521563342791	52
5	294	922.338755870742	53
5	297	932.775072167448	54
5	304	941.078757260103	55
5	305	945.698182672002	56
5	310	957.449071458603	57
5	315	968.915069278098	58
5	318	981.162668966057	59
5	322	1005.911747957057	60
5	331	1041.903523721129	61
5	332	1048.700270548499	62
5	337	1066.47960852008	63
5	340	1076.315234412792	64
5	353	1128.943620820311	65
5	356	1144.900013770311	66
5	357	1151.350263371021	67
5	360	1152.747841537113	68
5	363	1159.76971761577	69
5	366	1167.259949499656	70
5	375	1190.316467710195	71
5	378	1194.693657737675	72
5	391	1224.919572166604	73
5	394	1232.871745407067	74
5	395	1235.759745017321	75
5	403	1262.367655389194	76
5	404	1264.287559120223	77
5	407	1274.17687757803	78
5	419	1301.104697632727	79
5	420	1304.659846704666	80
5	423	1308.887204126084	81
5	427	1335.049830754136	82
5	443	1372.133720864252	83
5	444	1373.662447811475	84
5	447	1376.891950893691	85
5	457	1410.03772863844	86
5	467	1447.078245104654	87
5	477	1480.323218074852	88
5	482	1489.237170002596	89
5	485	1496.183260538198	90
5	494	1526.642370653923	91
5	501	1560.47296952734	92
5	502	1571.400875306287	93
5	513	1598.564231619975	94
5	521	1650.221057840773	95
5	539	1746.341114437235	96
5	540	1757.353578073743	97
5	541	1761.792983348056	98
5	544	1767.568841118143	99
5	552	1793.163217022104	100
5	557	1799.863341256803	101
5	560	1800.227409522945	102
5	563	1803.367664282012	103
5	570	1812.903135761549	104
5	582	1838.502149163674	105
5	593	1876.353243842207	106
5	598	1881.504221175038	107
5	608	1925.459438872226	108
5	611	1934.698407386664	109
5	612	1942.363985573282	110
5	621	1985.00093993139	111
5	631	2031.711183352151	112
5	641	2084.001809847681	113
5	645	2095.36475586037	114
5	650	2115.155812315385	115
5	655	2133.435718319366	116
5	658	2160.028244738443	117
5	661	2162.462693017154	118
5	666	2175.015290871855	119
5	671	2196.142273704817	120
5	676	2205.429680314942	121
5	677	2208.282725231621	122
5	688	2264.171475768633	123
5	693	2270.456430613159	124
5	696	2284.454505410366	125
5	701	2299.120673720931	126
5	710	2311.144494383216	127
5	711	2314.400067685475	128
5	716	2325.899828643105	129
5	717	2327.108393757139	130
5	727	2343.764752523749	131
5	730	2344.156506369458	132
5	733	2351.55775236213	133
5	738	2358.92213652975	134
5	749	2370.582956560134	135
5	752	2370.870118791173	136
5	753	2378.064877284089	137
5	758	2383.746664728201	138
5	776	2433.762620535792	139
5	779	2438.042451339352	140
5	780	2440.886390830401	141
5	783	2443.229611813179	142
5	786	2452.612239859564	143
5	789	2461.746267256021	144
5	794	2482.693095186214	145
5	795	2484.941997107442	146
5	798	2487.791084859248	147
5	799	2488.498831523037	148
5	802	2495.119444905325	149
6	122	369.764205255802	0.805802749813
6	131	407.987521800575	5.107204678919
6	134	423.691409343679	20.731970576002
6	139	434.463897447814	23.312839853023
6	140	448.08582664506	22.57809045021
6	152	476.003696752653	6.201448503713
6	158	504.557674821238	1.262991045127
6	161	517.055505955124	9.344850757326
6	171	533.676852399253	7.004062818922
6	172	541.490941884917	14.196249705011
6	175	553.024653998517	0.144874169203
6	189	619.453928800717	24.562489687819
6	190	620.322856799376	18.528694634484
6	202	659.097941317354	31.306178444381
6	206	680.4198088155	2.662341543024
6	209	703.86518120431	10.53880006901
6	213	719.605053683175	1.203097882526
6	216	721.399042374758	0.178296426392
6	221	746.822369075817	9.960115565288
6	228	765.332507791499	17.792893566318
6	233	777.269346523697	26.662744501792
6	240	784.478187998452	3.704261240158
6	248	793.078802408559	2.957828431659
6	253	809.13011143216	1.472478482706
6	257	832.77027304843	2.687282992139
6	260	835.713468627749	1.597175131334
6	264	846.607056100767	0.828814760297
6	274	894.727618111341	13.965920878702
6	275	895.34143248481	3.196016695426
6	276	896.521563342791	2.148534901278
6	294	922.338755870742	8.731230115211
6	297	932.775072167448	12.497865242156
6	304	941.078757260103	6.406049080384
6	305	945.698182672002	9.6692473588
6	310	957.449071458603	0.400984441775
6	315	968.915069278098	10.704986990101
6	318	981.162668966057	4.574756923454
6	322	1005.911747957057	0.321609981678
6	331	1041.903523721129	3.595365702606
6	332	1048.700270548499	10.154951285492
6	337	1066.47960852008	13.186156336086
6	340	1076.315234412792	4.089704006606
6	353	1128.943620820311	8.857194637209
6	356	1144.900013770311	16.747770448558
6	357	1151.350263371021	15.507225751488
6	360	1152.747841537113	0.501169816654
6	363	1159.76971761577	5.626734146804
6	366	1167.259949499656	4.942568594383
6	375	1190.316467710195	20.845576280753
6	378	1194.693657737675	14.629984790663
6	391	1224.919572166604	42.435485630409
6	394	1232.871745407067	48.788268805344
6	395	1235.759745017321	16.391671499321
6	403	1262.367655389194	4.64727765761
6	404	1264.287559120223	5.606549642621
6	407	1274.17687757803	3.899946316495
6	419	1301.104697632727	11.142415228907
6	420	1304.659846704666	12.096434995643
6	423	1308.887204126084	0.460633971939
6	427	1335.049830754136	0.307689070554
6	443	1372.133720864252	3.174676273831
6	444	1373.662447811475	1.715240193521
6	447	1376.891950893691	0.508166468401
6	457	1410.03772863844	4.529901566441
6	467	1447.078245104654	2.693131529806
6	477	1480.323218074852	0.26349679292
6	482	1489.237170002596	0.510875221698
6	485	1496.183260538198	0.042124278359
6	494	1526.642370653923	2.400032149422
6	501	1560.47296952734	18.025337905041
6	502	1571.400875306287	21.934793175931
6	513	1598.564231619975	7.922233366058
6	521	1650.221057840773	16.50670781352
6	539	1746.341114437235	31.111362057151
6	540	1757.353578073743	34.247808543424
6	541	1761.792983348056	26.087398506604
6	544	1767.568841118143	28.256404429189
6	552	1793.163217022104	12.142474100533
6	557	1799.863341256803	8.87357332336
6	560	1800.227409522945	2.216151345605
6	563	1803.367664282012	3.39399526972
6	570	1812.903135761549	10.114524011413
6	582	1838.502149163674	1.294339562009
6	593	1876.353243842207	2.138424007231
6	598	1881.504221175038	4.011898075461
6	608	1925.459438872226	26.447530311436
6	611	1934.698407386664	25.992616358372
6	612	1942.363985573282	15.559109653692
6	621	1985.00093993139	0.454664480617
6	631	2031.711183352151	35.698340938229
6	641	2084.001809847681	0.146656501462
6	645	2095.36475586037	2.700695747238
6	650	2115.155812315385	10.30443185542
6	655	2133.435718319366	10.891843056791
6	658	2160.028244738443	2.496244718621
6	661	2162.462693017154	1.692749670665
6	666	2175.015290871855	8.455028859502
6	671	2196.142273704817	25.825552131664
6	676	2205.429680314942	16.918131668158
6	677	2208.282725231621	9.648957521519
6	688	2264.171475768633	18.911481523055
6	693	2270.456430613159	4.876890839401
6	696	2284.454505410366	3.579612081087
6	701	2299.120673720931	8.924912382942
6	710	2311.144494383216	3.106945378823
6	711	2314.400067685475	6.31432539997
6	716	2325.899828643105	17.012604116257
6	717	2327.108393757139	2.303552770504
6	727	2343.764752523749	10.122046085323
6	730	2344.156506369458	7.798050447161
6	733	2351.55775236213	13.540073574196
6	738	2358.92213652975	19.241331900792
6	749	2370.582956560134	23.612043764654
6	752	2370.870118791173	18.540607967305
6	753	2378.064877284089	17.704331616087
6	758	2383.746664728201	1.811987775449
6	776	2433.762620535792	22.098550240966
6	779	2438.042451339352	21.538142243527
6	780	2440.886390830401	23.566491603835
6	783	2443.229611813179	21.370530740147
6	786	2452.612239859564	19.528590752764
6	789	2461.746267256021	19.009264928309
6	794	2482.693095186214	32.391498964993
6	795	2484.941997107442	29.545838113381
6	798	2487.791084859248	12.155893400762
6	799	2488.498831523037	10.428222526103
6	802	2495.119444905325	8.545258390567
7	803	2500	0.0316
8	803	2500	0.0596

