file 23150 1679223326                                           
version 2
run factors_calibration_minions-139-20230319-11:55:26-7846
attr configname factors_calibration_minions
attr datetime 20230319-11:55:26
attr experiment factors_calibration_minions
attr inifile omnetpp.ini
attr iterationvars $0=7
attr iterationvarsf 7-
attr measurement $0=7
attr network Network
attr processid 7846
attr repetition 19
attr replication #19
attr resultdir results
attr runnumber 139
attr seedset 19
param *.minion.arrival_mean 20
param *.minion.service_mean 7
param *.boss.arrival_mean 20
param *.boss.service_mean 7
param *.player.recover_rate_x 100
param **.minion.arrival_distribution 0
param **.minion.service_distribution 0
param **.boss.arrival_distribution 0
param **.boss.service_distribution 0

vector 0 Network.player minion_defeated_stat:vector ETV
attr source signal_minion_defeated
vector 1 Network.player minion_response_time_stat:vector ETV
attr source signal_minion_response_time
vector 2 Network.player minion_waiting_time_stat:vector ETV
attr source signal_minion_waiting_time
vector 3 Network.player minion_recovered_stat:vector ETV
attr source signal_minion_recovered
vector 4 Network.player boss_waiting_time_stat:vector ETV
attr source signal_boss_waiting_time
vector 5 Network.player boss_defeated_stat:vector ETV
attr source signal_boss_defeated
vector 6 Network.player boss_response_time_stat:vector ETV
attr source signal_boss_response_time
vector 7 Network.player minion_throughput:vector ETV
attr source signal_minion_throughput
vector 8 Network.player boss_throughput:vector ETV
attr source signal_boss_throughput
0	1566 2448 85 674 352.42116587079 2494.695806630857 92 16 107 5658 412850
1	4014 3591 85 674 352.42116587079 2494.695806630857 92 0.061381151442 76.542592698812 2030.6607077238 68976.207345519
2	7605 4657 85 674 352.42116587079 2494.695806630857 128 0 73.695817856181 2330.3227044481 79392.126191143
3	12262 941 94 668 383.641814753773 2483.711986540473 36 2 37 702 17574
4	13203 3075 94 668 383.641814753773 2483.711986540473 104 0 26.853787337667 290.52243716174 4591.5188132855
5	16278 2785 95 671 385.06147733653 2492.953097535389 104 12 115 6604 513084
6	19063 4051 95 671 385.06147733653 2492.953097535389 104 0.029760943396 44.383561502835 1070.1532618962 19960.191058941
7	23114 18 677 677 2500 2500 1 0.0428 0.0428 0.0428 0.00183184
8	23132 17 677 677 2500 2500 1 0.046 0.046 0.046 0.002116

