file 22526 1679223306                                           
version 2
run factors_calibration_minions-44-20230319-11:55:06-7371
attr configname factors_calibration_minions
attr datetime 20230319-11:55:06
attr experiment factors_calibration_minions
attr inifile omnetpp.ini
attr iterationvars $0=2
attr iterationvarsf 2-
attr measurement $0=2
attr network Network
attr processid 7371
attr repetition 14
attr replication #14
attr resultdir results
attr runnumber 44
attr seedset 14
param *.minion.arrival_mean 20
param *.minion.service_mean 2
param *.boss.arrival_mean 20
param *.boss.service_mean 7
param *.player.recover_rate_x 100
param **.minion.arrival_distribution 0
param **.minion.service_distribution 0
param **.boss.arrival_distribution 0
param **.boss.service_distribution 0

vector 0 Network.player boss_defeated_stat:vector ETV
attr source signal_boss_defeated
vector 1 Network.player boss_response_time_stat:vector ETV
attr source signal_boss_response_time
vector 2 Network.player boss_waiting_time_stat:vector ETV
attr source signal_boss_waiting_time
vector 3 Network.player minion_waiting_time_stat:vector ETV
attr source signal_minion_waiting_time
vector 4 Network.player minion_defeated_stat:vector ETV
attr source signal_minion_defeated
vector 5 Network.player minion_response_time_stat:vector ETV
attr source signal_minion_response_time
vector 6 Network.player minion_recovered_stat:vector ETV
attr source signal_minion_recovered
vector 7 Network.player minion_throughput:vector ETV
attr source signal_minion_throughput
vector 8 Network.player boss_throughput:vector ETV
attr source signal_boss_throughput
0	1564 2676 93 720 354.411155526407 2467.88464691787 100 15 114 6450 499350
1	4240 3885 93 720 354.411155526407 2467.88464691787 100 0.254253496276 25.477853311762 852.30385047932 11157.61318961
2	8125 2918 95 719 357.206506079018 2464.141668652333 99 0 21.022820552648 163.34502957396 1666.7114480647
3	11043 3891 98 725 362.484948516216 2473.231196923321 121 0 42.066259663845 664.49848978454 14786.207102192
4	14934 2997 99 726 363.961617360355 2473.504268791651 112 17 128 8120 705768
5	17931 4328 99 726 363.961617360355 2473.504268791651 112 0.037653294148 43.47393508117 802.13822407666 16633.234975936
6	22259 230 160 670 561.762733894234 2330.823323660804 9 1 9 45 285
7	22489 18 727 727 2500 2500 1 0.0512 0.0512 0.0512 0.00262144
8	22507 18 727 727 2500 2500 1 0.0456 0.0456 0.0456 0.00207936

