version 2
run factors_calibration_minions-195-20230319-11:55:37-8126
attr configname factors_calibration_minions
attr datetime 20230319-11:55:37
attr experiment factors_calibration_minions
attr inifile omnetpp.ini
attr iterationvars $0=12
attr iterationvarsf 12-
attr measurement $0=12
attr network Network
attr processid 8126
attr repetition 15
attr replication #15
attr resultdir results
attr runnumber 195
attr seedset 15
param *.minion.arrival_mean 20
param *.minion.service_mean 12
param *.boss.arrival_mean 20
param *.boss.service_mean 7
param *.player.recover_rate_x 100
param **.minion.arrival_distribution 0
param **.minion.service_distribution 0
param **.boss.arrival_distribution 0
param **.boss.service_distribution 0

vector 0 Network.player minion_defeated_stat:vector ETV
attr source signal_minion_defeated
vector 1 Network.player minion_response_time_stat:vector ETV
attr source signal_minion_response_time
vector 2 Network.player minion_waiting_time_stat:vector ETV
attr source signal_minion_waiting_time
vector 3 Network.player minion_recovered_stat:vector ETV
attr source signal_minion_recovered
vector 4 Network.player boss_waiting_time_stat:vector ETV
attr source signal_boss_waiting_time
vector 5 Network.player boss_defeated_stat:vector ETV
attr source signal_boss_defeated
vector 6 Network.player boss_response_time_stat:vector ETV
attr source signal_boss_response_time
vector 7 Network.player minion_throughput:vector ETV
attr source signal_minion_throughput
vector 8 Network.player boss_throughput:vector ETV
attr source signal_boss_throughput
0	112	351.246431550221	13
0	115	384.569383585881	14
0	116	388.923382397453	15
0	125	406.738410482703	16
0	131	416.647093537411	17
0	134	427.854516962769	18
0	135	460.3266408324	19
0	138	467.834347490005	20
0	139	469.654484930031	21
0	140	472.409023791984	22
0	143	480.418818405417	23
0	146	506.629302267441	24
0	164	590.191663326991	25
0	165	599.838808159355	26
0	180	664.767040628691	27
0	190	690.008367217791	28
0	193	697.740609751967	29
0	194	706.83964427032	30
0	198	734.226571389207	31
0	230	807.605786462753	32
0	231	808.364571028606	33
0	235	831.355591075251	34
0	236	835.328828672093	35
0	237	835.667442587444	36
0	243	862.757168771112	37
0	244	874.149879357353	38
0	257	902.099292268662	39
0	264	938.503969965733	40
0	265	953.434093083417	41
0	286	1014.539307952085	42
0	287	1035.437387607354	43
0	288	1042.965895174925	44
0	289	1066.785550394184	45
0	295	1078.697461253899	46
0	296	1083.655474966707	47
0	297	1094.627675927456	48
0	298	1096.7561568575	49
0	354	1253.309478498655	50
0	355	1254.298268136698	51
0	358	1260.846818445153	52
0	361	1274.68505532492	53
0	366	1283.699937961543	54
0	376	1328.216452830148	55
0	377	1330.019229999702	56
0	378	1333.248519062205	57
0	379	1334.027257995586	58
0	380	1342.526546853552	59
0	381	1345.710013809946	60
0	406	1396.050815560461	61
0	409	1432.93469474765	62
0	410	1444.082468525053	63
0	414	1470.149513927826	64
0	425	1511.973111007259	65
0	435	1550.380751991589	66
0	476	1662.774424169957	67
0	480	1669.758901153584	68
0	481	1670.538564028608	69
0	493	1699.100744401162	70
0	494	1699.984454273661	71
0	495	1701.771411183247	72
0	519	1749.897591233216	73
0	523	1761.674837633849	74
0	535	1836.546039419275	75
0	536	1843.064118531748	76
0	559	1955.548433056918	77
0	570	1985.160489123095	78
0	574	2009.853481855377	79
0	575	2027.39758219694	80
0	586	2064.410322260543	81
0	594	2103.108547720813	82
0	597	2107.258169293907	83
0	598	2112.677863273282	84
0	602	2121.491233531265	85
0	603	2131.235217761804	86
0	606	2133.809496481743	87
0	638	2240.272373727879	88
0	644	2270.609760272398	89
0	647	2286.148948122607	90
0	648	2299.610843314698	91
0	653	2304.625353293331	92
0	654	2311.896937715621	93
0	655	2314.465083046416	94
0	672	2367.836685697841	95
0	703	2478.951087620182	96
0	704	2491.292611866397	97
0	705	2494.134474218932	98
0	706	2494.259264173603	99
1	112	351.246431550221	74.498250374689
1	115	384.569383585881	83.447461617299
1	116	388.923382397453	84.066057304552
1	125	406.738410482703	68.0593639232
1	131	416.647093537411	64.131181729112
1	134	427.854516962769	37.662431693149
1	135	460.3266408324	68.063212576988
1	138	467.834347490005	60.394815268096
1	139	469.654484930031	53.811872899631
1	140	472.409023791984	52.517809427647
1	143	480.418818405417	19.02792448142
1	146	506.629302267441	30.187214413059
1	164	590.191663326991	31.876978490551
1	165	599.838808159355	24.172645883576
1	180	664.767040628691	8.703739562791
1	190	690.008367217791	23.616546759998
1	193	697.740609751967	28.528112643795
1	194	706.83964427032	25.97534936217
1	198	734.226571389207	3.503406911984
1	230	807.605786462753	57.197315652509
1	231	808.364571028606	56.56016894138
1	235	831.355591075251	71.775017789611
1	236	835.328828672093	74.867610440031
1	237	835.667442587444	61.259684390758
1	243	862.757168771112	60.083010065828
1	244	874.149879357353	64.150916067713
1	257	902.099292268662	40.156036477637
1	264	938.503969965733	58.402932241957
1	265	953.434093083417	71.296551616278
1	286	1014.539307952085	116.76145883616
1	287	1035.437387607354	126.98227452514
1	288	1042.965895174925	117.09238001958
1	289	1066.785550394184	137.88202473832
1	295	1078.697461253899	113.24319369952
1	296	1083.655474966707	103.95027059945
1	297	1094.627675927456	107.98746296585
1	298	1096.7561568575	108.92660118849
1	354	1253.309478498655	101.3275616978
1	355	1254.298268136698	96.893122019977
1	358	1260.846818445153	86.775711546881
1	361	1274.68505532492	91.948876657091
1	366	1283.699937961543	62.221996417144
1	376	1328.216452830148	62.271191228169
1	377	1330.019229999702	49.509761316315
1	378	1333.248519062205	51.856743544028
1	379	1334.027257995586	35.376868703707
1	380	1342.526546853552	34.401460777511
1	381	1345.710013809946	35.421640805196
1	406	1396.050815560461	21.582110479847
1	409	1432.93469474765	54.774987400127
1	410	1444.082468525053	65.044308161025
1	414	1470.149513927826	4.95623075695
1	425	1511.973111007259	28.933031056053
1	435	1550.380751991589	40.998461653508
1	476	1662.774424169957	109.37494641325
1	480	1669.758901153584	112.04556614611
1	481	1670.538564028608	102.20701243568
1	493	1699.100744401162	95.812054850536
1	494	1699.984454273661	80.089715924402
1	495	1701.771411183247	71.489113922056
1	519	1749.897591233216	85.407112803494
1	523	1761.674837633849	86.407730572298
1	535	1836.546039419275	146.69806804391
1	536	1843.064118531748	140.31720501221
1	559	1955.548433056918	200.14258926013
1	570	1985.160489123095	137.76933634168
1	574	2009.853481855377	152.62843298895
1	575	2027.39758219694	161.12575139892
1	586	2064.410322260543	107.98492239025
1	594	2103.108547720813	133.27404492752
1	597	2107.258169293907	132.6163492017
1	598	2112.677863273282	113.0986871103
1	602	2121.491233531265	80.310216471446
1	603	2131.235217761804	81.831879900512
1	606	2133.809496481743	81.355624805606
1	638	2240.272373727879	146.44503979259
1	644	2270.609760272398	157.74261077373
1	647	2286.148948122607	153.00983318849
1	648	2299.610843314698	165.17005140556
1	653	2304.625353293331	103.97326281418
1	654	2311.896937715621	103.40359085482
1	655	2314.465083046416	94.929551812798
1	672	2367.836685697841	139.37680812564
1	703	2478.951087620182	233.29216770996
1	704	2491.292611866397	235.75623822124
1	705	2494.134474218932	213.71989084839
1	706	2494.259264173603	193.42074462633
2	112	351.246431550221	50.124509581639
2	115	384.569383585881	79.71205849298
2	116	388.923382397453	71.551623522929
2	124	395.049059201873	56.37001264237
2	125	406.738410482703	56.856437139993
2	128	411.644076757959	59.12816494966
2	131	416.647093537411	26.455008267791
2	134	427.854516962769	35.591088707357
2	135	460.3266408324	52.887108610491
2	138	467.834347490005	51.991735459605
2	139	469.654484930031	49.763270565694
2	140	472.409023791984	11.018129867987
2	143	480.418818405417	3.976730551035
2	146	506.629302267441	21.955632083733
2	152	544.755805861435	26.247837313047
2	160	562.092186430571	13.343369697454
2	163	589.536845606693	31.222160770253
2	164	590.191663326991	14.525501051212
2	179	657.527471798049	1.464170732149
2	187	679.472519911894	13.080699454101
2	190	690.008367217791	20.795870109619
2	193	697.740609751967	16.876314843817
2	194	706.83964427032	12.099208170175
2	197	730.760167148718	0.037002671495
2	200	743.653635751894	0
2	203	746.874344139529	0.15414075611
2	227	794.393709807856	43.985238997612
2	230	807.605786462753	55.801384375527
2	231	808.364571028606	53.768226954199
2	234	830.33113465297	70.75056136733
2	235	831.355591075251	70.894372843189
2	236	835.328828672093	60.921070475407
2	237	835.667442587444	53.20874845678
2	240	847.480146463156	44.805987757872
2	243	862.757168771112	52.758205481472
2	244	874.149879357353	38.037152093323
2	256	900.817179429286	38.873923638261
2	257	902.099292268662	21.998254544886
2	264	938.503969965733	56.366428498594
2	265	953.434093083417	57.333293372816
2	285	1014.051029265247	116.27318014932
2	286	1014.539307952085	106.08419486987
2	287	1035.437387607354	109.56387245201
2	288	1042.965895174925	114.06236951906
2	289	1066.785550394184	107.79886780621
2	292	1073.202554204075	107.74828664969
2	295	1078.697461253899	98.992256886643
2	296	1083.655474966707	97.015262005102
2	297	1094.627675927456	106.79812025845
2	298	1096.7561568575	25.058628665371
2	301	1112.748229278975	36.57843333186
2	325	1173.060050497143	65.595976163698
2	331	1182.585855464217	64.802005935927
2	348	1244.698873320674	108.56265606849
2	353	1250.751347883713	98.76943108286
2	354	1253.309478498655	95.904332381934
2	355	1254.298268136698	80.227161238426
2	358	1260.846818445153	78.110639777324
2	361	1274.68505532492	53.207113780521
2	366	1283.699937961543	35.634490232788
2	369	1301.295105610999	50.818396318537
2	372	1308.305692073951	51.430195747246
2	375	1315.016856726785	49.071595124806
2	376	1328.216452830148	47.706984146761
2	377	1330.019229999702	48.627454481525
2	378	1333.248519062205	34.598129770326
2	379	1334.027257995586	25.902171919545
2	380	1342.526546853552	32.238173848802
2	386	1370.873039318881	1.001943077638
2	389	1373.443549166303	2.45320925141
2	405	1395.616842275226	21.148137194612
2	406	1396.050815560461	17.891108212938
2	409	1432.93469474765	53.896534383622
2	410	1444.082468525053	35.680522765182
2	413	1467.561905551299	2.368622380423
2	416	1483.040079951206	0
2	425	1511.973111007259	17.749365229324
2	428	1519.93158378239	24.892871741139
2	431	1533.219297898806	24.227325117668
2	434	1549.847273290327	40.464982952246
2	435	1550.380751991589	32.33221817914
2	438	1551.475041804553	29.359740885439
2	445	1560.039404795262	18.610509240947
2	459	1613.535114774508	62.797004033784
2	475	1655.757043115355	102.35756535865
2	476	1662.774424169957	105.71696562778
2	479	1668.135076236657	110.42174122918
2	480	1669.758901153584	101.42734956066
2	481	1670.538564028608	93.649956270676
2	484	1674.976856871816	97.85518554444
2	489	1688.979240525241	97.533892620944
2	492	1691.973392393445	88.684702842819
2	493	1699.100744401162	79.206006051903
2	494	1699.984454273661	69.70215701247
2	495	1701.771411183247	50.381660627359
2	518	1749.294851687098	84.804373257376
2	519	1749.897591233216	78.515935979506
2	522	1756.804224669195	81.537117607644
2	523	1761.674837633849	81.086702117598
2	534	1832.593489772913	142.74551839754
2	535	1836.546039419275	133.79912589974
2	536	1843.064118531748	137.62750431781
2	541	1855.527932447558	138.32977220317
2	544	1865.115227218571	142.02941892742
2	547	1871.988720382499	135.07317877933
2	556	1908.719261163674	153.31341736688
2	559	1955.548433056918	193.08730535468
2	564	1964.204640168247	198.41753205602
2	569	1977.565561526582	130.17440874517
2	570	1985.160489123095	133.05488964817
2	573	2006.075635330935	148.85058646451
2	574	2009.853481855377	143.58165105736
2	575	2027.39758219694	148.81951470455
2	578	2038.712441136456	118.63464846839
2	585	2053.040032361002	96.614632490704
2	586	2064.410322260543	105.07246689071
2	589	2073.499628435881	103.66512564259
2	594	2103.108547720813	128.4667276286
2	597	2107.258169293907	107.67899313093
2	598	2112.677863273282	81.147287619899
2	601	2118.270926964293	77.089909904474
2	602	2121.491233531265	72.087895669973
2	603	2131.235217761804	78.781346085667
2	606	2133.809496481743	64.660592410971
2	623	2206.441670451715	126.47311455069
2	637	2236.649652238023	142.82231830274
2	638	2240.272373727879	136.19564379263
2	643	2258.80392092182	145.93677142315
2	644	2270.609760272398	137.47064533828
2	647	2286.148948122607	151.70815621347
2	648	2299.610843314698	98.958752835544
2	653	2304.625353293331	96.132006432529
2	654	2311.896937715621	92.361406482003
2	655	2314.465083046416	89.579907793761
2	671	2365.584721490529	137.12484391833
2	672	2367.836685697841	131.5653912199
2	702	2475.014997752796	229.35607784257
2	703	2478.951087620182	223.41471397502
2	704	2491.292611866397	210.87802849585
2	705	2494.134474218932	193.29595467166
2	706	2494.259264173603	192.45036758197
3	118	390.19208526962	14
3	127	407.439532221909	15
3	148	518.507968548388	16
3	154	548.748816733117	17
3	162	575.666162275779	18
3	196	730.723164477223	19
3	202	746.720203383419	20
3	207	751.804402087226	21
3	233	809.99896328964	22
3	239	836.11272726403	23
3	246	880.101037723776	24
3	267	958.986682587974	25
3	291	1071.697528192129	26
3	300	1107.464074333445	27
3	303	1117.78384952829	28
3	327	1174.071106898272	29
3	333	1182.736178667829	30
3	352	1250.476709292462	31
3	368	1298.650389291879	32
3	371	1308.125086076041	33
3	374	1310.28837300475	34
3	388	1370.990339914893	35
3	393	1378.159707347523	36
3	412	1465.193283170876	37
3	427	1518.048533812449	38
3	430	1522.115300919114	39
3	433	1541.428895554315	40
3	437	1550.738110740724	41
3	442	1557.057458542175	42
3	447	1568.331551592928	43
3	461	1619.894738349259	44
3	478	1664.490478429722	45
3	483	1671.38165525371	46
3	486	1675.267107061551	47
3	491	1689.847971375368	48
3	497	1702.746913519538	49
3	521	1755.40584379679	50
3	525	1762.461127702236	51
3	538	1847.391152781413	52
3	543	1857.225048866429	53
3	546	1866.271830798015	54
3	549	1878.578067492393	55
3	561	1956.425399870298	56
3	566	1969.834502793289	57
3	572	1999.57917616298	58
3	577	2031.530575653383	59
3	582	2049.403337861292	60
3	588	2069.148904070772	61
3	600	2112.867149498668	62
3	608	2134.440791909142	63
3	627	2219.535531233618	64
3	640	2245.658919910221	65
3	657	2315.1814443388	66
3	674	2370.716186367381	67
4	118	390.19208526962	0
4	121	390.840364411142	0.287908811338
4	127	407.439532221909	0
4	148	518.507968548388	0
4	151	528.899472456283	6.725852131397
4	154	548.748816733117	0
4	157	556.77126824027	6.703649740218
4	162	575.666162275779	0
4	167	612.842100177508	0
4	170	631.851448153968	8.439855427141
4	173	647.071192511576	0
4	176	651.628792350656	0
4	182	665.26574855193	0
4	196	730.723164477223	0
4	202	746.720203383419	0
4	207	751.804402087226	0
4	218	766.333899666918	4.800847653596
4	223	774.811704027871	12.299410360777
4	224	780.848952605811	13.906958263687
4	233	809.99896328964	0
4	239	836.11272726403	0
4	246	880.101037723776	0
4	251	895.666606009229	2.499125249329
4	267	958.986682587974	0
4	272	967.003960110977	5.890171933202
4	283	998.428344504085	18.422056657983
4	284	1013.901635993861	27.313929813151
4	291	1071.697528192129	0
4	300	1107.464074333445	0
4	303	1117.78384952829	0
4	308	1129.140074747143	8.122693535835
4	315	1150.581631048558	26.150478312038
4	316	1150.747452901351	19.921449266321
4	319	1153.532518946767	4.99860030503
4	324	1171.251231438586	6.887282594537
4	327	1174.071106898272	0
4	330	1181.812772847471	6.036682208379
4	333	1182.736178667829	0
4	338	1192.223787009155	6.440847957568
4	339	1193.745639812937	7.608040542939
4	342	1217.392276404744	3.147961614116
4	347	1241.125111975157	14.301368810745
4	352	1250.476709292462	0
4	368	1298.650389291879	0
4	371	1308.125086076041	0
4	374	1310.28837300475	0
4	383	1359.796549003241	0
4	388	1370.990339914893	0
4	393	1378.159707347523	0
4	398	1386.373538955393	5.408662475096
4	403	1391.831140729046	5.098969838085
4	404	1393.18885305201	4.080783660014
4	412	1465.193283170876	0
4	427	1518.048533812449	0
4	430	1522.115300919114	0
4	433	1541.428895554315	0
4	437	1550.738110740724	0
4	442	1557.057458542175	0
4	447	1568.331551592928	0
4	458	1609.236522522645	14.354050446058
4	461	1619.894738349259	0
4	468	1632.52296520343	8.438922938438
4	471	1638.979283466024	12.768667431773
4	474	1654.939464348988	22.092706464252
4	478	1664.490478429722	0
4	483	1671.38165525371	0
4	486	1675.267107061551	0
4	491	1689.847971375368	0
4	497	1702.746913519538	0
4	502	1713.090538093964	0.592935579208
4	507	1719.480420213148	5.116871628224
4	514	1730.437810260765	10.796813855165
4	517	1747.305195739092	24.722130976742
4	521	1755.40584379679	0
4	525	1762.461127702236	0
4	530	1794.209881511621	7.150415076566
4	533	1824.320897361104	14.834583208015
4	538	1847.391152781413	0
4	543	1857.225048866429	0
4	546	1866.271830798015	0
4	549	1878.578067492393	0
4	552	1888.563143779946	1.805983876312
4	555	1908.473339509057	5.207743425129
4	561	1956.425399870298	0
4	566	1969.834502793289	0
4	572	1999.57917616298	0
4	577	2031.530575653383	0
4	582	2049.403337861292	0
4	588	2069.148904070772	0
4	600	2112.867149498668	0
4	608	2134.440791909142	0
4	611	2160.223877979299	3.011075757914
4	616	2184.268306097853	12.887692380261
4	621	2203.927588428262	32.187085415346
4	622	2204.321584288018	16.980069710695
4	627	2219.535531233618	0
4	636	2236.583465995428	12.740967062328
4	640	2245.658919910221	0
4	657	2315.1814443388	0
4	660	2330.3869912375	8.103014988473
4	669	2351.79036565202	20.542268571903
4	670	2365.566639384424	19.338280317125
4	674	2370.716186367381	0
4	685	2404.400941688367	29.332863826834
4	688	2421.892525235918	46.086202139009
4	691	2429.501343493811	49.536086964032
4	696	2441.652068354368	56.401216068057
4	697	2449.648121907423	35.839125210562
4	698	2455.261606981347	31.55720304636
4	699	2465.667683041898	26.344273177814
5	121	390.840364411142	22
5	124	395.049059201873	23
5	128	411.644076757959	24
5	151	528.899472456283	25
5	152	544.755805861435	26
5	157	556.77126824027	27
5	160	562.092186430571	28
5	163	589.536845606693	29
5	170	631.851448153968	30
5	171	636.085415327068	31
5	174	649.320500980106	32
5	179	657.527471798049	33
5	187	679.472519911894	34
5	197	730.760167148718	35
5	203	746.874344139529	36
5	218	766.333899666918	37
5	223	774.811704027871	38
5	224	780.848952605811	39
5	227	794.393709807856	40
5	234	830.33113465297	41
5	240	847.480146463156	42
5	251	895.666606009229	43
5	256	900.817179429286	44
5	272	967.003960110977	45
5	283	998.428344504085	46
5	284	1013.901635993861	47
5	285	1014.051029265247	48
5	292	1073.202554204075	49
5	301	1112.748229278975	50
5	308	1129.140074747143	51
5	315	1150.581631048558	52
5	316	1150.747452901351	53
5	319	1153.532518946767	54
5	324	1171.251231438586	55
5	325	1173.060050497143	56
5	330	1181.812772847471	57
5	331	1182.585855464217	58
5	338	1192.223787009155	59
5	339	1193.745639812937	60
5	342	1217.392276404744	61
5	347	1241.125111975157	62
5	348	1244.698873320674	63
5	353	1250.751347883713	64
5	369	1301.295105610999	65
5	372	1308.305692073951	66
5	375	1315.016856726785	67
5	386	1370.873039318881	68
5	389	1373.443549166303	69
5	398	1386.373538955393	70
5	403	1391.831140729046	71
5	404	1393.18885305201	72
5	405	1395.616842275226	73
5	413	1467.561905551299	74
5	428	1519.93158378239	75
5	431	1533.219297898806	76
5	434	1549.847273290327	77
5	438	1551.475041804553	78
5	445	1560.039404795262	79
5	458	1609.236522522645	80
5	459	1613.535114774508	81
5	468	1632.52296520343	82
5	471	1638.979283466024	83
5	474	1654.939464348988	84
5	475	1655.757043115355	85
5	479	1668.135076236657	86
5	484	1674.976856871816	87
5	489	1688.979240525241	88
5	492	1691.973392393445	89
5	502	1713.090538093964	90
5	507	1719.480420213148	91
5	514	1730.437810260765	92
5	517	1747.305195739092	93
5	518	1749.294851687098	94
5	522	1756.804224669195	95
5	530	1794.209881511621	96
5	533	1824.320897361104	97
5	534	1832.593489772913	98
5	541	1855.527932447558	99
5	544	1865.115227218571	100
5	547	1871.988720382499	101
5	552	1888.563143779946	102
5	555	1908.473339509057	103
5	556	1908.719261163674	104
5	564	1964.204640168247	105
5	569	1977.565561526582	106
5	573	2006.075635330935	107
5	578	2038.712441136456	108
5	585	2053.040032361002	109
5	589	2073.499628435881	110
5	601	2118.270926964293	111
5	611	2160.223877979299	112
5	616	2184.268306097853	113
5	621	2203.927588428262	114
5	622	2204.321584288018	115
5	623	2206.441670451715	116
5	636	2236.583465995428	117
5	637	2236.649652238023	118
5	643	2258.80392092182	119
5	660	2330.3869912375	120
5	669	2351.79036565202	121
5	670	2365.566639384424	122
5	671	2365.584721490529	123
5	685	2404.400941688367	124
5	688	2421.892525235918	125
5	691	2429.501343493811	126
5	696	2441.652068354368	127
5	697	2449.648121907423	128
5	698	2455.261606981347	129
5	699	2465.667683041898	130
5	702	2475.014997752796	131
6	121	390.840364411142	0.648279141522
6	124	395.049059201873	4.496603602069
6	128	411.644076757959	4.20454453605
6	151	528.899472456283	10.391503907895
6	152	544.755805861435	22.582185536549
6	157	556.77126824027	8.022451507153
6	160	562.092186430571	12.024567930519
6	163	589.536845606693	13.870683330914
6	170	631.851448153968	19.00934797646
6	171	636.085415327068	12.673822600241
6	174	649.320500980106	2.24930846853
6	179	657.527471798049	5.898679447393
6	187	679.472519911894	14.206771359964
6	197	730.760167148718	0.037002671495
6	203	746.874344139529	0.15414075611
6	218	766.333899666918	14.529497579692
6	223	774.811704027871	13.278652014549
6	224	780.848952605811	18.336658938717
6	227	794.393709807856	27.451715465732
6	234	830.33113465297	20.33217136333
6	240	847.480146463156	11.367419199126
6	251	895.666606009229	15.565568285453
6	256	900.817179429286	7.649698669386
6	272	967.003960110977	8.017277523003
6	283	998.428344504085	37.31455632631
6	284	1013.901635993861	33.895348147759
6	285	1014.051029265247	27.463323084537
6	292	1073.202554204075	1.505026011946
6	301	1112.748229278975	5.28415494553
6	308	1129.140074747143	11.356225218853
6	315	1150.581631048558	29.56424983725
6	316	1150.747452901351	26.316300164831
6	319	1153.532518946767	22.706515311737
6	324	1171.251231438586	22.717312796849
6	325	1173.060050497143	8.696101653094
6	330	1181.812772847471	7.741665949199
6	331	1182.585855464217	6.809764825125
6	338	1192.223787009155	9.487608341326
6	339	1193.745639812937	7.96270076135
6	342	1217.392276404744	31.254677134746
6	347	1241.125111975157	26.880797184529
6	348	1244.698873320674	17.875130156262
6	353	1250.751347883713	0.274638591251
6	369	1301.295105610999	2.64471631912
6	372	1308.305692073951	0.18060599791
6	375	1315.016856726785	4.728483722035
6	386	1370.873039318881	11.07649031564
6	389	1373.443549166303	2.45320925141
6	398	1386.373538955393	8.21383160787
6	403	1391.831140729046	10.866264248749
6	404	1393.18885305201	6.456682161049
6	405	1395.616842275226	6.50877288323
6	413	1467.561905551299	2.368622380423
6	428	1519.93158378239	1.883049969941
6	431	1533.219297898806	11.103996979692
6	434	1549.847273290327	8.418377736012
6	438	1551.475041804553	0.736931063829
6	445	1560.039404795262	2.981946253087
6	458	1609.236522522645	40.904970929717
6	459	1613.535114774508	18.652642697921
6	468	1632.52296520343	12.628226854171
6	471	1638.979283466024	14.895241201032
6	474	1654.939464348988	28.728848314737
6	475	1655.757043115355	22.910285230619
6	479	1668.135076236657	3.644597806935
6	484	1674.976856871816	3.595201618106
6	489	1688.979240525241	13.71213346369
6	492	1691.973392393445	2.125421018077
6	502	1713.090538093964	10.343624574426
6	507	1719.480420213148	6.982817698392
6	514	1730.437810260765	16.074261675841
6	517	1747.305195739092	27.664199333492
6	518	1749.294851687098	26.711786924748
6	522	1756.804224669195	1.398380872405
6	530	1794.209881511621	31.748753809385
6	533	1824.320897361104	37.261430926049
6	534	1832.593489772913	23.107175619824
6	541	1855.527932447558	8.136779666145
6	544	1865.115227218571	7.890178352142
6	547	1871.988720382499	5.716889584484
6	552	1888.563143779946	9.985076287553
6	555	1908.473339509057	21.716179605423
6	556	1908.719261163674	5.453665079746
6	564	1964.204640168247	7.779240297949
6	569	1977.565561526582	7.731058733293
6	573	2006.075635330935	6.496459167955
6	578	2038.712441136456	7.181865483073
6	585	2053.040032361002	3.63669449971
6	589	2073.499628435881	4.350724365109
6	601	2118.270926964293	5.403777465625
6	611	2160.223877979299	25.783086070157
6	616	2184.268306097853	27.055503876468
6	621	2203.927588428262	32.54697471067
6	622	2204.321584288018	32.581081275102
6	623	2206.441670451715	19.100155874392
6	636	2236.583465995428	17.04793476181
6	637	2236.649652238023	12.807153304923
6	643	2258.80392092182	13.145001011599
6	660	2330.3869912375	15.2055468987
6	669	2351.79036565202	29.506389402993
6	670	2365.566639384424	34.318542304307
6	671	2365.584721490529	19.35636242323
6	685	2404.400941688367	33.684755320986
6	688	2421.892525235918	46.824447374385
6	691	2429.501343493811	53.695020396902
6	696	2441.652068354368	61.686811824589
6	697	2449.648121907423	64.397269621112
6	698	2455.261606981347	41.452610284486
6	699	2465.667683041898	41.963279106911
6	702	2475.014997752796	35.691587888712
7	707	2500	0.0396
8	707	2500	0.0524

