version 2
run factors_calibration_minions-150-20230319-11:55:28-7901
attr configname factors_calibration_minions
attr datetime 20230319-11:55:28
attr experiment factors_calibration_minions
attr inifile omnetpp.ini
attr iterationvars $0=10
attr iterationvarsf 10-
attr measurement $0=10
attr network Network
attr processid 7901
attr repetition 0
attr replication #0
attr resultdir results
attr runnumber 150
attr seedset 0
param *.minion.arrival_mean 20
param *.minion.service_mean 10
param *.boss.arrival_mean 20
param *.boss.service_mean 7
param *.player.recover_rate_x 100
param **.minion.arrival_distribution 0
param **.minion.service_distribution 0
param **.boss.arrival_distribution 0
param **.boss.service_distribution 0

vector 0 Network.player boss_defeated_stat:vector ETV
attr source signal_boss_defeated
vector 1 Network.player boss_response_time_stat:vector ETV
attr source signal_boss_response_time
vector 2 Network.player minion_waiting_time_stat:vector ETV
attr source signal_minion_waiting_time
vector 3 Network.player minion_defeated_stat:vector ETV
attr source signal_minion_defeated
vector 4 Network.player minion_response_time_stat:vector ETV
attr source signal_minion_response_time
vector 5 Network.player minion_recovered_stat:vector ETV
attr source signal_minion_recovered
vector 6 Network.player boss_waiting_time_stat:vector ETV
attr source signal_boss_waiting_time
vector 7 Network.player minion_throughput:vector ETV
attr source signal_minion_throughput
vector 8 Network.player boss_throughput:vector ETV
attr source signal_boss_throughput
0	110	351.093971794082	22
0	115	369.330714250222	23
0	120	392.262403039258	24
0	123	399.594059841404	25
0	129	406.432979029154	26
0	135	421.431747037122	27
0	140	439.880896590328	28
0	143	448.79542873213	29
0	148	471.092288333424	30
0	156	503.372082464823	31
0	159	520.489309525493	32
0	168	541.747207324612	33
0	174	567.541432146499	34
0	177	576.741977764971	35
0	182	606.928472911737	36
0	186	621.064698658041	37
0	191	626.463013325798	38
0	192	630.217228346912	39
0	213	700.039957353163	40
0	219	710.81493102379	41
0	226	718.090158415277	42
0	229	726.35965658663	43
0	230	732.543372198193	44
0	235	738.910710822221	45
0	238	741.161024858367	46
0	239	742.355444952618	47
0	244	747.601850396912	48
0	245	753.108657692915	49
0	249	769.636035081989	50
0	255	788.486643485192	51
0	264	806.470870468191	52
0	267	809.031521403671	53
0	270	811.116452405309	54
0	271	812.873274765827	55
0	278	851.788883151634	56
0	279	855.225715375896	57
0	284	867.210871995243	58
0	289	886.495065685076	59
0	290	886.640875313158	60
0	299	912.747452059853	61
0	300	913.825365103102	62
0	301	921.636749853191	63
0	302	924.391223860631	64
0	305	946.327874508048	65
0	308	962.836027068613	66
0	313	977.531502012806	67
0	320	999.520617595917	68
0	328	1013.353756747586	69
0	334	1035.657297190095	70
0	337	1042.248786390949	71
0	344	1064.297372028086	72
0	350	1099.539405018734	73
0	374	1196.836285881257	74
0	379	1209.069297881089	75
0	386	1217.82102166675	76
0	387	1220.962166938075	77
0	388	1221.125889731521	78
0	391	1238.574585203685	79
0	397	1277.694920778109	80
0	419	1345.484233335654	81
0	427	1361.870700121931	82
0	430	1374.373070530258	83
0	435	1384.494910707809	84
0	447	1421.096327852517	85
0	482	1525.497773320528	86
0	485	1529.687662210469	87
0	488	1536.439367444254	88
0	493	1555.878333941825	89
0	496	1565.004601750452	90
0	501	1582.528843833177	91
0	505	1609.474499861223	92
0	509	1619.525346458797	93
0	514	1636.416422508259	94
0	521	1654.382606660888	95
0	528	1676.335899689831	96
0	531	1682.285654719335	97
0	534	1689.694869683043	98
0	546	1752.129087841798	99
0	557	1780.442001052691	100
0	562	1797.218642965208	101
0	569	1839.270905499815	102
0	570	1840.84498451633	103
0	582	1890.603720833082	104
0	585	1904.318725602815	105
0	600	1946.760243537432	106
0	610	1972.581490955517	107
0	618	1994.678468596912	108
0	622	2001.473163400284	109
0	629	2005.974957729859	110
0	630	2009.122810373039	111
0	641	2033.001520545849	112
0	646	2044.139876133301	113
0	653	2051.907843526658	114
0	654	2061.521386065459	115
0	659	2096.335126326006	116
0	666	2202.111927581502	117
0	685	2262.123953124316	118
0	690	2329.260538707697	119
0	693	2337.726032187846	120
0	698	2370.553512431872	121
0	706	2404.490953480994	122
0	712	2417.633268063567	123
0	721	2439.136188950537	124
0	729	2466.299481067577	125
0	741	2481.947865922792	126
0	744	2487.901286345626	127
1	110	351.093971794082	1.099607773224
1	115	369.330714250222	4.272372059165
1	120	392.262403039258	4.225350613455
1	123	399.594059841404	8.666201933228
1	129	406.432979029154	1.699648153804
1	135	421.431747037122	2.284836935411
1	140	439.880896590328	3.057661880154
1	143	448.79542873213	7.894591682733
1	148	471.092288333424	4.749685001487
1	156	503.372082464823	6.255933277602
1	159	520.489309525493	17.391609737343
1	168	541.747207324612	0.169918913056
1	174	567.541432146499	10.161847146877
1	177	576.741977764971	5.728657099266
1	182	606.928472911737	25.453549741486
1	186	621.064698658041	2.100667753396
1	191	626.463013325798	3.603374514428
1	192	630.217228346912	5.697663025422
1	213	700.039957353163	5.632806425154
1	219	710.81493102379	2.333884311683
1	226	718.090158415277	2.560621623449
1	229	726.35965658663	9.479815441716
1	230	732.543372198193	8.873668196793
1	235	738.910710822221	4.064403298196
1	238	741.161024858367	3.844378712437
1	239	742.355444952618	3.00853093287
1	244	747.601850396912	4.243750320958
1	245	753.108657692915	7.030497944431
1	249	769.636035081989	9.922046581116
1	255	788.486643485192	10.608916451528
1	264	806.470870468191	11.909749096183
1	267	809.031521403671	9.346421762692
1	270	811.116452405309	6.415014567841
1	271	812.873274765827	5.909679398562
1	278	851.788883151634	15.648745702347
1	279	855.225715375896	14.108497756498
1	284	867.210871995243	8.871421105952
1	289	886.495065685076	19.545300824967
1	290	886.640875313158	16.016900488101
1	299	912.747452059853	29.509229128498
1	300	913.825365103102	21.426546312236
1	301	921.636749853191	24.731431810972
1	302	924.391223860631	14.838331333717
1	305	946.327874508048	16.319348345723
1	308	962.836027068613	11.585778657768
1	313	977.531502012806	13.08430390882
1	320	999.520617595917	3.564017075724
1	328	1013.353756747586	3.32363929064
1	334	1035.657297190095	3.870065034156
1	337	1042.248786390949	0.677249497819
1	344	1064.297372028086	3.737688797913
1	350	1099.539405018734	7.417307419292
1	374	1196.836285881257	10.829794932468
1	379	1209.069297881089	5.712596392594
1	386	1217.82102166675	11.919358430551
1	387	1220.962166938075	11.518632293468
1	388	1221.125889731521	8.465717892694
1	391	1238.574585203685	1.784738047345
1	397	1277.694920778109	2.656199973812
1	419	1345.484233335654	3.652261369183
1	427	1361.870700121931	5.791072888458
1	430	1374.373070530258	4.430165123779
1	435	1384.494910707809	9.652657949359
1	447	1421.096327852517	2.195648996429
1	482	1525.497773320528	6.584508288295
1	485	1529.687662210469	2.415129746325
1	488	1536.439367444254	1.591418698504
1	493	1555.878333941825	4.283375906044
1	496	1565.004601750452	7.421751205905
1	501	1582.528843833177	13.789536615024
1	505	1609.474499861223	7.607192742073
1	509	1619.525346458797	6.177502558466
1	514	1636.416422508259	14.33951093978
1	521	1654.382606660888	2.333520624333
1	528	1676.335899689831	11.67049835338
1	531	1682.285654719335	2.279892929089
1	534	1689.694869683043	3.280229217786
1	546	1752.129087841798	4.243934082043
1	557	1780.442001052691	0.547245328072
1	562	1797.218642965208	1.609506140563
1	569	1839.270905499815	10.006707491484
1	570	1840.84498451633	9.867560642577
1	582	1890.603720833082	0.461257261108
1	585	1904.318725602815	5.051331493674
1	600	1946.760243537432	12.873769839291
1	610	1972.581490955517	0.638894578154
1	618	1994.678468596912	8.258006654435
1	622	2001.473163400284	4.625919240069
1	629	2005.974957729859	4.13287628894
1	630	2009.122810373039	6.729144930423
1	641	2033.001520545849	3.149655406435
1	646	2044.139876133301	8.60950192753
1	653	2051.907843526658	5.081061202156
1	654	2061.521386065459	13.304507226918
1	659	2096.335126326006	4.278805208887
1	666	2202.111927581502	8.223003362997
1	685	2262.123953124316	11.565038233156
1	690	2329.260538707697	8.179798567962
1	693	2337.726032187846	2.661494028803
1	698	2370.553512431872	3.274364267653
1	706	2404.490953480994	12.995747998256
1	712	2417.633268063567	7.721185022759
1	721	2439.136188950537	4.703690761592
1	729	2466.299481067577	2.907003211777
1	741	2481.947865922792	5.437521784651
1	744	2487.901286345626	7.683005899143
2	110	351.093971794082	35.199509655641
2	111	351.581123359108	20.492150154755
2	112	355.820888147181	23.564221560966
2	115	369.330714250222	19.336350229364
2	123	399.594059841404	34.535717650347
2	124	402.970938085481	14.933885659678
2	129	406.432979029154	7.878066844373
2	130	411.48750435387	6.75417347852
2	135	421.431747037122	16.509712035505
2	140	439.880896590328	25.286819489742
2	143	448.79542873213	29.648518630419
2	148	471.092288333424	43.509284267821
2	149	489.820525002133	52.997290291959
2	159	520.489309525493	79.588472476096
2	162	528.094497329947	69.133570911884
2	163	533.527891116205	67.185287784268
2	168	541.747207324612	49.34205690005
2	169	545.505399251191	48.38925006397
2	174	567.541432146499	60.082799455681
2	177	576.741977764971	56.205693729731
2	182	606.928472911737	69.603531818492
2	183	609.215716977668	67.638428566112
2	186	621.064698658041	73.762317384478
2	192	630.217228346912	72.83764334729
2	197	637.314377741005	66.3010570753
2	202	647.830331912872	66.355408742621
2	203	652.252305777111	52.984842786569
2	208	673.299278739879	54.335247835234
2	213	700.039957353163	77.180318541793
2	214	705.350198294088	69.915350018047
2	215	707.958356793476	71.049801408133
2	216	708.236053069644	63.095937759449
2	219	710.81493102379	63.851595191109
2	230	732.543372198193	64.68778619935
2	239	742.355444952618	74.091347185794
2	245	753.108657692915	75.659597180987
2	246	759.218889802997	64.811738874988
2	249	769.636035081989	61.154988369882
2	252	777.272766048266	64.073952267565
2	255	788.486643485192	72.957106693364
2	271	812.873274765827	78.026967241802
2	279	855.225715375896	111.86761529994
2	302	924.391223860631	164.67723535976
2	305	946.327874508048	170.12566215383
2	308	962.836027068613	184.95830003495
2	313	977.531502012806	182.9703806408
2	316	982.57442391335	176.25652638638
2	317	984.087153090068	174.7446384898
2	320	999.520617595917	163.38048014663
2	321	1001.5687541644	151.41995440529
2	322	1003.776486333246	145.43703544396
2	323	1007.132049770606	116.16540569327
2	328	1013.353756747586	83.345230585261
2	329	1015.721687720386	64.471439309541
2	330	1017.054089187712	52.606891083726
2	331	1024.870335985554	56.999254525378
2	334	1035.657297190095	54.952032276357
2	337	1042.248786390949	46.292185870756
2	344	1064.297372028086	54.26725457114
2	347	1078.808318725721	65.998262670753
2	350	1099.539405018734	67.752172862795
2	353	1112.705274167436	71.133737274306
2	354	1122.513078728613	77.422981175794
2	359	1138.746292320399	81.277605575046
2	360	1142.506678544545	81.946995314372
2	361	1150.857589220211	78.689614051062
2	362	1151.831521611459	59.709424012017
2	367	1181.196255058101	78.697560409148
2	374	1196.836285881257	71.618812398099
2	388	1221.125889731521	93.390928059602
2	391	1238.574585203685	85.335069487293
2	392	1258.600889974444	84.932736771068
2	397	1277.694920778109	91.68842982932
2	398	1287.518920207712	96.404343103494
2	401	1305.188432393633	110.97926167941
2	402	1306.077227679544	102.72052619105
2	403	1307.555438520399	97.929574636834
2	410	1325.251702626618	88.461855470278
2	411	1334.421644166043	66.907370722737
2	412	1334.820022957597	59.7813021533
2	419	1345.484233335654	49.542666290474
2	422	1348.673208820472	37.975095940174
2	423	1350.534461710055	37.597425617104
2	424	1351.145167891687	27.496817394179
2	427	1361.870700121931	25.3884555838
2	430	1374.373070530258	32.541098563787
2	435	1384.494910707809	41.867059126627
2	436	1385.530164229366	38.778247007574
2	437	1394.521195043489	38.441567810016
2	440	1414.413454759595	44.470549353116
2	447	1421.096327852517	46.254075094067
2	448	1426.864035074902	50.347021338076
2	449	1432.330421995772	29.107604566467
2	456	1443.467298273439	28.062832380473
2	463	1475.141887497966	56.241208641878
2	464	1476.528407146146	56.24297143845
2	465	1481.835083606759	44.742953786819
2	466	1489.45288383231	49.455193466526
2	469	1491.65375227947	51.276690529664
2	472	1503.426318188661	55.213840225321
2	473	1506.84600635339	39.405909608735
2	474	1510.636901097443	39.954074563869
2	475	1512.169813141012	22.547053063939
2	482	1525.497773320528	30.846174601959
2	485	1529.687662210469	15.845103944535
2	488	1536.439367444254	17.526102412021
2	489	1544.118632342571	20.504933090478
2	490	1549.438083887125	22.165551422981
2	493	1555.878333941825	21.030385196075
2	496	1565.004601750452	13.409643714671
2	501	1582.528843833177	24.94599328863
2	502	1598.868625667469	30.129318449316
2	505	1609.474499861223	28.302500183576
2	506	1609.659075641217	7.791768522067
2	509	1619.525346458797	6.177502558466
2	514	1636.416422508259	14.33951093978
2	515	1648.033739791878	20.283472629947
2	518	1650.653046255932	0
2	521	1654.382606660888	2.333520624333
2	528	1676.335899689831	13.727931897531
2	531	1682.285654719335	17.620253382884
2	534	1689.694869683043	18.176531989719
2	539	1734.667976366578	54.662214576332
2	540	1743.073696666196	56.659056200939
2	541	1746.270672980374	55.762443617115
2	546	1752.129087841798	50.130210343714
2	547	1765.918925453227	18.033771693472
2	554	1776.484542428229	27.958643696258
2	557	1780.442001052691	7.993946331579
2	558	1783.733210183306	9.19393094669
2	559	1789.641544210364	13.85995916442
2	562	1797.218642965208	17.323887240589
2	563	1797.483624442054	1.874487617409
2	572	1845.785858735036	0
2	575	1867.764108086055	0
2	578	1888.940790715807	0
2	587	1911.152739629551	0
2	590	1917.092883239394	2.191622289485
2	593	1923.427308818293	3.80191374673
2	600	1946.760243537432	18.266767893457
2	601	1947.771408424334	16.51735901179
2	602	1951.247344939469	17.360871241328
2	607	1970.599498407714	11.56459519935
2	610	1972.581490955517	5.9673484615
2	611	1975.975109834683	4.03251345732
2	618	1994.678468596912	9.343094907467
2	619	1995.951013916747	9.53055197427
2	622	2001.473163400284	7.095748506347
2	630	2009.122810373039	12.275566212824
2	635	2027.686780632993	25.844699192074
2	636	2028.982022946098	26.742356906079
2	641	2033.001520545849	13.873298635277
2	642	2033.197090096406	13.285205057572
2	643	2034.070364423634	4.21849928422
2	646	2044.139876133301	12.681504878337
2	654	2061.521386065459	25.991011859688
2	655	2068.569401251933	21.742618927431
2	656	2079.291793357239	27.716001998944
2	659	2096.335126326006	4.278805208887
2	662	2140.665728281816	0
2	668	2204.524661122888	0
2	673	2228.654061704055	21.976698418046
2	674	2231.740349787467	3.906458234413
2	677	2235.291826764849	2.771904836284
2	685	2262.123953124316	9.443646287348
2	686	2270.904011627351	14.705433881871
2	695	2363.400584750344	0
2	698	2370.553512431872	3.274364267653
2	701	2384.575439052227	0
2	706	2404.490953480994	12.995747998256
2	707	2407.417265919921	5.403509795179
2	712	2417.633268063567	9.777901273481
2	715	2419.220043847151	9.307960806343
2	716	2428.083665621392	9.527005289641
2	721	2439.136188950537	8.020696998963
2	724	2448.035246357236	13.602748168291
2	729	2466.299481067577	22.308369083952
2	732	2469.323770232298	19.727118079093
2	744	2487.901286345626	24.508808489826
3	111	351.581123359108	13
3	112	355.820888147181	14
3	124	402.970938085481	15
3	130	411.48750435387	16
3	149	489.820525002133	17
3	162	528.094497329947	18
3	163	533.527891116205	19
3	169	545.505399251191	20
3	183	609.215716977668	21
3	197	637.314377741005	22
3	202	647.830331912872	23
3	203	652.252305777111	24
3	208	673.299278739879	25
3	214	705.350198294088	26
3	215	707.958356793476	27
3	216	708.236053069644	28
3	246	759.218889802997	29
3	252	777.272766048266	30
3	316	982.57442391335	31
3	317	984.087153090068	32
3	321	1001.5687541644	33
3	322	1003.776486333246	34
3	323	1007.132049770606	35
3	329	1015.721687720386	36
3	330	1017.054089187712	37
3	331	1024.870335985554	38
3	347	1078.808318725721	39
3	353	1112.705274167436	40
3	354	1122.513078728613	41
3	359	1138.746292320399	42
3	360	1142.506678544545	43
3	361	1150.857589220211	44
3	362	1151.831521611459	45
3	367	1181.196255058101	46
3	392	1258.600889974444	47
3	398	1287.518920207712	48
3	401	1305.188432393633	49
3	402	1306.077227679544	50
3	403	1307.555438520399	51
3	410	1325.251702626618	52
3	411	1334.421644166043	53
3	412	1334.820022957597	54
3	422	1348.673208820472	55
3	423	1350.534461710055	56
3	424	1351.145167891687	57
3	436	1385.530164229366	58
3	437	1394.521195043489	59
3	440	1414.413454759595	60
3	448	1426.864035074902	61
3	449	1432.330421995772	62
3	456	1443.467298273439	63
3	463	1475.141887497966	64
3	464	1476.528407146146	65
3	465	1481.835083606759	66
3	466	1489.45288383231	67
3	469	1491.65375227947	68
3	472	1503.426318188661	69
3	473	1506.84600635339	70
3	474	1510.636901097443	71
3	475	1512.169813141012	72
3	489	1544.118632342571	73
3	490	1549.438083887125	74
3	502	1598.868625667469	75
3	506	1609.659075641217	76
3	515	1648.033739791878	77
3	516	1648.381427792498	78
3	539	1734.667976366578	79
3	540	1743.073696666196	80
3	541	1746.270672980374	81
3	547	1765.918925453227	82
3	554	1776.484542428229	83
3	558	1783.733210183306	84
3	559	1789.641544210364	85
3	563	1797.483624442054	86
3	564	1810.76893965031	87
3	573	1848.297747290355	88
3	576	1868.853622216971	89
3	579	1889.702737146393	90
3	590	1917.092883239394	91
3	593	1923.427308818293	92
3	601	1947.771408424334	93
3	602	1951.247344939469	94
3	607	1970.599498407714	95
3	611	1975.975109834683	96
3	619	1995.951013916747	97
3	635	2027.686780632993	98
3	636	2028.982022946098	99
3	642	2033.197090096406	100
3	643	2034.070364423634	101
3	655	2068.569401251933	102
3	656	2079.291793357239	103
3	660	2114.656832635728	104
3	663	2143.0435818838	105
3	673	2228.654061704055	106
3	674	2231.740349787467	107
3	677	2235.291826764849	108
3	678	2242.056166250224	109
3	686	2270.904011627351	110
3	687	2271.452402564595	111
3	699	2377.095943753041	112
3	707	2407.417265919921	113
3	715	2419.220043847151	114
3	716	2428.083665621392	115
3	724	2448.035246357236	116
3	732	2469.323770232298	117
4	111	351.581123359108	35.686661220667
4	112	355.820888147181	24.731914942828
4	124	402.970938085481	37.912595894424
4	130	411.48750435387	12.932592169089
4	149	489.820525002133	62.23752093653
4	162	528.094497329947	87.19366028055
4	163	533.527891116205	74.566964698142
4	169	545.505399251191	53.100248826629
4	183	609.215716977668	71.890775884423
4	197	637.314377741005	79.934792741383
4	202	647.830331912872	76.817011247167
4	203	652.252305777111	70.77738260686
4	208	673.299278739879	74.031815749337
4	214	705.350198294088	82.490559482718
4	215	707.958356793476	72.523508517435
4	216	708.236053069644	71.327497684301
4	246	759.218889802997	81.769829291069
4	252	777.272766048266	68.791719336159
4	316	982.57442391335	188.01330254134
4	317	984.087153090068	177.7692555631
4	321	1001.5687541644	165.42861671511
4	322	1003.776486333246	153.62768657414
4	323	1007.132049770606	148.79259888132
4	329	1015.721687720386	85.713161558061
4	330	1017.054089187712	65.803840776867
4	331	1024.870335985554	60.423137881568
4	347	1078.808318725721	68.778201268775
4	353	1112.705274167436	80.918042011497
4	354	1122.513078728613	80.941541835483
4	359	1138.746292320399	93.65619476758
4	360	1142.506678544545	85.037991799192
4	361	1150.857589220211	90.297905990038
4	362	1151.831521611459	79.66354644231
4	367	1181.196255058101	89.074157458659
4	392	1258.600889974444	105.36137425805
4	398	1287.518920207712	101.51242925892
4	401	1305.188432393633	114.07385528941
4	402	1306.077227679544	111.86805696532
4	403	1307.555438520399	104.1987370319
4	410	1325.251702626618	115.62583874305
4	411	1334.421644166043	97.631797009703
4	412	1334.820022957597	67.305749514291
4	422	1348.673208820472	52.731641775292
4	423	1350.534461710055	39.836348829757
4	424	1351.145167891687	38.208131798736
4	436	1385.530164229366	42.902312648184
4	437	1394.521195043489	47.769277821697
4	440	1414.413454759595	58.333827526122
4	448	1426.864035074902	52.021782316452
4	449	1432.330421995772	55.813408258946
4	456	1443.467298273439	40.244480844134
4	463	1475.141887497966	59.737421605
4	464	1476.528407146146	57.627728290058
4	465	1481.835083606759	61.549647899063
4	466	1489.45288383231	52.36075401237
4	469	1491.65375227947	51.656061913686
4	472	1503.426318188661	63.049256438855
4	473	1506.84600635339	58.63352839005
4	474	1510.636901097443	43.196804352788
4	475	1512.169813141012	41.486986607438
4	489	1544.118632342571	25.205367310338
4	490	1549.438083887125	25.824384635032
4	502	1598.868625667469	41.285775122922
4	506	1609.659075641217	28.48707596357
4	515	1648.033739791878	25.956828223399
4	516	1648.381427792498	20.631160630567
4	539	1734.667976366578	63.149638673254
4	540	1743.073696666196	63.06793487595
4	541	1746.270672980374	59.856032515117
4	547	1765.918925453227	63.920047955143
4	554	1776.484542428229	28.599388668474
4	558	1783.733210183306	11.285155462194
4	559	1789.641544210364	15.102264973748
4	563	1797.483624442054	17.588868717435
4	564	1810.76893965031	15.159802825665
4	573	1848.297747290355	2.511888555319
4	576	1868.853622216971	1.089514130916
4	579	1889.702737146393	0.761946430586
4	590	1917.092883239394	5.940143609843
4	593	1923.427308818293	8.526047868384
4	601	1947.771408424334	19.277932780359
4	602	1951.247344939469	19.993295526925
4	607	1970.599498407714	36.713024709573
4	611	1975.975109834683	9.360967340666
4	619	1995.951013916747	10.615640227302
4	635	2027.686780632993	30.839536472778
4	636	2028.982022946098	27.139941505179
4	642	2033.197090096406	14.068868185834
4	643	2034.070364423634	14.1584793848
4	655	2068.569401251933	33.039027046162
4	656	2079.291793357239	32.465011032737
4	660	2114.656832635728	22.600511518609
4	663	2143.0435818838	2.377853601984
4	673	2228.654061704055	24.129400581167
4	674	2231.740349787467	25.062986501458
4	677	2235.291826764849	7.457935211795
4	678	2242.056166250224	9.536244321659
4	686	2270.904011627351	18.223704790383
4	687	2271.452402564595	15.253824819115
4	699	2377.095943753041	9.816795588822
4	707	2407.417265919921	15.922060437183
4	715	2419.220043847151	11.364677057065
4	716	2428.083665621392	18.171582580584
4	724	2448.035246357236	16.919754405662
4	732	2469.323770232298	25.332658248673
5	114	365.058342191057	16
5	117	388.037052425803	17
5	126	404.73333087535	18
5	134	419.146910101711	19
5	139	436.823234710174	20
5	142	440.900837049397	21
5	147	466.342603331937	22
5	153	497.116149187221	23
5	167	541.577288411556	24
5	173	557.379584999622	25
5	176	571.013320665705	26
5	179	581.474923170251	27
5	185	618.964030904645	28
5	188	622.85963881137	29
5	212	694.407150928009	30
5	218	708.481046712107	31
5	223	715.529536791828	32
5	232	734.846307524025	33
5	241	743.358100075954	34
5	248	759.713988500873	35
5	254	777.877727033664	36
5	257	794.561121372008	37
5	273	836.140137449287	38
5	281	858.339450889291	39
5	304	930.008526162325	40
5	307	951.250248410845	41
5	310	964.447198103986	42
5	319	995.956600520193	43
5	325	1010.030117456946	44
5	333	1031.787232155939	45
5	336	1041.57153689313	46
5	343	1060.559683230173	47
5	349	1092.122097599442	48
5	369	1186.006490948789	49
5	376	1203.356701488495	50
5	390	1236.78984715634	51
5	396	1275.038720804297	52
5	416	1341.831971966471	53
5	426	1356.079627233473	54
5	429	1369.942905406479	55
5	432	1374.84225275845	56
5	444	1418.900678856088	57
5	479	1518.913265032233	58
5	484	1527.272532464144	59
5	487	1534.84794874575	60
5	492	1551.594958035781	61
5	495	1557.582850544547	62
5	498	1568.739307218153	63
5	504	1601.86730711915	64
5	508	1613.347843900331	65
5	511	1622.076911568479	66
5	520	1652.049086036555	67
5	525	1664.665401336451	68
5	530	1680.005761790246	69
5	533	1686.414640465257	70
5	543	1747.885153759755	71
5	556	1779.894755724619	72
5	561	1795.609136824645	73
5	599	1933.886473698141	74
5	609	1971.942596377363	75
5	615	1986.420461942477	76
5	621	1996.847244160215	77
5	624	2001.842081440919	78
5	638	2029.851865139414	79
5	645	2035.530374205771	80
5	648	2046.826782324502	81
5	658	2092.056321117119	82
5	697	2367.279148164219	83
5	703	2391.495205482738	84
5	711	2409.912083040808	85
5	720	2434.432498188945	86
5	728	2463.3924778558	87
5	736	2476.510344138141	88
6	114	365.058342191057	0
6	117	388.037052425803	0
6	120	392.262403039258	1.334545131082
6	126	404.73333087535	0
6	134	419.146910101711	0
6	139	436.823234710174	0
6	142	440.900837049397	0
6	147	466.342603331937	0
6	153	497.116149187221	0
6	156	503.372082464823	0.274382676673
6	167	541.577288411556	0
6	173	557.379584999622	0
6	176	571.013320665705	0
6	179	581.474923170251	0
6	185	618.964030904645	0
6	188	622.85963881137	0
6	191	626.463013325798	1.943448004308
6	212	694.407150928009	0
6	218	708.481046712107	0
6	223	715.529536791828	0
6	226	718.090158415277	1.210317270363
6	229	726.35965658663	2.68995258523
6	232	734.846307524025	0
6	235	738.910710822221	1.594064676291
6	238	741.161024858367	1.814110838619
6	241	743.358100075954	0
6	244	747.601850396912	1.523690648428
6	248	759.713988500873	0
6	254	777.877727033664	0
6	257	794.561121372008	0
6	264	806.470870468191	6.785770827212
6	267	809.031521403671	4.330083566203
6	270	811.116452405309	4.152857038044
6	273	836.140137449287	0
6	278	851.788883151634	10.671665532236
6	281	858.339450889291	0
6	284	867.210871995243	0.261107135134
6	289	886.495065685076	15.871090860019
6	290	886.640875313158	3.402652381803
6	299	912.747452059853	20.348633268987
6	300	913.825365103102	16.920047060883
6	301	921.636749853191	12.083857326277
6	304	930.008526162325	0
6	307	951.250248410845	0
6	310	964.447198103986	0
6	319	995.956600520193	0
6	325	1010.030117456946	0
6	333	1031.787232155939	0
6	336	1041.57153689313	0
6	343	1060.559683230173	0
6	349	1092.122097599442	0
6	369	1186.006490948789	0
6	376	1203.356701488495	0
6	379	1209.069297881089	3.16763464489
6	386	1217.82102166675	8.377487022143
6	387	1220.962166938075	8.301995099248
6	390	1236.78984715634	0
6	396	1275.038720804297	0
6	416	1341.831971966471	0
6	426	1356.079627233473	0
6	429	1369.942905406479	0
6	432	1374.84225275845	0
6	444	1418.900678856088	0
6	479	1518.913265032233	0
6	484	1527.272532464144	0
6	487	1534.84794874575	0
6	492	1551.594958035781	0
6	495	1557.582850544547	0
6	498	1568.739307218153	0
6	504	1601.86730711915	0
6	508	1613.347843900331	0
6	511	1622.076911568479	0
6	520	1652.049086036555	0
6	525	1664.665401336451	0
6	530	1680.005761790246	0
6	533	1686.414640465257	0
6	543	1747.885153759755	0
6	556	1779.894755724619	0
6	561	1795.609136824645	0
6	566	1829.264198008331	0
6	569	1839.270905499815	8.293481626062
6	581	1890.142463571974	0
6	584	1899.267394109141	0
6	599	1933.886473698141	0
6	609	1971.942596377363	0
6	615	1986.420461942477	0
6	621	1996.847244160215	0
6	624	2001.842081440919	0
6	629	2005.974957729859	3.581292287243
6	638	2029.851865139414	0
6	645	2035.530374205771	0
6	648	2046.826782324502	0
6	653	2051.907843526658	3.690964688117
6	658	2092.056321117119	0
6	665	2193.888924218505	0
6	680	2250.55891489116	0
6	689	2321.080740139735	0
6	692	2335.064538159043	0
6	697	2367.279148164219	0
6	703	2391.495205482738	0
6	711	2409.912083040808	0
6	720	2434.432498188945	0
6	728	2463.3924778558	0
6	736	2476.510344138141	0
6	741	2481.947865922792	1.729585476309
7	745	2500	0.0468
8	745	2500	0.0508

