version 2
run factors_calibration_minions-227-20230319-11:55:44-8286
attr configname factors_calibration_minions
attr datetime 20230319-11:55:44
attr experiment factors_calibration_minions
attr inifile omnetpp.ini
attr iterationvars $0=15
attr iterationvarsf 15-
attr measurement $0=15
attr network Network
attr processid 8286
attr repetition 17
attr replication #17
attr resultdir results
attr runnumber 227
attr seedset 17
param *.minion.arrival_mean 20
param *.minion.service_mean 15
param *.boss.arrival_mean 20
param *.boss.service_mean 7
param *.player.recover_rate_x 100
param **.minion.arrival_distribution 0
param **.minion.service_distribution 0
param **.boss.arrival_distribution 0
param **.boss.service_distribution 0

vector 0 Network.player boss_defeated_stat:vector ETV
attr source signal_boss_defeated
vector 1 Network.player boss_response_time_stat:vector ETV
attr source signal_boss_response_time
vector 2 Network.player boss_waiting_time_stat:vector ETV
attr source signal_boss_waiting_time
vector 3 Network.player minion_waiting_time_stat:vector ETV
attr source signal_minion_waiting_time
vector 4 Network.player minion_recovered_stat:vector ETV
attr source signal_minion_recovered
vector 5 Network.player minion_defeated_stat:vector ETV
attr source signal_minion_defeated
vector 6 Network.player minion_response_time_stat:vector ETV
attr source signal_minion_response_time
vector 7 Network.player minion_throughput:vector ETV
attr source signal_minion_throughput
vector 8 Network.player boss_throughput:vector ETV
attr source signal_boss_throughput
0	117	352.42918485504	17
0	118	354.852387875355	18
0	119	356.715901566875	19
0	126	373.792816895814	20
0	127	376.517352961397	21
0	130	381.574598105539	22
0	133	390.402253370071	23
0	134	390.774904657723	24
0	135	391.534492804942	25
0	138	402.210371515389	26
0	147	414.996594194781	27
0	152	434.633495691554	28
0	153	435.65891161314	29
0	154	446.519922794743	30
0	157	462.841088755635	31
0	161	469.037318171489	32
0	165	474.520780189093	33
0	169	490.253641201524	34
0	176	512.800950206638	35
0	182	523.040325683151	36
0	190	551.844893440903	37
0	195	559.627597981661	38
0	196	563.61289266128	39
0	202	578.681675845515	40
0	207	585.345877422772	41
0	210	589.340693991845	42
0	218	646.378293053179	43
0	219	649.331174104669	44
0	238	736.469515278467	45
0	247	770.652245674869	46
0	262	813.031769987966	47
0	282	892.588373542223	48
0	283	906.32278242816	49
0	284	918.996771588755	50
0	291	937.281813033594	51
0	292	937.806372729796	52
0	293	938.07393916767	53
0	294	939.749658524771	54
0	299	958.253493975273	55
0	315	1008.90175335707	56
0	316	1011.787508212368	57
0	322	1034.180785259319	58
0	323	1041.086062545713	59
0	327	1057.448935773852	60
0	336	1065.762043858283	61
0	339	1091.467514160572	62
0	342	1093.265523678052	63
0	343	1094.059710948324	64
0	353	1207.899719487224	65
0	356	1217.087562222307	66
0	367	1256.205257832154	67
0	377	1283.441683191312	68
0	391	1327.816995605918	69
0	392	1333.774987330173	70
0	395	1336.180608013204	71
0	396	1336.805790971205	72
0	399	1340.679550337228	73
0	409	1350.773021802074	74
0	410	1352.204266482912	75
0	411	1352.253640468724	76
0	414	1355.477866739847	77
0	422	1369.826096427796	78
0	425	1377.517041950187	79
0	430	1395.93037726704	80
0	438	1459.061002548659	81
0	441	1467.252336754517	82
0	448	1483.203606090854	83
0	464	1535.876091916759	84
0	465	1538.471460697433	85
0	473	1563.456793222134	86
0	476	1571.768838057235	87
0	479	1582.797804624467	88
0	496	1643.752730344855	89
0	497	1648.183378776825	90
0	498	1653.465042903798	91
0	499	1657.642073174195	92
0	503	1676.514427258874	93
0	506	1684.603040568596	94
0	511	1690.435280404929	95
0	516	1691.504776816729	96
0	517	1701.8451306096	97
0	518	1703.085413504167	98
0	524	1726.800684761132	99
0	532	1753.586089076418	100
0	538	1766.252141396065	101
0	548	1802.251019727868	102
0	553	1811.477898710267	103
0	567	1863.744751115359	104
0	576	1875.022187348812	105
0	579	1877.839091821627	106
0	583	1890.497084654316	107
0	586	1893.229049258121	108
0	597	1909.339719533344	109
0	598	1909.835102164456	110
0	601	1915.432556254644	111
0	602	1920.63718086206	112
0	603	1921.215373379006	113
0	609	1931.498317545448	114
0	614	1945.678224774417	115
0	624	1976.030923003605	116
0	632	2007.152351011106	117
0	642	2071.410223150773	118
0	654	2122.354472699264	119
0	659	2132.049555872398	120
0	660	2134.220217076936	121
0	661	2137.15094221361	122
0	666	2156.356388258299	123
0	679	2184.620196943336	124
0	683	2190.819028057314	125
0	699	2211.487650748762	126
0	710	2250.124072818802	127
0	715	2268.805706498484	128
0	720	2289.091535611229	129
0	727	2305.018943597468	130
0	745	2395.763015271764	131
0	746	2395.771309575194	132
0	756	2449.443689646393	133
0	757	2452.866677947307	134
0	758	2453.783341430192	135
0	761	2468.650933805032	136
0	764	2477.046395137934	137
0	767	2493.103311790017	138
1	117	352.42918485504	31.013828899473
1	118	354.852387875355	30.719899013275
1	119	356.715901566875	20.533229434843
1	126	373.792816895814	32.645875140359
1	127	376.517352961397	26.345841750004
1	130	381.574598105539	22.397595784718
1	133	390.402253370071	25.141305933201
1	134	390.774904657723	22.676714895688
1	135	391.534492804942	5.539436869083
1	138	402.210371515389	1.050991369888
1	147	414.996594194781	6.415622181689
1	152	434.633495691554	22.650461788004
1	153	435.65891161314	22.782108309113
1	154	446.519922794743	24.373850079455
1	157	462.841088755635	16.066061560744
1	161	469.037318171489	0.587174075769
1	165	474.520780189093	1.976608159672
1	169	490.253641201524	3.177464988803
1	176	512.800950206638	21.492686375702
1	182	523.040325683151	8.61988062927
1	190	551.844893440903	10.867782957579
1	195	559.627597981661	7.807915998089
1	196	563.61289266128	9.100943774777
1	202	578.681675845515	2.7292502332
1	207	585.345877422772	2.057080020997
1	210	589.340693991845	0.622593630262
1	218	646.378293053179	3.252367676322
1	219	649.331174104669	3.744177482804
1	238	736.469515278467	5.898145069171
1	247	770.652245674869	36.302072604215
1	262	813.031769987966	2.373429937549
1	282	892.588373542223	7.68064629436
1	283	906.32278242816	18.601580715449
1	284	918.996771588755	30.582248702607
1	291	937.281813033594	48.769181086019
1	292	937.806372729796	47.191624132092
1	293	938.07393916767	16.436619603261
1	294	939.749658524771	6.698847883707
1	299	958.253493975273	2.74178780059
1	315	1008.90175335707	14.011255499373
1	316	1011.787508212368	8.455806365143
1	322	1034.180785259319	9.468003873569
1	323	1041.086062545713	8.022221629981
1	327	1057.448935773852	5.638396612866
1	336	1065.762043858283	0.549386651918
1	339	1091.467514160572	25.712784497243
1	342	1093.265523678052	12.449195465608
1	343	1094.059710948324	0.969497944345
1	353	1207.899719487224	17.741923240889
1	356	1217.087562222307	22.069555354881
1	367	1256.205257832154	2.048174499887
1	377	1283.441683191312	2.55967267312
1	391	1327.816995605918	14.665091716116
1	392	1333.774987330173	12.330591738916
1	395	1336.180608013204	10.594711066923
1	396	1336.805790971205	1.383692955419
1	399	1340.679550337228	1.886378551524
1	409	1350.773021802074	6.827323747398
1	410	1352.204266482912	7.598618202355
1	411	1352.253640468724	4.016456860554
1	414	1355.477866739847	1.033143354621
1	422	1369.826096427796	6.044020425376
1	425	1377.517041950187	4.619266608132
1	430	1395.93037726704	15.190233141127
1	438	1459.061002548659	9.183309692708
1	441	1467.252336754517	3.391942850529
1	448	1483.203606090854	10.235140861
1	464	1535.876091916759	16.677895295125
1	465	1538.471460697433	6.044631992293
1	473	1563.456793222134	13.291380322181
1	476	1571.768838057235	17.185568732856
1	479	1582.797804624467	9.295263452389
1	496	1643.752730344855	20.96304390609
1	497	1648.183378776825	22.103926761513
1	498	1653.465042903798	22.580180209471
1	499	1657.642073174195	22.115827781598
1	503	1676.514427258874	3.805537749475
1	506	1684.603040568596	1.063945954576
1	511	1690.435280404929	5.824333809022
1	516	1691.504776816729	6.180474433757
1	517	1701.8451306096	11.238039922531
1	518	1703.085413504167	12.368756784703
1	524	1726.800684761132	3.999600503153
1	532	1753.586089076418	1.020419301297
1	538	1766.252141396065	8.703558535991
1	548	1802.251019727868	6.305182943014
1	553	1811.477898710267	8.402778864552
1	567	1863.744751115359	0.712843993311
1	576	1875.022187348812	1.21479028122
1	579	1877.839091821627	1.070187504042
1	583	1890.497084654316	0.097105125126
1	586	1893.229049258121	1.599671912591
1	597	1909.339719533344	13.625181589228
1	598	1909.835102164456	5.17829829097
1	601	1915.432556254644	7.691194397356
1	602	1920.63718086206	12.866635620066
1	603	1921.215373379006	11.137284173385
1	609	1931.498317545448	2.869525390212
1	614	1945.678224774417	5.412041560198
1	624	1976.030923003605	6.353544882907
1	632	2007.152351011106	2.043293176845
1	642	2071.410223150773	33.694174473694
1	654	2122.354472699264	25.991329725665
1	659	2132.049555872398	28.643250897358
1	660	2134.220217076936	15.512863084416
1	661	2137.15094221361	6.731408790832
1	666	2156.356388258299	6.65675910552
1	679	2184.620196943336	4.213450808983
1	683	2190.819028057314	1.762245466573
1	699	2211.487650748762	2.669704143917
1	710	2250.124072818802	1.116610288715
1	715	2268.805706498484	1.265221428791
1	720	2289.091535611229	4.177424303093
1	727	2305.018943597468	2.002843344858
1	745	2395.763015271764	24.947125841295
1	746	2395.771309575194	9.355544229198
1	756	2449.443689646393	23.385985626402
1	757	2452.866677947307	25.96472252907
1	758	2453.783341430192	17.62627754123
1	761	2468.650933805032	1.526967238885
1	764	2477.046395137934	3.178528910696
1	767	2493.103311790017	3.376591161958
2	117	352.42918485504	28.29669599296
2	118	354.852387875355	18.669715743323
2	119	356.715901566875	15.56895981142
2	126	373.792816895814	23.621305684421
2	127	376.517352961397	17.340350640576
2	130	381.574598105539	16.313650668669
2	133	390.402253370071	22.304063608036
2	134	390.774904657723	4.779848721864
2	137	401.159380145501	0
2	140	408.580972013092	0
2	147	414.996594194781	3.013560291231
2	152	434.633495691554	21.756692387527
2	153	435.65891161314	13.512838897852
2	156	446.775027194891	0
2	160	468.45014409572	0
2	164	472.544172029421	0
2	168	487.076176212721	0
2	171	491.308263830936	0
2	179	514.420445053881	0
2	185	540.977110483324	0
2	190	551.844893440903	0.025211457331
2	195	559.627597981661	5.115649095158
2	201	575.952425612315	0
2	206	583.288797401775	0
2	209	588.718100361583	0
2	215	643.125925376857	0
2	218	646.378293053179	0.791296431314
2	235	730.571370209296	0
2	238	736.469515278467	2.119342207813
2	261	810.658340050417	0
2	273	884.907727247863	0
2	282	892.588373542223	4.867171829512
2	283	906.32278242816	17.908259542012
2	284	918.996771588755	30.48413964118
2	291	937.281813033594	46.66706443589
2	292	937.806372729796	16.169053165387
2	293	938.07393916767	5.023128526606
2	298	955.511706174683	0
2	308	994.890497857697	0
2	315	1008.90175335707	5.570051509845
2	319	1024.71278138575	0
2	322	1034.180785259319	1.116944343587
2	326	1051.810539160986	0
2	333	1065.212657206365	0
2	336	1065.762043858283	0.007314194954
2	339	1091.467514160572	10.651185948128
2	342	1093.265523678052	0.175310674073
2	350	1190.157796246335	0
2	353	1207.899719487224	12.881712619798
2	366	1254.157083332267	0
2	374	1280.882010518192	0
2	384	1313.151903889802	0
2	391	1327.816995605918	6.372600014661
2	392	1333.774987330173	8.189090383892
2	395	1336.180608013204	0.758509997418
2	398	1338.793171785704	0
2	404	1343.945698054676	0
2	409	1350.773021802074	6.167373521517
2	410	1352.204266482912	3.967082874742
2	413	1354.444723385226	0
2	421	1363.78207600242	0
2	424	1372.897775342055	0
2	427	1380.740144125913	0
2	437	1449.877692855951	0
2	440	1463.860393903988	0
2	443	1472.968465229854	0
2	459	1519.198196621634	0
2	464	1535.876091916759	3.449263211619
2	470	1550.165412899953	0
2	473	1563.456793222134	8.873523897755
2	478	1573.502541172078	0
2	487	1622.789686438765	0
2	496	1643.752730344855	17.673278329543
2	497	1648.183378776825	17.298516082498
2	498	1653.465042903798	17.938797511201
2	502	1672.708889509399	0
2	505	1683.53909461402	0
2	508	1684.610946595907	0
2	511	1690.435280404929	5.110978021957
2	516	1691.504776816729	0.89768612966
2	517	1701.8451306096	11.128473890136
2	523	1722.801084257979	0
2	529	1752.565669775121	0
2	535	1757.548582860074	0
2	547	1795.945836784854	0
2	550	1803.075119845715	0
2	566	1863.031907122048	0
2	575	1873.807397067592	0
2	578	1876.768904317585	0
2	582	1890.39997952919	0
2	585	1891.62937734553	0
2	590	1895.714537944116	0
2	597	1909.339719533344	4.682915659858
2	598	1909.835102164456	2.093740307168
2	601	1915.432556254644	7.66201101265
2	602	1920.63718086206	10.559091656439
2	606	1928.628792155236	0
2	613	1940.266183214219	0
2	621	1969.677378120698	0
2	631	2005.109057834261	0
2	641	2037.716048677079	0
2	647	2096.363142973599	0
2	654	2122.354472699264	18.948167724224
2	659	2132.049555872398	13.342201879878
2	660	2134.220217076936	3.800683654158
2	665	2149.699629152779	0
2	676	2180.406746134353	0
2	682	2189.056782590741	0
2	696	2208.817946604845	0
2	709	2249.007462530087	0
2	714	2267.540485069693	0
2	719	2284.914111308136	0
2	726	2303.01610025261	0
2	740	2370.815889430469	0
2	745	2395.763015271764	9.347249925768
2	751	2426.057704019991	0
2	756	2449.443689646393	22.541734228156
2	757	2452.866677947307	16.709614058345
2	760	2467.123966566147	0
2	763	2473.867866227238	0
2	766	2489.726720628059	0
3	135	391.534492804942	126.1824935812
3	138	402.210371515389	123.97682694935
3	154	446.519922794743	158.60776688612
3	157	462.841088755635	164.87594190002
3	158	465.801519612921	140.95969892675
3	161	469.037318171489	88.454127897905
3	162	469.33098008727	68.171599941769
3	165	474.520780189093	65.939808176001
3	166	485.356772177977	72.588924588938
3	169	490.253641201524	67.908710050039
3	176	512.800950206638	66.025923011747
3	177	514.234140012089	45.783995916369
3	182	523.040325683151	50.49615365373
3	183	535.024117069954	47.947940857233
3	196	563.61289266128	72.304628830344
3	197	564.021438448449	69.568605821073
3	198	565.213196967234	64.324379088783
3	199	568.489793080202	54.069348026321
3	202	578.681675845515	62.431717961848
3	207	585.345877422772	44.368766939448
3	210	589.340693991845	44.241149067098
3	211	625.132818887104	65.878905163152
3	219	649.331174104669	73.378748492354
3	222	665.905560970766	84.965367669013
3	225	682.030490581146	98.741693179371
3	226	684.06255785701	95.344457495427
3	227	705.13556067853	62.248545024943
3	228	711.109050776602	67.983125399745
3	229	715.398596204308	65.678096541384
3	230	716.995450793629	37.379822444003
3	233	726.522742942518	3.347114008618
3	247	770.652245674869	40.080875465573
3	254	795.351152488833	54.316427253707
3	255	798.347790388067	36.047151603509
3	262	813.031769987966	47.031556456723
3	265	818.894209941811	48.482746222637
3	268	843.712040845539	69.248693191628
3	269	852.814000465357	69.878710424059
3	270	871.233004679174	87.652349363668
3	271	882.546556061776	82.066006708852
3	294	939.749658524771	134.05159453942
3	295	944.951175822307	134.29283577189
3	296	948.182979020975	131.62790164826
3	299	958.253493975273	126.60173586188
3	302	963.118169358169	78.210442110306
3	303	971.9788513266	35.972153989689
3	304	972.922020119916	17.410313945233
3	305	977.018238344826	17.463913344226
3	316	1011.787508212368	16.501442470178
3	317	1023.990076343063	21.855129497948
3	323	1041.086062545713	16.373281159963
3	329	1059.440681461371	0
3	343	1094.059710948324	32.730623457531
3	344	1111.023119564136	45.810462357771
3	347	1129.261723358348	0
3	356	1217.087562222307	2.967247829857
3	359	1225.580853430281	7.946653425841
3	362	1247.305363068066	0
3	367	1256.205257832154	3.668827009646
3	368	1256.671015417589	2.513932085322
3	371	1268.452679027937	0
3	377	1283.441683191312	0.902161675423
3	382	1302.602589555731	16.617306529544
3	396	1336.805790971205	38.303270442135
3	399	1340.679550337228	27.527646447426
3	402	1341.173559958747	14.909678522051
3	411	1352.253640468724	13.46046868302
3	414	1355.477866739847	14.730657484569
3	417	1361.600820553557	17.655122498881
3	422	1369.826096427796	15.38137304257
3	425	1377.517041950187	21.893879357287
3	430	1395.93037726704	33.280081570739
3	433	1412.849801543158	49.067725540738
3	438	1459.061002548659	86.163227206604
3	441	1467.252336754517	86.512192628604
3	448	1483.203606090854	87.77569636828
3	453	1500.315579315048	88.974400857706
3	454	1502.361841723026	65.805176651045
3	455	1509.804215797078	59.926522941127
3	465	1538.471460697433	74.611066793445
3	468	1543.586986503675	70.618521273821
3	476	1571.768838057235	93.027253461278
3	479	1582.797804624467	103.73577856033
3	480	1584.656718574728	100.88509198629
3	485	1604.739449263227	106.57040160857
3	499	1657.642073174195	146.22747099373
3	500	1660.554024119572	141.35582749794
3	503	1676.514427258874	142.73968382775
3	506	1684.603040568596	141.18317521604
3	518	1703.085413504167	152.92000060421
3	519	1704.475030844133	137.98061292614
3	520	1713.608032263073	140.105491091
3	521	1716.937630044279	129.81039696438
3	524	1726.800684761132	126.35074347278
3	525	1732.85162563532	110.06193919656
3	526	1733.594117655747	103.62212585231
3	527	1736.194605637536	63.485716128137
3	532	1753.586089076418	70.046994462398
3	533	1755.429721834474	70.818775238567
3	538	1766.252141396065	43.451057138086
3	541	1771.709308534968	19.143638759847
3	548	1802.251019727868	48.77689652413
3	553	1811.477898710267	53.929315850193
3	556	1820.710882255601	60.184179855153
3	557	1821.274487006256	51.84436571286
3	558	1830.453987848338	44.337996406962
3	559	1830.624178861202	35.381047194357
3	564	1855.206632108368	59.260795323514
3	567	1863.744751115359	60.669631269644
3	568	1864.760662432864	55.386127072001
3	573	1873.589609269982	61.293230385737
3	576	1875.022187348812	36.09933780243
3	579	1877.839091821627	30.901242809951
3	580	1887.222218529209	24.190311407161
3	583	1890.497084654316	23.753013860798
3	586	1893.229049258121	22.750788156053
3	603	1921.215373379006	47.407976311414
3	604	1924.426612170732	47.657707853147
3	609	1931.498317545448	41.098338016258
3	614	1945.678224774417	54.048847428887
3	617	1958.226665738983	63.504310806948
3	624	1976.030923003605	80.316385059489
3	625	1977.264745733503	48.635953578267
3	628	1995.647814987115	64.22102518311
3	629	1996.831542142541	58.542939151594
3	632	2007.152351011106	66.886167796887
3	635	2008.96392814331	52.071393319089
3	636	2009.451585618013	50.869685943026
3	637	2010.384767186798	40.7073890661
3	642	2071.410223150773	100.67572588685
3	643	2073.891403007271	90.058644002007
3	644	2084.236130500698	79.127072666437
3	645	2095.205047854803	87.132429069822
3	661	2137.15094221361	122.52435250384
3	666	2156.356388258299	118.64033958122
3	679	2184.620196943336	88.257053969737
3	680	2188.777077274531	78.270631601316
3	683	2190.819028057314	62.153234610965
3	684	2200.7189957819	51.801527457769
3	699	2211.487650748762	61.788021595983
3	700	2213.21120079378	43.741019266007
3	701	2216.717829694491	46.877808466056
3	704	2228.583395364788	57.895041911641
3	705	2229.554021094467	55.859415936862
3	710	2250.124072818802	69.717326684449
3	715	2268.805706498484	86.819161428418
3	716	2275.966959646019	86.910177055278
3	717	2276.972879827458	74.254642052841
3	720	2289.091535611229	83.637792230849
3	721	2292.441955213686	86.894235911964
3	724	2299.882247270654	94.264841135328
3	727	2305.018943597468	97.901558443472
3	728	2312.159745433424	103.34179882858
3	731	2349.789060031759	138.79200474468
3	738	2366.120000344376	138.3228480605
3	746	2395.771309575194	159.3349637704
3	749	2409.901882076099	160.89441954601
3	758	2453.783341430192	195.21085455818
3	761	2468.650933805032	201.11044873534
3	764	2477.046395137934	192.1322838298
3	767	2493.103311790017	194.44197676527
4	137	401.159380145501	11
4	140	408.580972013092	12
4	156	446.775027194891	13
4	160	468.45014409572	14
4	164	472.544172029421	15
4	168	487.076176212721	16
4	171	491.308263830936	17
4	179	514.420445053881	18
4	185	540.977110483324	19
4	201	575.952425612315	20
4	206	583.288797401775	21
4	209	588.718100361583	22
4	215	643.125925376857	23
4	235	730.571370209296	24
4	261	810.658340050417	25
4	273	884.907727247863	26
4	298	955.511706174683	27
4	319	1024.71278138575	28
4	333	1065.212657206365	29
4	366	1254.157083332267	30
4	384	1313.151903889802	31
4	398	1338.793171785704	32
4	404	1343.945698054676	33
4	413	1354.444723385226	34
4	421	1363.78207600242	35
4	424	1372.897775342055	36
4	427	1380.740144125913	37
4	437	1449.877692855951	38
4	440	1463.860393903988	39
4	443	1472.968465229854	40
4	459	1519.198196621634	41
4	470	1550.165412899953	42
4	478	1573.502541172078	43
4	487	1622.789686438765	44
4	502	1672.708889509399	45
4	505	1683.53909461402	46
4	508	1684.610946595907	47
4	523	1722.801084257979	48
4	529	1752.565669775121	49
4	535	1757.548582860074	50
4	547	1795.945836784854	51
4	550	1803.075119845715	52
4	566	1863.031907122048	53
4	575	1873.807397067592	54
4	578	1876.768904317585	55
4	582	1890.39997952919	56
4	585	1891.62937734553	57
4	590	1895.714537944116	58
4	606	1928.628792155236	59
4	613	1940.266183214219	60
4	621	1969.677378120698	61
4	631	2005.109057834261	62
4	641	2037.716048677079	63
4	647	2096.363142973599	64
4	665	2149.699629152779	65
4	676	2180.406746134353	66
4	682	2189.056782590741	67
4	696	2208.817946604845	68
4	709	2249.007462530087	69
4	714	2267.540485069693	70
4	719	2284.914111308136	71
4	726	2303.01610025261	72
4	740	2370.815889430469	73
4	751	2426.057704019991	74
4	760	2467.123966566147	75
4	763	2473.867866227238	76
4	766	2489.726720628059	77
5	158	465.801519612921	17
5	162	469.33098008727	18
5	166	485.356772177977	19
5	177	514.234140012089	20
5	183	535.024117069954	21
5	197	564.021438448449	22
5	198	565.213196967234	23
5	199	568.489793080202	24
5	211	625.132818887104	25
5	222	665.905560970766	26
5	225	682.030490581146	27
5	226	684.06255785701	28
5	227	705.13556067853	29
5	228	711.109050776602	30
5	229	715.398596204308	31
5	230	716.995450793629	32
5	233	726.522742942518	33
5	254	795.351152488833	34
5	255	798.347790388067	35
5	265	818.894209941811	36
5	268	843.712040845539	37
5	269	852.814000465357	38
5	270	871.233004679174	39
5	271	882.546556061776	40
5	295	944.951175822307	41
5	296	948.182979020975	42
5	302	963.118169358169	43
5	303	971.9788513266	44
5	304	972.922020119916	45
5	305	977.018238344826	46
5	306	994.023426682489	47
5	317	1023.990076343063	48
5	324	1044.943094546196	49
5	344	1111.023119564136	50
5	345	1113.432576046024	51
5	348	1129.279640898349	52
5	359	1225.580853430281	53
5	360	1238.032031913884	54
5	368	1256.671015417589	55
5	369	1257.647185883704	56
5	372	1274.58227072368	57
5	382	1302.602589555731	58
5	402	1341.173559958747	59
5	417	1361.600820553557	60
5	433	1412.849801543158	61
5	453	1500.315579315048	62
5	454	1502.361841723026	63
5	455	1509.804215797078	64
5	468	1543.586986503675	65
5	480	1584.656718574728	66
5	485	1604.739449263227	67
5	500	1660.554024119572	68
5	519	1704.475030844133	69
5	520	1713.608032263073	70
5	521	1716.937630044279	71
5	525	1732.85162563532	72
5	526	1733.594117655747	73
5	527	1736.194605637536	74
5	533	1755.429721834474	75
5	541	1771.709308534968	76
5	556	1820.710882255601	77
5	557	1821.274487006256	78
5	558	1830.453987848338	79
5	559	1830.624178861202	80
5	564	1855.206632108368	81
5	568	1864.760662432864	82
5	573	1873.589609269982	83
5	580	1887.222218529209	84
5	604	1924.426612170732	85
5	617	1958.226665738983	86
5	625	1977.264745733503	87
5	628	1995.647814987115	88
5	629	1996.831542142541	89
5	635	2008.96392814331	90
5	636	2009.451585618013	91
5	637	2010.384767186798	92
5	643	2073.891403007271	93
5	644	2084.236130500698	94
5	645	2095.205047854803	95
5	680	2188.777077274531	96
5	684	2200.7189957819	97
5	700	2213.21120079378	98
5	701	2216.717829694491	99
5	704	2228.583395364788	100
5	705	2229.554021094467	101
5	716	2275.966959646019	102
5	717	2276.972879827458	103
5	721	2292.441955213686	104
5	724	2299.882247270654	105
5	728	2312.159745433424	106
5	731	2349.789060031759	107
5	738	2366.120000344376	108
5	749	2409.901882076099	109
6	158	465.801519612921	167.83637275731
6	162	469.33098008727	88.747789813686
6	166	485.356772177977	76.775800164885
6	177	514.234140012089	67.459112817198
6	183	535.024117069954	62.479945040533
6	197	564.021438448449	72.713174617513
6	198	565.213196967234	70.760364339858
6	199	568.489793080202	67.600975201751
6	211	625.132818887104	80.033273962357
6	222	665.905560970766	89.953135358451
6	225	682.030490581146	101.09029727939
6	226	684.06255785701	100.77376045523
6	227	705.13556067853	116.41746031695
6	228	711.109050776602	68.222035123015
6	229	715.398596204308	72.272670827451
6	230	716.995450793629	67.274951130705
6	233	726.522742942518	46.907114592892
6	254	795.351152488833	64.779782279537
6	255	798.347790388067	57.313065152941
6	265	818.894209941811	52.893996410568
6	268	843.712040845539	73.300577126365
6	269	852.814000465357	78.350652811446
6	270	871.233004679174	88.297714637876
6	271	882.546556061776	98.96590074627
6	295	944.951175822307	139.25311183696
6	296	948.182979020975	137.52463897056
6	302	963.118169358169	131.46641124478
6	303	971.9788513266	87.071124078737
6	304	972.922020119916	36.915322783005
6	305	977.018238344826	21.506532170143
6	306	994.023426682489	34.469101681889
6	317	1023.990076343063	28.704010600873
6	324	1044.943094546196	20.230313160446
6	344	1111.023119564136	49.694032073343
6	345	1113.432576046024	48.219918839659
6	348	1129.279640898349	0.017917540001
6	359	1225.580853430281	11.460539037831
6	360	1238.032031913884	20.397831909444
6	368	1256.671015417589	4.134584595081
6	369	1257.647185883704	3.490102551437
6	372	1274.58227072368	6.129591695743
6	382	1302.602589555731	20.063068039842
6	402	1341.173559958747	28.021656068945
6	417	1361.600820553557	20.853611298279
6	433	1412.849801543158	50.199505846857
6	453	1500.315579315048	104.88766959247
6	454	1502.361841723026	91.020663265684
6	455	1509.804215797078	73.247550725097
6	468	1543.586986503675	79.726592599687
6	480	1584.656718574728	105.59469251059
6	485	1604.739449263227	120.96782267479
6	500	1660.554024119572	149.13942193911
6	519	1704.475030844133	154.30961794418
6	520	1713.608032263073	147.11361434508
6	521	1716.937630044279	143.4350888722
6	525	1732.85162563532	132.40168434697
6	526	1733.594117655747	110.80443121698
6	527	1736.194605637536	106.2226138341
6	533	1755.429721834474	71.890627220454
6	541	1771.709308534968	48.908224276989
6	556	1820.710882255601	63.162299395527
6	557	1821.274487006256	60.747784605808
6	558	1830.453987848338	61.023866554942
6	559	1830.624178861202	44.508187419826
6	564	1855.206632108368	59.963500441523
6	568	1864.760662432864	61.685542587149
6	573	1873.589609269982	64.215073909119
6	580	1887.222218529209	40.284369517533
6	604	1924.426612170732	50.61921510314
6	617	1958.226665738983	66.597288393453
6	625	1977.264745733503	81.550207789387
6	628	1995.647814987115	67.019022831879
6	629	1996.831542142541	65.404752338536
6	635	2008.96392814331	68.697744929091
6	636	2009.451585618013	52.559050793792
6	637	2010.384767186798	51.802867511811
6	643	2073.891403007271	103.15690574334
6	644	2084.236130500698	100.40337149543
6	645	2095.205047854803	90.095990020542
6	680	2188.777077274531	92.413934300932
6	684	2200.7189957819	72.053202335551
6	700	2213.21120079378	63.511571641001
6	701	2216.717829694491	47.247648166718
6	704	2228.583395364788	58.743374136353
6	705	2229.554021094467	58.86566764132
6	716	2275.966959646019	93.980414575953
6	717	2276.972879827458	87.916097236717
6	721	2292.441955213686	86.988211833306
6	724	2299.882247270654	94.334527968932
6	728	2312.159745433424	105.04236027943
6	731	2349.789060031759	140.97111342691
6	738	2366.120000344376	155.1229450573
6	749	2409.901882076099	173.46553627131
7	768	2500	0.0436
8	768	2500	0.0552

