version 2
run factors_calibration_minions-248-20230319-11:55:48-8391
attr configname factors_calibration_minions
attr datetime 20230319-11:55:48
attr experiment factors_calibration_minions
attr inifile omnetpp.ini
attr iterationvars $0=20
attr iterationvarsf 20-
attr measurement $0=20
attr network Network
attr processid 8391
attr repetition 8
attr replication #8
attr resultdir results
attr runnumber 248
attr seedset 8
param *.minion.arrival_mean 20
param *.minion.service_mean 20
param *.boss.arrival_mean 20
param *.boss.service_mean 7
param *.player.recover_rate_x 100
param **.minion.arrival_distribution 0
param **.minion.service_distribution 0
param **.boss.arrival_distribution 0
param **.boss.service_distribution 0

vector 0 Network.player minion_recovered_stat:vector ETV
attr source signal_minion_recovered
vector 1 Network.player boss_waiting_time_stat:vector ETV
attr source signal_boss_waiting_time
vector 2 Network.player boss_defeated_stat:vector ETV
attr source signal_boss_defeated
vector 3 Network.player boss_response_time_stat:vector ETV
attr source signal_boss_response_time
vector 4 Network.player minion_waiting_time_stat:vector ETV
attr source signal_minion_waiting_time
vector 5 Network.player minion_defeated_stat:vector ETV
attr source signal_minion_defeated
vector 6 Network.player minion_response_time_stat:vector ETV
attr source signal_minion_response_time
vector 7 Network.player minion_throughput:vector ETV
attr source signal_minion_throughput
vector 8 Network.player boss_throughput:vector ETV
attr source signal_boss_throughput
0	112	375.391315048882	14
0	121	416.09885070976	15
0	133	457.766007587543	16
0	143	486.357315170998	17
0	146	519.361765448563	18
0	149	529.267700894395	19
0	159	564.300560389618	20
0	167	619.011098646388	21
0	172	625.351485420614	22
0	179	656.547358981017	23
0	219	766.656699326265	24
0	223	779.450215402787	25
0	226	818.983464402905	26
0	229	835.248604404272	27
0	232	843.367700009282	28
0	239	863.83902178876	29
0	247	920.493155444247	30
0	252	931.651819903604	31
0	268	1058.518930789588	32
0	281	1108.361782751192	33
0	285	1132.694596718756	34
0	288	1136.108807583738	35
0	310	1216.291314203088	36
0	314	1230.755115960214	37
0	324	1272.682469325331	38
0	331	1317.361855239214	39
0	342	1361.686355425169	40
0	353	1413.14304119274	41
0	356	1419.219797478038	42
0	361	1455.374959090924	43
0	376	1512.613832586893	44
0	398	1579.922105872001	45
0	405	1614.647544777863	46
0	418	1669.12752658445	47
0	432	1752.69058199458	48
0	440	1784.36714221366	49
0	450	1826.11813210479	50
0	462	1862.163813384079	51
0	465	1870.862406747146	52
0	468	1881.496160769119	53
0	487	1986.939751930008	54
0	494	2024.452246727987	55
0	511	2073.58352631853	56
0	520	2095.128767516438	57
0	530	2143.862823377282	58
0	537	2148.922937466807	59
0	545	2183.044205315737	60
0	552	2202.435043403632	61
0	558	2216.788444128043	62
0	568	2249.729384129566	63
0	580	2279.690247357455	64
0	591	2294.765771610817	65
0	596	2311.466960642226	66
0	634	2408.760504512205	67
0	637	2422.9459360675	68
0	641	2427.402652917027	69
0	644	2432.751736103515	70
0	648	2465.658478271555	71
0	664	2498.862924785266	72
1	112	375.391315048882	0
1	121	416.09885070976	0
1	133	457.766007587543	0
1	138	481.877710528767	5.328922124123
1	143	486.357315170998	0
1	146	519.361765448563	0
1	149	529.267700894395	0
1	159	564.300560389618	0
1	167	619.011098646388	0
1	172	625.351485420614	0
1	179	656.547358981017	0
1	192	707.391356790396	14.628033634394
1	207	738.787430144821	35.047380009385
1	208	738.972269451785	28.591419763954
1	209	748.678688829437	28.224832437584
1	210	751.623146881033	28.192128914279
1	211	753.383822442731	19.472850311306
1	214	762.149899902943	3.153226075055
1	219	766.656699326265	0
1	223	779.450215402787	0
1	226	818.983464402905	0
1	229	835.248604404272	0
1	232	843.367700009282	0
1	235	853.476090750369	0.367003827243
1	239	863.83902178876	0
1	247	920.493155444247	0
1	252	931.651819903604	0
1	259	935.543616220966	2.198263240885
1	268	1058.518930789588	0
1	281	1108.361782751192	0
1	285	1132.694596718756	0
1	288	1136.108807583738	0
1	293	1150.64935477654	14.315528758428
1	302	1178.446255440354	30.367383847196
1	303	1183.785151749641	20.064570339276
1	304	1187.362649011651	18.874232226265
1	305	1187.979976351326	14.903677313675
1	306	1192.241107213695	15.324807553498
1	310	1216.291314203088	0
1	314	1230.755115960214	0
1	324	1272.682469325331	0
1	331	1317.361855239214	0
1	342	1361.686355425169	0
1	353	1413.14304119274	0
1	356	1419.219797478038	0
1	361	1455.374959090924	0
1	376	1512.613832586893	0
1	385	1541.978729418136	15.515656754408
1	390	1554.470543162683	8.951794454815
1	398	1579.922105872001	0
1	405	1614.647544777863	0
1	418	1669.12752658445	0
1	432	1752.69058199458	0
1	440	1784.36714221366	0
1	450	1826.11813210479	0
1	455	1842.103839244947	3.603190601096
1	462	1862.163813384079	0
1	465	1870.862406747146	0
1	468	1881.496160769119	0
1	473	1907.420796759676	23.625565603766
1	474	1909.922029400462	6.680614829292
1	487	1986.939751930008	0
1	494	2024.452246727987	0
1	501	2043.066683914221	15.339142411439
1	502	2048.594655731709	17.933353382465
1	505	2050.260775466138	13.073450796978
1	506	2051.153706973217	1.591690534861
1	511	2073.58352631853	0
1	514	2076.525055599167	2.26188721674
1	520	2095.128767516438	0
1	530	2143.862823377282	0
1	537	2148.922937466807	0
1	540	2161.390831375599	10.721097070035
1	545	2183.044205315737	0
1	552	2202.435043403632	0
1	558	2216.788444128043	0
1	568	2249.729384129566	0
1	571	2251.609924194144	0.24196558661
1	580	2279.690247357455	0
1	583	2281.03800899065	0.652624784705
1	591	2294.765771610817	0
1	596	2311.466960642226	0
1	599	2316.230376095025	1.414190109849
1	606	2325.458141527305	7.399256431269
1	615	2344.3849268057	23.035177715041
1	616	2347.288760349376	20.417799968555
1	619	2354.70002851022	27.27324378072
1	620	2360.000799732929	31.89283075062
1	621	2367.951716060891	34.9702068831
1	624	2372.432975191293	18.113586493648
1	625	2375.047270343753	4.828459608888
1	634	2408.760504512205	0
1	637	2422.9459360675	0
1	641	2427.402652917027	0
1	644	2432.751736103515	0
1	648	2465.658478271555	0
1	655	2475.828867719043	3.508552564507
1	658	2482.305020257389	8.415818151031
1	659	2487.334316635791	8.685309584084
1	664	2498.862924785266	0
2	113	376.877501896449	24
2	122	433.159532126349	25
2	138	481.877710528767	26
2	139	483.561661305776	27
2	144	502.217047856827	28
2	147	521.894957892976	29
2	152	538.001921462023	30
2	164	595.910186612044	31
2	170	622.436282801303	32
2	173	626.791030822987	33
2	192	707.391356790396	34
2	207	738.787430144821	35
2	208	738.972269451785	36
2	209	748.678688829437	37
2	210	751.623146881033	38
2	211	753.383822442731	39
2	214	762.149899902943	40
2	215	763.27029172463	41
2	220	772.067137578064	42
2	224	784.526875463857	43
2	227	832.261211172019	44
2	230	838.757715935225	45
2	235	853.476090750369	46
2	236	853.983183383023	47
2	240	871.386842342912	48
2	250	923.382971201881	49
2	259	935.543616220966	50
2	260	935.621306313484	51
2	271	1068.655999096924	52
2	282	1118.574676922471	53
2	286	1135.049334830857	54
2	293	1150.64935477654	55
2	302	1178.446255440354	56
2	303	1183.785151749641	57
2	304	1187.362649011651	58
2	305	1187.979976351326	59
2	306	1192.241107213695	60
2	307	1204.415191254314	61
2	311	1217.936591419872	62
2	315	1235.671578565414	63
2	325	1278.852566044871	64
2	336	1332.29876245924	65
2	343	1362.150435800524	66
2	354	1414.481556985619	67
2	357	1436.426022543111	68
2	364	1458.985332457456	69
2	385	1541.978729418136	70
2	390	1554.470543162683	71
2	391	1555.655903021041	72
2	403	1606.853122163295	73
2	406	1618.703755679056	74
2	419	1675.88524582379	75
2	433	1753.001480718229	76
2	443	1798.644416713897	77
2	455	1842.103839244947	78
2	458	1844.107139362427	79
2	463	1862.751032795062	80
2	466	1878.073209066632	81
2	473	1907.420796759676	82
2	474	1909.922029400462	83
2	475	1922.049218650263	84
2	488	1988.910358269192	85
2	501	2043.066683914221	86
2	502	2048.594655731709	87
2	505	2050.260775466138	88
2	506	2051.153706973217	89
2	507	2052.200986570359	90
2	514	2076.525055599167	91
2	515	2079.006622830595	92
2	521	2102.122422877062	93
2	531	2144.093127519851	94
2	540	2161.390831375599	95
2	541	2168.263960965381	96
2	546	2186.117951021917	97
2	555	2207.905457734513	98
2	563	2218.667369068897	99
2	571	2251.609924194144	100
2	572	2262.94759127677	101
2	583	2281.03800899065	102
2	586	2287.517322572823	103
2	592	2303.133986485212	104
2	599	2316.230376095025	105
2	606	2325.458141527305	106
2	615	2344.3849268057	107
2	616	2347.288760349376	108
2	619	2354.70002851022	109
2	620	2360.000799732929	110
2	621	2367.951716060891	111
2	624	2372.432975191293	112
2	625	2375.047270343753	113
2	626	2378.866481963754	114
2	635	2409.656470928254	115
2	638	2424.060898361679	116
2	642	2428.580906158566	117
2	645	2435.517062842242	118
2	655	2475.828867719043	119
2	658	2482.305020257389	120
2	659	2487.334316635791	121
2	662	2491.787919460925	122
3	113	376.877501896449	1.486186847567
3	122	433.159532126349	17.060681416589
3	138	481.877710528767	24.111702941224
3	139	483.561661305776	7.012872901132
3	144	502.217047856827	15.859732685829
3	147	521.894957892976	2.533192444413
3	152	538.001921462023	8.734220567628
3	164	595.910186612044	31.609626222426
3	170	622.436282801303	3.425184154915
3	173	626.791030822987	1.439545402373
3	192	707.391356790396	50.843997809379
3	207	738.787430144821	46.024106988819
3	208	738.972269451785	35.232219316349
3	209	748.678688829437	38.297839141606
3	210	751.623146881033	31.16929048918
3	211	753.383822442731	29.952804475977
3	214	762.149899902943	28.238927771518
3	215	763.27029172463	4.273617896742
3	220	772.067137578064	5.410438251799
3	224	784.526875463857	5.07666006107
3	227	832.261211172019	13.277746769114
3	230	838.757715935225	3.509111530953
3	235	853.476090750369	10.108390741087
3	236	853.983183383023	0.874096459897
3	240	871.386842342912	7.547820554152
3	250	923.382971201881	2.889815757634
3	259	935.543616220966	3.891796317362
3	260	935.621306313484	2.275953333403
3	271	1068.655999096924	10.137068307336
3	282	1118.574676922471	10.212894171279
3	286	1135.049334830857	2.354738112101
3	293	1150.64935477654	14.540547192802
3	302	1178.446255440354	42.112429422242
3	303	1183.785151749641	35.706280156483
3	304	1187.362649011651	23.642067601286
3	305	1187.979976351326	19.49155956594
3	306	1192.241107213695	19.164808176044
3	307	1204.415191254314	27.498891594117
3	311	1217.936591419872	1.645277216784
3	315	1235.671578565414	4.9164626052
3	325	1278.852566044871	6.17009671954
3	336	1332.29876245924	14.936907220026
3	343	1362.150435800524	0.464080375355
3	354	1414.481556985619	1.338515792879
3	357	1436.426022543111	17.206225065073
3	364	1458.985332457456	3.610373366532
3	385	1541.978729418136	29.364896831243
3	390	1554.470543162683	28.007470498955
3	391	1555.655903021041	10.137154313173
3	403	1606.853122163295	26.931016291294
3	406	1618.703755679056	4.056210901193
3	419	1675.88524582379	6.75771923934
3	433	1753.001480718229	0.310898723649
3	443	1798.644416713897	14.277274500237
3	455	1842.103839244947	15.985707140157
3	458	1844.107139362427	5.606490718576
3	463	1862.751032795062	0.587219410983
3	466	1878.073209066632	7.210802319486
3	473	1907.420796759676	25.924635990557
3	474	1909.922029400462	26.126798244552
3	475	1922.049218650263	18.807804079093
3	488	1988.910358269192	1.970606339184
3	501	2043.066683914221	18.614437186234
3	502	2048.594655731709	20.867114228927
3	505	2050.260775466138	19.599473116894
3	506	2051.153706973217	13.966382304057
3	507	2052.200986570359	2.638970132003
3	514	2076.525055599167	2.941529280637
3	515	2079.006622830595	4.743454448168
3	521	2102.122422877062	6.993655360624
3	531	2144.093127519851	0.230304142569
3	540	2161.390831375599	12.467893908792
3	541	2168.263960965381	17.594226659817
3	546	2186.117951021917	3.07374570618
3	555	2207.905457734513	5.470414330881
3	563	2218.667369068897	1.878924940854
3	571	2251.609924194144	1.880540064578
3	572	2262.94759127677	11.579632669236
3	583	2281.03800899065	1.347761633195
3	586	2287.517322572823	7.131938366878
3	592	2303.133986485212	8.368214874395
3	599	2316.230376095025	4.763415452799
3	606	2325.458141527305	10.641955542129
3	615	2344.3849268057	26.326041709664
3	616	2347.288760349376	25.939011258717
3	619	2354.70002851022	27.829068129399
3	620	2360.000799732929	32.574015003429
3	621	2367.951716060891	39.843747078582
3	624	2372.432975191293	39.451466013502
3	625	2375.047270343753	20.727881646108
3	626	2378.866481963754	8.647671228889
3	635	2409.656470928254	0.895966416049
3	638	2424.060898361679	1.114962294179
3	642	2428.580906158566	1.178253241539
3	645	2435.517062842242	2.765326738727
3	655	2475.828867719043	10.170389447488
3	658	2482.305020257389	9.984705102853
3	659	2487.334316635791	13.445114529433
3	662	2491.787919460925	13.138912409218
4	113	376.877501896449	126.52319371814
4	116	407.864716062458	145.74692229069
4	119	411.957039205427	141.11247538233
4	122	433.159532126349	160.18359767828
4	123	433.556677784647	148.40614474915
4	139	483.561661305776	194.66776286882
4	144	502.217047856827	164.3086948494
4	147	521.894957892976	177.26995049838
4	152	538.001921462023	174.59037506052
4	155	560.81880228841	185.42748723953
4	156	561.475200909703	169.01654490469
4	157	562.017933559327	151.40505303209
4	164	595.910186612044	179.81133590228
4	165	613.990926341221	168.28193964684
4	170	622.436282801303	174.80183227562
4	173	626.791030822987	178.36529141435
4	174	631.798079091443	174.9042512387
4	175	641.795751049617	184.02974346207
4	215	763.27029172463	298.85929936774
4	220	772.067137578064	285.91738016417
4	221	773.725154089549	287.36783891855
4	224	784.526875463857	265.16511001529
4	227	832.261211172019	302.99351027762
4	230	838.757715935225	308.78048210152
4	236	853.983183383023	312.34828995554
4	237	862.642194113363	298.34163372375
4	240	871.386842342912	292.04531519612
4	243	873.653609054293	278.27569464168
4	244	877.227416009404	258.21631736302
4	245	910.494217129945	290.39005267335
4	250	923.382971201881	298.03148578127
4	260	935.621306313484	291.18864251193
4	263	1017.30937023952	360.7620112585
4	264	1030.255337550799	356.89646514616
4	271	1068.655999096924	377.4943512247
4	282	1118.574676922471	424.26376080841
4	283	1120.640489392691	425.30512298443
4	286	1135.049334830857	424.97093032592
4	307	1204.415191254314	477.83556215238
4	308	1214.663703999934	479.001844
4	311	1217.936591419872	453.19538640654
4	312	1229.940348884712	463.28364955845
4	315	1235.671578565414	456.22136316263
4	322	1268.782403550017	449.79893914711
4	325	1278.852566044871	443.6039616406
4	336	1332.29876245924	488.93106244996
4	337	1343.03865226848	479.19963047972
4	340	1355.870745483881	482.52719759968
4	343	1362.150435800524	441.65728035628
4	346	1385.890288365048	464.18495111939
4	351	1411.41233194545	479.76051204185
4	354	1414.481556985619	481.73348189389
4	357	1436.426022543111	501.72767656943
4	358	1442.120239947276	435.03810626223
4	359	1446.772819920311	393.12823946832
4	364	1458.985332457456	400.46640166787
4	391	1555.655903021041	489.97211123337
4	392	1561.560332635026	483.51721590522
4	393	1564.633820813443	477.17477411119
4	396	1575.588738668611	476.09941799136
4	403	1606.853122163295	507.33781793505
4	406	1618.703755679056	510.34197292786
4	407	1624.127662016051	491.4330652973
4	410	1627.091684719544	490.98287713581
4	413	1630.718725229586	414.4274110265
4	414	1639.461805535586	408.70668957537
4	419	1675.88524582379	427.12998598911
4	420	1677.579368024294	424.82534510935
4	421	1680.134263895377	423.83538162275
4	428	1741.488410175473	468.80594085014
4	433	1753.001480718229	460.91869448611
4	434	1755.563309719836	438.76639689715
4	435	1756.710347525378	439.34849228616
4	436	1761.303127912415	441.92127929939
4	443	1798.644416713897	475.76063587411
4	448	1816.947068985949	469.74389254316
4	458	1844.107139362427	482.42078393726
4	463	1862.751032795062	482.25130000909
4	466	1878.073209066632	471.52200935946
4	475	1922.049218650263	514.78242503449
4	488	1988.910358269192	575.76731707645
4	507	2052.200986570359	632.98118909232
4	515	2079.006622830595	623.63166373967
4	518	2094.710161210525	635.92890812538
4	521	2102.122422877062	628.03168358288
4	526	2136.593540081726	649.8224993867
4	531	2144.093127519851	653.67965224298
4	541	2168.263960965381	672.77136419432
4	546	2186.117951021917	683.25010360427
4	549	2194.171632575813	681.55779998892
4	550	2196.037615477673	679.66809817864
4	555	2207.905457734513	690.61375451063
4	556	2216.644022123825	676.78207607173
4	563	2218.667369068897	673.35412146181
4	564	2220.313931869748	655.1028544665
4	565	2233.315193662518	653.39308779052
4	566	2233.627435780359	645.94793654407
4	572	2262.94759127677	666.4556005051
4	575	2265.126552517477	650.47900773961
4	578	2277.894430633743	650.90208989455
4	586	2287.517322572823	659.1454771096
4	589	2290.166043660089	638.03210201522
4	592	2303.133986485212	634.00645990076
4	626	2378.866481963754	682.5074686276
4	635	2409.656470928254	705.31909238525
4	638	2424.060898361679	686.02778146783
4	639	2424.373615609023	672.71486695272
4	642	2428.580906158566	675.89032416399
4	645	2435.517062842242	662.5947722116
4	646	2439.066554184836	654.69941197118
4	662	2491.787919460925	704.01378040153
5	116	407.864716062458	8
5	119	411.957039205427	9
5	123	433.556677784647	10
5	155	560.81880228841	11
5	156	561.475200909703	12
5	157	562.017933559327	13
5	165	613.990926341221	14
5	174	631.798079091443	15
5	175	641.795751049617	16
5	221	773.725154089549	17
5	237	862.642194113363	18
5	243	873.653609054293	19
5	244	877.227416009404	20
5	245	910.494217129945	21
5	263	1017.30937023952	22
5	264	1030.255337550799	23
5	283	1120.640489392691	24
5	308	1214.663703999934	25
5	312	1229.940348884712	26
5	322	1268.782403550017	27
5	337	1343.03865226848	28
5	340	1355.870745483881	29
5	346	1385.890288365048	30
5	351	1411.41233194545	31
5	358	1442.120239947276	32
5	359	1446.772819920311	33
5	392	1561.560332635026	34
5	393	1564.633820813443	35
5	396	1575.588738668611	36
5	407	1624.127662016051	37
5	410	1627.091684719544	38
5	413	1630.718725229586	39
5	414	1639.461805535586	40
5	420	1677.579368024294	41
5	421	1680.134263895377	42
5	428	1741.488410175473	43
5	434	1755.563309719836	44
5	435	1756.710347525378	45
5	436	1761.303127912415	46
5	448	1816.947068985949	47
5	518	2094.710161210525	48
5	526	2136.593540081726	49
5	549	2194.171632575813	50
5	550	2196.037615477673	51
5	556	2216.644022123825	52
5	564	2220.313931869748	53
5	565	2233.315193662518	54
5	566	2233.627435780359	55
5	575	2265.126552517477	56
5	578	2277.894430633743	57
5	589	2290.166043660089	58
5	639	2424.373615609023	59
5	646	2439.066554184836	60
6	116	407.864716062458	157.51040788415
6	119	411.957039205427	149.83924543366
6	123	433.556677784647	160.58074333658
6	155	560.81880228841	197.4072558869
6	156	561.475200909703	186.08388586082
6	157	562.017933559327	169.55927755432
6	165	613.990926341221	197.89207563146
6	174	631.798079091443	183.37233968281
6	175	641.795751049617	184.90192319687
6	221	773.725154089549	287.57539667566
6	237	862.642194113363	321.00730068588
6	243	873.653609054293	294.3120819075
6	244	877.227416009404	281.84950159679
6	245	910.494217129945	291.48311848356
6	263	1017.30937023952	372.87670643797
6	264	1030.255337550799	373.70797856978
6	283	1120.640489392691	426.32957327863
6	308	1214.663703999934	488.084074898
6	312	1229.940348884712	465.19914387138
6	322	1268.782403550017	489.33218814723
6	337	1343.03865226848	499.6709522592
6	340	1355.870745483881	492.03172369512
6	346	1385.890288365048	465.3971329208
6	351	1411.41233194545	489.70699469979
6	358	1442.120239947276	507.42189397359
6	359	1446.772819920311	439.69068623527
6	392	1561.560332635026	495.87654084735
6	393	1564.633820813443	486.59070408363
6	396	1575.588738668611	488.12969196636
6	407	1624.127662016051	515.76587926486
6	410	1627.091684719544	494.39708800079
6	413	1630.718725229586	494.60991764585
6	414	1639.461805535586	423.1704913325
6	420	1677.579368024294	428.82410818962
6	421	1680.134263895377	427.38024098043
6	428	1741.488410175473	485.18952790284
6	434	1755.563309719836	463.48052348771
6	435	1756.710347525378	439.91343470269
6	436	1761.303127912415	443.9412726732
6	448	1816.947068985949	494.06328814616
6	518	2094.710161210525	639.3352021196
6	526	2136.593540081726	662.50280078755
6	549	2194.171632575813	691.30378515817
6	550	2196.037615477673	683.42378289078
6	556	2216.644022123825	699.35231889994
6	564	2220.313931869748	675.00068426267
6	565	2233.315193662518	668.10411625927
6	566	2233.627435780359	653.70532990836
6	575	2265.126552517477	668.6345617458
6	578	2277.894430633743	663.24688585588
6	589	2290.166043660089	661.79419819687
6	639	2424.373615609023	686.34049871517
6	646	2439.066554184836	666.14426355419
7	665	2500	0.024
8	665	2500	0.0488

