version 2
run factors_calibration_minions-53-20230319-11:55:08-7416
attr configname factors_calibration_minions
attr datetime 20230319-11:55:08
attr experiment factors_calibration_minions
attr inifile omnetpp.ini
attr iterationvars $0=2
attr iterationvarsf 2-
attr measurement $0=2
attr network Network
attr processid 7416
attr repetition 23
attr replication #23
attr resultdir results
attr runnumber 53
attr seedset 23
param *.minion.arrival_mean 20
param *.minion.service_mean 2
param *.boss.arrival_mean 20
param *.boss.service_mean 7
param *.player.recover_rate_x 100
param **.minion.arrival_distribution 0
param **.minion.service_distribution 0
param **.boss.arrival_distribution 0
param **.boss.service_distribution 0

vector 0 Network.player boss_defeated_stat:vector ETV
attr source signal_boss_defeated
vector 1 Network.player boss_response_time_stat:vector ETV
attr source signal_boss_response_time
vector 2 Network.player minion_waiting_time_stat:vector ETV
attr source signal_minion_waiting_time
vector 3 Network.player minion_defeated_stat:vector ETV
attr source signal_minion_defeated
vector 4 Network.player minion_response_time_stat:vector ETV
attr source signal_minion_response_time
vector 5 Network.player boss_waiting_time_stat:vector ETV
attr source signal_boss_waiting_time
vector 6 Network.player minion_recovered_stat:vector ETV
attr source signal_minion_recovered
vector 7 Network.player minion_throughput:vector ETV
attr source signal_minion_throughput
vector 8 Network.player boss_throughput:vector ETV
attr source signal_boss_throughput
0	110	361.74877774732	19
0	114	374.578350258251	20
0	123	436.666113607357	21
0	132	476.144008415024	22
0	137	503.753666741977	23
0	146	517.793855874732	24
0	152	544.713238765117	25
0	156	553.176707484872	26
0	159	562.770349275506	27
0	164	573.112638997987	28
0	168	578.10950882978	29
0	171	587.562166299449	30
0	189	634.953747810829	31
0	192	649.644472549481	32
0	195	651.715304709983	33
0	198	660.678971689527	34
0	217	709.25244462443	35
0	218	721.296711995859	36
0	219	733.679466939835	37
0	229	767.721614697765	38
0	230	771.130092729437	39
0	240	815.206395929065	40
0	241	817.051501998064	41
0	252	840.452396077241	42
0	257	845.766980260471	43
0	258	848.024150362335	44
0	259	850.659909060772	45
0	273	947.274942924996	46
0	281	960.23914639556	47
0	289	1012.580280347089	48
0	290	1015.10759714272	49
0	298	1030.080825412411	50
0	301	1041.344366673552	51
0	310	1061.972681261829	52
0	311	1064.118178400494	53
0	312	1064.736155310988	54
0	315	1082.992791347422	55
0	321	1123.609226983143	56
0	324	1162.386833438343	57
0	327	1182.71132962198	58
0	332	1216.561797242015	59
0	333	1219.545395428415	60
0	336	1224.409943542418	61
0	357	1266.194578151314	62
0	360	1282.741641373157	63
0	365	1294.904009645455	64
0	370	1298.104646966005	65
0	373	1308.988533961057	66
0	374	1312.052595965698	67
0	375	1319.482876179407	68
0	376	1323.713775767033	69
0	377	1325.308484168171	70
0	378	1325.34499482962	71
0	408	1369.242041025126	72
0	409	1375.392937997074	73
0	410	1379.212688056794	74
0	411	1379.682865629869	75
0	412	1391.496062695934	76
0	413	1392.582078991834	77
0	418	1415.034970290935	78
0	419	1417.664464524296	79
0	444	1506.961734494535	80
0	449	1527.719362673052	81
0	458	1552.157695196403	82
0	471	1587.836683500126	83
0	474	1595.665058565532	84
0	494	1638.776448696254	85
0	503	1659.150373851098	86
0	510	1667.813108632345	87
0	516	1680.590619743419	88
0	521	1699.04099763686	89
0	522	1699.944228888455	90
0	530	1733.192187457361	91
0	531	1734.820391663965	92
0	537	1746.434769233845	93
0	542	1751.102609158212	94
0	548	1806.319784585304	95
0	553	1809.981724836032	96
0	558	1830.099631066834	97
0	565	1853.82471310006	98
0	579	1889.879071170331	99
0	595	1952.77718051204	100
0	615	2010.944781830346	101
0	624	2063.030445201018	102
0	630	2074.735155200793	103
0	635	2097.939334042665	104
0	646	2141.706454569867	105
0	647	2146.048135164335	106
0	650	2154.331931743961	107
0	651	2155.671285017164	108
0	654	2176.616295526451	109
0	665	2193.14729417011	110
0	669	2205.609424577945	111
0	683	2250.628217399151	112
0	689	2258.958115237285	113
0	710	2357.57961154859	114
0	717	2370.150088855248	115
0	720	2389.020050407438	116
0	733	2435.98354353044	117
0	736	2444.862537502298	118
0	737	2445.640111282682	119
0	738	2453.61598536061	120
0	739	2458.401830299888	121
0	740	2460.828829831763	122
0	748	2485.934691216549	123
0	749	2486.132309158616	124
1	110	361.74877774732	25.749730966382
1	114	374.578350258251	4.29788778808
1	123	436.666113607357	4.97016093774
1	132	476.144008415024	1.996837656262
1	137	503.753666741977	22.272974755464
1	146	517.793855874732	7.546238195052
1	152	544.713238765117	4.772174611207
1	156	553.176707484872	3.015589749983
1	159	562.770349275506	5.096595903998
1	164	573.112638997987	5.156529954014
1	168	578.10950882978	2.95182632225
1	171	587.562166299449	6.757915349521
1	189	634.953747810829	24.487866931297
1	192	649.644472549481	37.010803501685
1	195	651.715304709983	30.637036389412
1	198	660.678971689527	28.818369660547
1	217	709.25244462443	3.614094926935
1	218	721.296711995859	14.630724440923
1	219	733.679466939835	26.443347514017
1	229	767.721614697765	16.191008551603
1	230	771.130092729437	4.721834719603
1	240	815.206395929065	43.594435831822
1	241	817.051501998064	21.343262053474
1	252	840.452396077241	11.864701376626
1	257	845.766980260471	10.071781870978
1	258	848.024150362335	6.778102755025
1	259	850.659909060772	8.155849658152
1	273	947.274942924996	7.16285235045
1	281	960.23914639556	0.360742789028
1	289	1012.580280347089	17.468224135822
1	290	1015.10759714272	5.45502956233
1	298	1030.080825412411	8.23820192414
1	301	1041.344366673552	19.15814566487
1	310	1061.972681261829	6.992714980624
1	311	1064.118178400494	6.036872777746
1	312	1064.736155310988	3.705847305891
1	315	1082.992791347422	1.682654987718
1	321	1123.609226983143	2.50397473549
1	324	1162.386833438343	4.054182677922
1	327	1182.71132962198	8.095986834999
1	332	1216.561797242015	31.468397199674
1	333	1219.545395428415	24.375693963908
1	336	1224.409943542418	3.010882088799
1	357	1266.194578151314	27.838749902611
1	360	1282.741641373157	39.755214933453
1	365	1294.904009645455	42.579952629139
1	370	1298.104646966005	45.294234695545
1	373	1308.988533961057	46.367193363027
1	374	1312.052595965698	46.332220002573
1	375	1319.482876179407	45.426641479708
1	376	1323.713775767033	36.629859951148
1	377	1325.308484168171	34.701315129289
1	378	1325.34499482962	30.218459916286
1	408	1369.242041025126	30.990778389888
1	409	1375.392937997074	30.850854528362
1	410	1379.212688056794	22.620966363672
1	411	1379.682865629869	22.746654414202
1	412	1391.496062695934	28.9074823693
1	413	1392.582078991834	24.519589140436
1	418	1415.034970290935	45.995925214984
1	419	1417.664464524296	6.774288215947
1	444	1506.961734494535	3.126259675837
1	449	1527.719362673052	17.663117328724
1	458	1552.157695196403	18.978821203674
1	471	1587.836683500126	2.291234050481
1	474	1595.665058565532	6.535595539299
1	494	1638.776448696254	1.901456412023
1	503	1659.150373851098	3.020746130396
1	510	1667.813108632345	4.53570149559
1	516	1680.590619743419	0.280166768892
1	521	1699.04099763686	7.070956459041
1	522	1699.944228888455	3.357346225675
1	530	1733.192187457361	13.373411046082
1	531	1734.820391663965	7.650818941953
1	537	1746.434769233845	3.451816963365
1	542	1751.102609158212	3.155990399737
1	548	1806.319784585304	11.343400880949
1	553	1809.981724836032	1.986025325956
1	558	1830.099631066834	2.629708197668
1	565	1853.82471310006	17.830428385035
1	579	1889.879071170331	0.790327478802
1	595	1952.77718051204	6.047591679786
1	615	2010.944781830346	6.320483896686
1	624	2063.030445201018	8.570665277503
1	630	2074.735155200793	0.321666883217
1	635	2097.939334042665	7.684398254976
1	646	2141.706454569867	23.33025318616
1	647	2146.048135164335	22.518168550017
1	650	2154.331931743961	26.206540557169
1	651	2155.671285017164	7.879095358982
1	654	2176.616295526451	16.182101604825
1	665	2193.14729417011	0.562013812274
1	669	2205.609424577945	0.126608550161
1	683	2250.628217399151	8.469245312215
1	689	2258.958115237285	6.600861729111
1	710	2357.57961154859	7.795800890788
1	717	2370.150088855248	0.347659411757
1	720	2389.020050407438	7.327258660744
1	733	2435.98354353044	40.207990135255
1	736	2444.862537502298	47.840241674605
1	737	2445.640111282682	47.643921878434
1	738	2453.61598536061	20.128102307589
1	739	2458.401830299888	24.569213229136
1	740	2460.828829831763	23.77090702609
1	748	2485.934691216549	24.416222870147
1	749	2486.132309158616	20.403037588411
2	110	361.74877774732	10.907248607054
2	116	406.642103218643	0
2	119	413.375263692142	0
2	125	438.66946652955	0
2	128	450.487681838351	0
2	137	503.753666741977	16.570662249375
2	140	504.830575989091	0.677253640451
2	146	517.793855874732	6.747910084388
2	149	536.911394188465	0
2	152	544.713238765117	4.772174611207
2	164	573.112638997987	0.136492131696
2	173	599.840908283513	0
2	198	660.678971689527	48.974304269611
2	199	661.966004685167	44.532043909931
2	200	664.177382035022	39.913879342052
2	201	666.54036476632	26.04503861134
2	202	666.855186446274	16.030327328327
2	203	667.264721739311	8.574995256784
2	206	690.807492947072	0
2	209	702.818805915158	0
2	221	741.554946233193	0
2	230	771.130092729437	14.153634065026
2	241	817.051501998064	34.895384218484
2	242	818.889181806383	22.931414727161
2	245	826.556418854929	0
2	259	850.659909060772	22.072214360157
2	260	853.718522136018	24.729411429767
2	263	869.813890422245	0
2	266	874.1825731192	0
2	269	877.932350475975	0
2	275	948.52133273824	0
2	281	960.23914639556	0.107556373501
2	284	994.462172725485	0
2	290	1015.10759714272	19.995540931453
2	301	1041.344366673552	17.19079657259
2	302	1044.588537558971	6.697423330942
2	317	1088.434991081124	0
2	378	1325.34499482962	78.828695013588
2	379	1325.725957882837	70.515517760371
2	382	1328.742545478643	71.263868431733
2	383	1330.794987640781	70.781212275858
2	384	1330.989188846561	35.571515415023
2	387	1335.010461377744	30.241450926416
2	419	1417.664464524296	89.117427986541
2	422	1426.119549209567	93.543240966799
2	423	1429.834865750721	91.583603115483
2	424	1434.590204772735	85.895508230803
2	425	1435.056905859018	86.205795041043
2	426	1435.690922200936	83.892409848188
2	427	1435.936687061544	34.416561213905
2	428	1437.234967601982	15.503788606793
2	431	1449.657217618015	0
2	434	1461.418245888659	0
2	437	1463.696542087258	0
2	440	1498.416100165937	0
2	449	1527.719362673052	6.734520785138
2	452	1531.496584558375	0
2	458	1552.157695196403	5.176923310895
2	461	1560.424712384249	0
2	464	1575.309920377233	0
2	467	1576.646976048571	0
2	476	1595.711133708247	0
2	479	1596.827562371833	0
2	482	1622.58848668745	0
2	485	1626.241444251843	0
2	488	1627.652212519887	0
2	491	1633.365534352444	0
2	494	1638.776448696254	1.901456412023
2	497	1645.954967776919	0
2	500	1651.865934470239	2.382547175921
2	503	1659.150373851098	3.020746130396
2	506	1661.862790536356	0
2	512	1669.316138293529	0
2	524	1704.011111616813	0
2	533	1739.407308058535	0
2	542	1751.102609158212	2.493348562427
2	548	1806.319784585304	6.040528049739
2	553	1809.981724836032	1.986025325956
2	554	1814.640065580579	4.861195968088
2	565	1853.82471310006	17.533050681822
2	566	1854.094570219888	16.417235285101
2	569	1860.864366457561	0
2	572	1868.034013110687	0
2	575	1869.29542665807	0.697151741526
2	581	1909.645595673085	0
2	584	1923.253414586939	0
2	587	1936.560300142186	0
2	590	1943.587444355565	0
2	595	1952.77718051204	6.047591679786
2	598	1953.993044914611	5.690200357566
2	599	1953.995992350656	0.104009523253
2	602	1956.789868693399	0
2	605	1972.842673990704	0
2	608	1978.247952686361	3.594815468728
2	611	2002.072353595652	0
2	617	2033.496292119678	0
2	620	2041.020436213488	0
2	626	2067.999170238435	0
2	632	2087.513126906381	0
2	635	2097.939334042665	7.684398254976
2	638	2103.241831473801	0
2	656	2176.816748224905	0
2	659	2181.272143884824	0
2	662	2191.015767123108	0
2	665	2193.14729417011	0.562013812274
2	671	2216.302970030856	0
2	674	2238.295373320736	0
2	677	2240.427983840323	1.534380926074
2	683	2250.628217399151	3.776651469661
2	689	2258.958115237285	5.922978857774
2	692	2262.106056021416	0
2	695	2302.038652871353	0
2	698	2305.771224698835	0
2	701	2339.587636039985	0
2	704	2344.861412254827	0
2	710	2357.57961154859	4.008767572956
2	713	2367.201300745978	0
2	740	2460.828829831763	63.568496431718
2	749	2486.132309158616	22.057005892873
3	111	363.871810582057	18
3	117	409.379054965743	19
3	120	413.77274591188	20
3	126	439.20678994103	21
3	129	451.547205053693	22
3	140	504.830575989091	23
3	141	509.166685144896	24
3	147	521.522771147778	25
3	153	546.613150744559	26
3	165	574.153201851756	27
3	174	601.242045659962	28
3	199	661.966004685167	29
3	200	664.177382035022	30
3	201	666.54036476632	31
3	202	666.855186446274	32
3	203	667.264721739311	33
3	204	667.417771170402	34
3	207	690.948927789064	35
3	210	703.169248514553	36
3	222	743.502214015429	37
3	231	771.353923128755	38
3	242	818.889181806383	39
3	243	819.010073279235	40
3	260	853.718522136018	41
3	261	855.18981879156	42
3	264	869.922054836963	43
3	267	877.814118542657	44
3	270	879.61594443097	45
3	276	949.282500278004	46
3	282	961.278660076211	47
3	291	1016.202159053742	48
3	302	1044.588537558971	49
3	303	1044.690058370442	50
3	318	1091.512689565399	51
3	379	1325.725957882837	52
3	382	1328.742545478643	53
3	383	1330.794987640781	54
3	384	1330.989188846561	55
3	387	1335.010461377744	56
3	422	1426.119549209567	57
3	423	1429.834865750721	58
3	424	1434.590204772735	59
3	425	1435.056905859018	60
3	426	1435.690922200936	61
3	427	1435.936687061544	62
3	428	1437.234967601982	63
3	429	1437.394094522941	64
3	432	1450.955667350732	65
3	435	1462.375771726172	66
3	438	1465.824182029753	67
3	441	1498.798791032652	68
3	450	1528.168278107987	69
3	453	1532.761774322282	70
3	459	1553.098287694211	71
3	462	1560.736230361642	72
3	465	1575.963067745465	73
3	468	1579.194545555314	74
3	477	1596.496553200204	75
3	480	1600.170578978119	76
3	483	1624.226028226435	77
3	486	1626.558358805505	78
3	489	1631.590225595692	79
3	495	1640.891495402646	80
3	500	1651.865934470239	81
3	504	1659.8941815988	82
3	507	1663.075817782549	83
3	513	1669.323692385803	84
3	525	1705.264750277476	85
3	534	1741.464222180309	86
3	543	1756.340032805807	87
3	554	1814.640065580579	88
3	555	1814.91297163312	89
3	566	1854.094570219888	90
3	567	1854.482863443161	91
3	570	1865.836639437217	92
3	575	1869.29542665807	93
3	576	1869.543382466397	94
3	582	1915.504867585541	95
3	585	1926.815178939422	96
3	588	1938.289641486373	97
3	598	1953.993044914611	98
3	599	1953.995992350656	99
3	600	1954.792484100667	100
3	603	1956.874327523867	101
3	608	1978.247952686361	102
3	609	1979.344541678153	103
3	612	2003.284073053625	104
3	618	2036.046385710414	105
3	621	2042.918093539932	106
3	627	2071.211016162978	107
3	636	2100.961471116873	108
3	639	2105.301063017597	109
3	657	2179.091440897504	110
3	660	2181.466404330519	111
3	666	2197.381148533371	112
3	672	2217.517577678964	113
3	677	2240.427983840323	114
3	678	2240.887727442277	115
3	684	2250.654095054951	116
3	690	2261.385157640695	117
3	693	2267.165972365375	118
3	696	2302.514896359004	119
3	699	2306.139370912288	120
3	702	2339.649350302218	121
3	705	2347.881781343449	122
3	711	2357.649873318686	123
3	714	2367.596178482985	124
3	741	2461.406955459322	125
3	750	2487.297877586006	126
4	111	363.871810582057	13.030281441791
4	117	409.379054965743	2.7369517471
4	120	413.77274591188	0.397482219738
4	126	439.20678994103	0.53732341148
4	129	451.547205053693	1.059523215342
4	140	504.830575989091	17.647571496489
4	141	509.166685144896	5.013362796256
4	147	521.522771147778	10.476825357434
4	153	546.613150744559	6.672086590649
4	165	574.153201851756	1.177054985465
4	174	601.242045659962	1.401137376449
4	199	661.966004685167	50.261337265251
4	200	664.177382035022	46.743421259786
4	201	666.54036476632	42.27686207335
4	202	666.855186446274	26.359860291294
4	203	667.264721739311	16.439862621364
4	204	667.417771170402	8.728044687875
4	207	690.948927789064	0.141434841992
4	210	703.169248514553	0.350442599395
4	222	743.502214015429	1.947267782236
4	231	771.353923128755	14.377464464344
4	242	818.889181806383	36.733064026803
4	243	819.010073279235	23.052306200013
4	260	853.718522136018	25.130827435403
4	261	855.18981879156	26.200708085309
4	264	869.922054836963	0.108164414718
4	267	877.814118542657	3.631545423457
4	270	879.61594443097	1.683593954995
4	276	949.282500278004	0.761167539764
4	282	961.278660076211	1.147070054152
4	291	1016.202159053742	21.090102842475
4	302	1044.588537558971	20.434967458009
4	303	1044.690058370442	6.798944142413
4	318	1091.512689565399	3.077698484275
4	379	1325.725957882837	79.209658066805
4	382	1328.742545478643	73.532105356177
4	383	1330.794987640781	73.316310593871
4	384	1330.989188846561	70.975413481638
4	387	1335.010461377744	39.592787946206
4	422	1426.119549209567	97.572512671812
4	423	1429.834865750721	97.258557507953
4	424	1434.590204772735	96.338942137497
4	425	1435.056905859018	86.362209317086
4	426	1435.690922200936	86.839811382961
4	427	1435.936687061544	84.138174708796
4	428	1437.234967601982	35.714841754343
4	429	1437.394094522941	15.662915527752
4	432	1450.955667350732	1.298449732717
4	435	1462.375771726172	0.957525837513
4	438	1465.824182029753	2.127639942495
4	441	1498.798791032652	0.382690866715
4	450	1528.168278107987	7.183436220073
4	453	1532.761774322282	1.265189763907
4	459	1553.098287694211	6.117515808703
4	462	1560.736230361642	0.311517977393
4	465	1575.963067745465	0.653147368232
4	468	1579.194545555314	2.547569506743
4	477	1596.496553200204	0.785419491957
4	480	1600.170578978119	3.343016606286
4	483	1624.226028226435	1.637541538985
4	486	1626.558358805505	0.316914553662
4	489	1631.590225595692	3.938013075805
4	495	1640.891495402646	4.016503118415
4	500	1651.865934470239	5.91096669332
4	504	1659.8941815988	3.764553878098
4	507	1663.075817782549	1.213027246193
4	513	1669.323692385803	0.007554092274
4	525	1705.264750277476	1.253638660663
4	534	1741.464222180309	2.056914121774
4	543	1756.340032805807	7.730772210022
4	554	1814.640065580579	6.644366070503
4	555	1814.91297163312	5.134102020629
4	566	1854.094570219888	17.80290780165
4	567	1854.482863443161	16.805528508374
4	570	1865.836639437217	4.972272979656
4	575	1869.29542665807	1.261413547383
4	576	1869.543382466397	0.945107549853
4	582	1915.504867585541	5.859271912456
4	585	1926.815178939422	3.561764352483
4	588	1938.289641486373	1.729341344187
4	598	1953.993044914611	7.263456082357
4	599	1953.995992350656	5.693147793611
4	600	1954.792484100667	0.900501273264
4	603	1956.874327523867	0.084458830468
4	608	1978.247952686361	5.405278695657
4	609	1979.344541678153	4.69140446052
4	612	2003.284073053625	1.211719457973
4	618	2036.046385710414	2.550093590736
4	621	2042.918093539932	1.897657326444
4	627	2071.211016162978	3.211845924543
4	636	2100.961471116873	10.706535329184
4	639	2105.301063017597	2.059231543796
4	657	2179.091440897504	2.274692672599
4	660	2181.466404330519	0.194260445695
4	666	2197.381148533371	4.795868175535
4	672	2217.517577678964	1.214607648108
4	677	2240.427983840323	2.132610519587
4	678	2240.887727442277	1.994124528028
4	684	2250.654095054951	3.802529125461
4	690	2261.385157640695	8.350021261184
4	693	2267.165972365375	5.059916343959
4	696	2302.514896359004	0.476243487651
4	699	2306.139370912288	0.368146213453
4	702	2339.649350302218	0.061714262233
4	705	2347.881781343449	3.020369088622
4	711	2357.649873318686	4.079029343052
4	714	2367.596178482985	0.394877737007
4	741	2461.406955459322	64.146622059277
4	750	2487.297877586006	23.222574320263
5	113	370.280462470171	0
5	122	431.695952669617	0
5	131	474.147170758762	0
5	134	481.480691986513	0
5	143	510.24761767968	0
5	151	539.94106415391	0
5	155	550.161117734889	0
5	158	557.673753371508	0
5	161	567.956109043973	0
5	167	575.15768250753	0
5	170	580.804250949928	0
5	176	610.465880879532	0
5	189	634.953747810829	22.320078763033
5	192	649.644472549481	28.56620422891
5	195	651.715304709983	19.854702681003
5	212	705.638349697495	0
5	217	709.25244462443	2.586457069494
5	218	721.296711995859	14.060592570041
5	224	751.530606146162	0
5	229	767.721614697765	1.313356687931
5	233	771.611960097243	0
5	240	815.206395929065	19.498155984475
5	247	828.587694700615	0
5	252	840.452396077241	4.757197687748
5	257	845.766980260471	4.520932653161
5	258	848.024150362335	5.520090959715
5	272	940.112090574546	0
5	278	959.878403606532	0
5	286	995.112056211267	0
5	289	1012.580280347089	2.927712766699
5	293	1021.842623488271	0
5	298	1030.080825412411	7.894604403729
5	305	1054.979966281205	0
5	310	1061.972681261829	3.891375639081
5	311	1064.118178400494	3.087870395397
5	314	1081.310136359704	0
5	320	1121.105252247653	0
5	323	1158.332650760421	0
5	326	1174.615342786981	0
5	329	1185.093400042341	0
5	332	1216.561797242015	21.392095777508
5	335	1221.399061453619	0
5	338	1238.355828248703	0
5	357	1266.194578151314	23.20815171161
5	360	1282.741641373157	30.417584356841
5	365	1294.904009645455	42.093597374995
5	370	1298.104646966005	35.483306367975
5	373	1308.988533961057	43.268157997932
5	374	1312.052595965698	37.996361265999
5	375	1319.482876179407	32.398960363522
5	376	1323.713775767033	33.106606728151
5	377	1325.308484168171	30.181949254837
5	389	1338.251262635238	0
5	408	1369.242041025126	24.699957556414
5	409	1375.392937997074	18.801216303952
5	410	1379.212688056794	22.276476841127
5	411	1379.682865629869	17.094285303235
5	412	1391.496062695934	23.433572844536
5	413	1392.582078991834	23.543033915883
5	418	1415.034970290935	4.144793982586
5	443	1503.835474818698	0
5	446	1510.056245344328	0
5	455	1533.178873992729	0
5	470	1585.545449449645	0
5	473	1589.129463026233	0
5	493	1636.874992284231	0
5	502	1656.129627720702	0
5	509	1663.277407136755	0
5	515	1680.310452974527	0
5	518	1691.970041177819	0
5	521	1699.04099763686	2.45411497408
5	527	1719.818776411279	0
5	530	1733.192187457361	6.022614735349
5	536	1742.98295227048	0
5	539	1747.946618758475	0
5	545	1794.976383704355	0
5	550	1807.995699510076	0
5	557	1827.469922869166	0
5	560	1835.994284715025	0
5	578	1889.088743691529	0
5	592	1946.729588832254	0
5	614	2004.62429793366	0
5	623	2054.459779923515	0
5	629	2074.413488317576	0
5	634	2090.254935787689	0
5	641	2118.376201383707	0
5	646	2141.706454569867	18.176487955549
5	647	2146.048135164335	17.922743977543
5	650	2154.331931743961	6.539742085779
5	653	2160.434193921626	0
5	664	2192.585280357836	0
5	668	2205.482816027784	0
5	680	2242.158972086936	0
5	686	2252.357253508174	0
5	707	2349.783810657802	0
5	716	2369.802429443491	0
5	719	2381.692791746694	0
5	722	2395.775553395185	0
5	733	2435.98354353044	38.961247702747
5	736	2444.862537502298	46.86634809805
5	737	2445.640111282682	12.152228229661
5	738	2453.61598536061	19.783368289858
5	739	2458.401830299888	21.343907494215
5	743	2461.518468346402	0
5	748	2485.934691216549	20.205419646344
5	752	2493.276094709187	0
6	151	539.94106415391	3
6	247	828.587694700615	4
6	286	995.112056211267	5
6	389	1338.251262635238	6
6	493	1636.874992284231	7
6	502	1656.129627720702	8
6	550	1807.995699510076	9
6	592	1946.729588832254	10
6	634	2090.254935787689	11
6	664	2192.585280357836	12
7	755	2500	0.0504
8	755	2500	0.0496

