version 2
run factors_calibration_minions-245-20230319-11:55:48-8376
attr configname factors_calibration_minions
attr datetime 20230319-11:55:48
attr experiment factors_calibration_minions
attr inifile omnetpp.ini
attr iterationvars $0=20
attr iterationvarsf 20-
attr measurement $0=20
attr network Network
attr processid 8376
attr repetition 5
attr replication #5
attr resultdir results
attr runnumber 245
attr seedset 5
param *.minion.arrival_mean 20
param *.minion.service_mean 20
param *.boss.arrival_mean 20
param *.boss.service_mean 7
param *.player.recover_rate_x 100
param **.minion.arrival_distribution 0
param **.minion.service_distribution 0
param **.boss.arrival_distribution 0
param **.boss.service_distribution 0

vector 0 Network.player boss_defeated_stat:vector ETV
attr source signal_boss_defeated
vector 1 Network.player boss_response_time_stat:vector ETV
attr source signal_boss_response_time
vector 2 Network.player minion_waiting_time_stat:vector ETV
attr source signal_minion_waiting_time
vector 3 Network.player minion_defeated_stat:vector ETV
attr source signal_minion_defeated
vector 4 Network.player minion_response_time_stat:vector ETV
attr source signal_minion_response_time
vector 5 Network.player minion_recovered_stat:vector ETV
attr source signal_minion_recovered
vector 6 Network.player boss_waiting_time_stat:vector ETV
attr source signal_boss_waiting_time
vector 7 Network.player minion_throughput:vector ETV
attr source signal_minion_throughput
vector 8 Network.player boss_throughput:vector ETV
attr source signal_boss_throughput
0	84	353.215778133134	19
0	95	385.805729446624	20
0	96	385.823004893297	21
0	97	395.656290950936	22
0	103	417.014096144204	23
0	112	457.371219660933	24
0	117	472.507789297158	25
0	118	472.508370977675	26
0	119	475.009193642792	27
0	136	533.873103378641	28
0	139	540.107154971147	29
0	142	543.909647341846	30
0	147	570.763809932529	31
0	150	578.774001876046	32
0	153	591.828551368173	33
0	154	601.606631102973	34
0	161	628.249311009116	35
0	166	644.276052046925	36
0	175	664.875972573098	37
0	176	668.392977485246	38
0	179	671.878446114665	39
0	190	716.612951814598	40
0	196	753.361097086727	41
0	203	803.02211622816	42
0	213	829.748207357926	43
0	223	885.244506445838	44
0	226	888.157100021236	45
0	229	898.365267043975	46
0	234	907.592141893674	47
0	241	922.171766912789	48
0	246	942.123044648134	49
0	254	965.596226278418	50
0	257	982.896791439795	51
0	262	993.662854077182	52
0	267	1020.082009265347	53
0	278	1092.468827548198	54
0	279	1095.446603631074	55
0	282	1111.553012699944	56
0	291	1173.203792520559	57
0	295	1203.613441008598	58
0	314	1282.905880707276	59
0	325	1336.151235981476	60
0	330	1366.679063247587	61
0	340	1413.211867533713	62
0	349	1451.259070759556	63
0	356	1468.470361282677	64
0	357	1469.359046287535	65
0	362	1474.750285143647	66
0	365	1484.942980642715	67
0	370	1507.244465567451	68
0	382	1541.900272730201	69
0	385	1548.302112085749	70
0	390	1571.725170698788	71
0	401	1634.050548404123	72
0	411	1653.654231828509	73
0	418	1671.371793403605	74
0	419	1675.742179100298	75
0	422	1678.965609389964	76
0	429	1692.45848338238	77
0	436	1708.27162757837	78
0	441	1715.53208198594	79
0	448	1742.715883434621	80
0	451	1748.931266035529	81
0	471	1819.322326879577	82
0	478	1829.720897598727	83
0	481	1846.141167642556	84
0	484	1853.607819000477	85
0	487	1856.032970562811	86
0	488	1861.743445819801	87
0	495	1869.292385221659	88
0	496	1870.666595438949	89
0	502	1884.145425949387	90
0	509	1908.098658374148	91
0	522	1951.108589524761	92
0	526	1972.281276615177	93
0	531	1979.685033872791	94
0	536	1985.895347432268	95
0	544	2006.191141058347	96
0	547	2011.16915635615	97
0	559	2044.946189175365	98
0	564	2074.886700585411	99
0	569	2076.460214201954	100
0	574	2096.880535289176	101
0	577	2111.631079649955	102
0	580	2121.693281405972	103
0	583	2131.470493621978	104
0	587	2161.380609563943	105
0	592	2179.859726461811	106
0	597	2195.351237082017	107
0	598	2195.544273953037	108
0	608	2265.704636872232	109
0	613	2295.931155997049	110
0	621	2319.720056637598	111
0	637	2374.422207989344	112
0	640	2378.810616999149	113
0	645	2389.888412163617	114
0	646	2404.670765855099	115
0	655	2444.844354987835	116
0	656	2445.961454607034	117
0	659	2465.033278856989	118
0	662	2470.671138155586	119
0	665	2482.155833515979	120
1	84	353.215778133134	3.716366172253
1	95	385.805729446624	3.89522116128
1	96	385.823004893297	3.700843122167
1	97	395.656290950936	10.197691912648
1	103	417.014096144204	15.081097546221
1	112	457.371219660933	53.078106870756
1	117	472.507789297158	34.603924836351
1	118	472.508370977675	32.740920434296
1	119	475.009193642792	7.904040934738
1	136	533.873103378641	26.094750906653
1	139	540.107154971147	28.136311617132
1	142	543.909647341846	20.268243648989
1	147	570.763809932529	46.999210269345
1	150	578.774001876046	52.248858883432
1	153	591.828551368173	35.731366487988
1	154	601.606631102973	37.150297902983
1	161	628.249311009116	0.471026069802
1	166	644.276052046925	6.05351277036
1	175	664.875972573098	2.444365568603
1	176	668.392977485246	5.956054143531
1	179	671.878446114665	2.377097028774
1	190	716.612951814598	4.57175213665
1	196	753.361097086727	12.100165413103
1	203	803.02211622816	3.470873461735
1	213	829.748207357926	6.887923026055
1	223	885.244506445838	7.700695575193
1	226	888.157100021236	0.819494991469
1	229	898.365267043975	9.877762016372
1	234	907.592141893674	0.003702659431
1	241	922.171766912789	12.556944860822
1	246	942.123044648134	21.35144199702
1	254	965.596226278418	1.322751577338
1	257	982.896791439795	1.06798635973
1	262	993.662854077182	1.669163343954
1	267	1020.082009265347	3.832385170473
1	278	1092.468827548198	14.540122299285
1	279	1095.446603631074	15.144588604822
1	282	1111.553012699944	3.968434281941
1	291	1173.203792520559	14.269982925756
1	295	1203.613441008598	14.616717951574
1	314	1282.905880707276	3.91768276367
1	325	1336.151235981476	4.4521590759
1	330	1366.679063247587	12.352476251187
1	340	1413.211867533713	2.521045761346
1	349	1451.259070759556	8.85726067904
1	356	1468.470361282677	10.206710605884
1	357	1469.359046287535	10.505246692782
1	362	1474.750285143647	0.072783435697
1	365	1484.942980642715	6.351042368728
1	370	1507.244465567451	7.894341072069
1	382	1541.900272730201	0.97287389833
1	385	1548.302112085749	4.466383469629
1	390	1571.725170698788	0.564933981011
1	401	1634.050548404123	7.039016192827
1	411	1653.654231828509	12.453502845313
1	418	1671.371793403605	22.232005224177
1	419	1675.742179100298	23.855414130483
1	422	1678.965609389964	0.988380882244
1	429	1692.45848338238	1.237264449584
1	436	1708.27162757837	12.801724240954
1	441	1715.53208198594	5.558129043505
1	448	1742.715883434621	8.542131656382
1	451	1748.931266035529	7.299550157365
1	471	1819.322326879577	24.070549849578
1	478	1829.720897598727	33.534382727796
1	481	1846.141167642556	35.907467720179
1	484	1853.607819000477	31.86041165505
1	487	1856.032970562811	3.472422369985
1	488	1861.743445819801	7.166931958785
1	495	1869.292385221659	1.116552254201
1	496	1870.666595438949	1.565483031813
1	502	1884.145425949387	1.065982813889
1	509	1908.098658374148	1.926434589179
1	522	1951.108589524761	21.599414933733
1	526	1972.281276615177	4.937312534701
1	531	1979.685033872791	0.002965492084
1	536	1985.895347432268	3.537915097217
1	544	2006.191141058347	2.404454560762
1	547	2011.16915635615	4.61873404825
1	559	2044.946189175365	4.696553654207
1	564	2074.886700585411	21.823693215664
1	569	2076.460214201954	0.21276250618
1	574	2096.880535289176	16.231156853007
1	577	2111.631079649955	25.301551304642
1	580	2121.693281405972	4.933128747264
1	583	2131.470493621978	0.820792341897
1	587	2161.380609563943	12.030922074739
1	592	2179.859726461811	8.540529195909
1	597	2195.351237082017	12.310274184691
1	598	2195.544273953037	12.065912659893
1	608	2265.704636872232	1.846240016176
1	613	2295.931155997049	1.473163549485
1	621	2319.720056637598	0.576488440215
1	637	2374.422207989344	10.324491812982
1	640	2378.810616999149	9.776200622342
1	645	2389.888412163617	10.556113397051
1	646	2404.670765855099	21.672307187089
1	655	2444.844354987835	24.779561119046
1	656	2445.961454607034	10.419688065248
1	659	2465.033278856989	3.723752321821
1	662	2470.671138155586	1.840938099566
1	665	2482.155833515979	11.12104515578
2	84	353.215778133134	25.159587428324
2	85	357.827269156466	9.318291934396
2	88	381.752189546364	32.252777585483
2	97	395.656290950936	23.609939415067
2	98	396.698442683285	14.787934397941
2	119	475.009193642792	73.076195044809
2	154	601.606631102973	169.46415312081
2	155	605.017991689503	163.35730290873
2	156	612.216507275685	148.20813136323
2	161	628.249311009116	149.6234994324
2	166	644.276052046925	164.80934127783
2	167	652.596601649679	151.6738381249
2	168	659.963294456405	152.18494198442
2	176	668.392977485246	130.62084304331
2	179	671.878446114665	129.79659727073
2	180	689.400206215999	113.40162628726
2	181	693.239906513483	110.88354777294
2	182	694.682095786344	81.813559033214
2	185	707.113306073588	79.335021134274
2	190	716.612951814598	78.390412538033
2	191	733.859446002793	95.630925129194
2	196	753.361097086727	90.929490082232
2	197	785.710237147424	120.90102079734
2	200	787.785577212822	118.28422812693
2	203	803.02211622816	107.65540838149
2	204	805.881991294811	97.536975639194
2	213	829.748207357926	117.70700767998
2	214	859.936496891667	118.67556521804
2	223	885.244506445838	138.91335859181
2	226	888.157100021236	101.59742299997
2	229	898.365267043975	98.81402427755
2	234	907.592141893674	91.177587190824
2	246	942.123044648134	119.26276031626
2	251	961.885034718027	137.8884398178
2	254	965.596226278418	140.85256463927
2	257	982.896791439795	110.7499896939
2	262	993.662854077182	119.03438644617
2	267	1020.082009265347	145.42610337172
2	268	1026.708885287193	149.16507441655
2	271	1057.823933322385	170.48632829262
2	272	1060.630595433191	172.14309040559
2	273	1070.028181813789	167.54366950984
2	279	1095.446603631074	187.85816439683
2	282	1111.553012699944	201.93819064798
2	283	1124.955184409684	205.33427846012
2	286	1142.40827788531	217.31919763919
2	291	1173.203792520559	235.24568242642
2	292	1187.045826003727	243.20550173472
2	295	1203.613441008598	253.422623772
2	296	1210.493249229536	246.21977452846
2	303	1221.072089463798	239.24328438373
2	306	1254.319072994777	265.14236391928
2	309	1264.828328543921	272.83463781069
2	314	1282.905880707276	287.4787794741
2	317	1299.780319746365	283.53069565149
2	320	1310.305779877578	255.05222970683
2	325	1336.151235981476	258.22253073256
2	330	1366.679063247587	259.09448482958
2	331	1389.419271630194	247.13284082762
2	340	1413.211867533713	254.42900302155
2	341	1419.524440734705	260.5906311399
2	346	1438.421229133862	249.42450607684
2	349	1451.259070759556	239.37192116916
2	357	1469.359046287535	253.53259920025
2	362	1474.750285143647	254.83439005749
2	365	1484.942980642715	235.61164701043
2	370	1507.244465567451	245.83076183856
2	371	1514.172101771637	239.19791430234
2	382	1541.900272730201	262.91207478659
2	385	1548.302112085749	261.46757629006
2	386	1553.59687610978	246.8094464939
2	387	1568.137928106441	255.51739021176
2	390	1571.725170698788	240.02609379321
2	393	1578.40194722316	229.19244139575
2	394	1582.07645649886	227.74986950246
2	401	1634.050548404123	243.38031962573
2	402	1635.830935564425	232.79845067509
2	419	1675.742179100298	265.89192742317
2	422	1678.965609389964	268.2747876176
2	429	1692.45848338238	268.82751588738
2	436	1708.27162757837	276.94328802513
2	441	1715.53208198594	273.13027190542
2	442	1723.135231551727	269.0549776699
2	443	1731.061748880152	272.79809820336
2	451	1748.931266035529	277.69348852383
2	454	1767.592770943692	292.91526923574
2	488	1861.743445819801	383.15150754581
2	496	1870.666595438949	378.38741555998
2	499	1882.995516543851	383.64539204847
2	502	1884.145425949387	358.85724651689
2	503	1887.700582693925	356.15116832007
2	504	1903.421994597557	366.34473196847
2	509	1908.098658374148	369.62743336044
2	512	1913.00135186231	372.07395303044
2	515	1916.58196047791	372.74623186179
2	522	1951.108589524761	379.94835280698
2	523	1955.84937330926	381.35265466158
2	526	1972.281276615177	368.26497813464
2	531	1979.685033872791	352.67350166149
2	536	1985.895347432268	354.38129998318
2	541	2001.46555503246	360.26482604926
2	544	2006.191141058347	361.56067700423
2	547	2011.16915635615	354.89548590368
2	556	2039.505232531101	375.24568590272
2	559	2044.946189175365	378.82125991065
2	564	2074.886700585411	396.90947207769
2	569	2076.460214201954	396.04210433145
2	577	2111.631079649955	421.54392064578
2	580	2121.693281405972	430.47206247318
2	583	2131.470493621978	436.00059028456
2	584	2136.792804697576	440.5852261197
2	587	2161.380609563943	454.34547469968
2	592	2179.859726461811	469.88577351938
2	598	2195.544273953037	481.07303238698
2	603	2216.698829655724	482.52507787748
2	608	2265.704636872232	522.27235477817
2	609	2267.422308402969	504.27434600106
2	610	2277.204127030441	509.6113351295
2	613	2295.931155997049	512.03433604732
2	616	2306.49582036483	521.59328968219
2	621	2319.720056637598	527.14601042155
2	628	2352.951272088517	557.69949505852
2	640	2378.810616999149	563.8168567227
2	646	2404.670765855099	579.63165124385
2	656	2445.961454607034	620.52195206821
2	659	2465.033278856989	633.62634069818
2	662	2470.671138155586	607.41591999716
2	665	2482.155833515979	613.98000054852
3	85	357.827269156466	8
3	88	381.752189546364	9
3	98	396.698442683285	10
3	155	605.017991689503	11
3	156	612.216507275685	12
3	167	652.596601649679	13
3	168	659.963294456405	14
3	180	689.400206215999	15
3	181	693.239906513483	16
3	182	694.682095786344	17
3	185	707.113306073588	18
3	191	733.859446002793	19
3	197	785.710237147424	20
3	200	787.785577212822	21
3	204	805.881991294811	22
3	214	859.936496891667	23
3	251	961.885034718027	24
3	268	1026.708885287193	25
3	271	1057.823933322385	26
3	272	1060.630595433191	27
3	273	1070.028181813789	28
3	283	1124.955184409684	29
3	286	1142.40827788531	30
3	292	1187.045826003727	31
3	296	1210.493249229536	32
3	303	1221.072089463798	33
3	306	1254.319072994777	34
3	309	1264.828328543921	35
3	317	1299.780319746365	36
3	320	1310.305779877578	37
3	331	1389.419271630194	38
3	341	1419.524440734705	39
3	346	1438.421229133862	40
3	371	1514.172101771637	41
3	386	1553.59687610978	42
3	387	1568.137928106441	43
3	393	1578.40194722316	44
3	394	1582.07645649886	45
3	402	1635.830935564425	46
3	442	1723.135231551727	47
3	443	1731.061748880152	48
3	454	1767.592770943692	49
3	499	1882.995516543851	50
3	503	1887.700582693925	51
3	504	1903.421994597557	52
3	512	1913.00135186231	53
3	515	1916.58196047791	54
3	523	1955.84937330926	55
3	541	2001.46555503246	56
3	556	2039.505232531101	57
3	584	2136.792804697576	58
3	603	2216.698829655724	59
3	609	2267.422308402969	60
3	610	2277.204127030441	61
3	616	2306.49582036483	62
3	628	2352.951272088517	63
4	85	357.827269156466	29.771078451656
4	88	381.752189546364	33.243212324294
4	98	396.698442683285	24.652091147416
4	155	605.017991689503	172.87551370734
4	156	612.216507275685	170.55581849491
4	167	652.596601649679	173.12989088059
4	168	659.963294456405	159.04053093163
4	180	689.400206215999	147.31835737207
4	181	693.239906513483	117.24132658475
4	182	694.682095786344	112.3257370458
4	185	707.113306073588	94.244769320458
4	191	733.859446002793	95.636906726228
4	197	785.710237147424	123.27863014293
4	200	787.785577212822	122.97636086274
4	204	805.881991294811	110.51528344814
4	214	859.936496891667	147.89529721372
4	251	961.885034718027	139.02475038616
4	268	1026.708885287193	152.05297939356
4	271	1057.823933322385	180.28012245174
4	272	1060.630595433191	173.29299040342
4	273	1070.028181813789	181.54067678619
4	283	1124.955184409684	215.34036235772
4	286	1142.40827788531	222.78737193574
4	292	1187.045826003727	249.08771590959
4	296	1210.493249229536	260.30243199294
4	303	1221.072089463798	256.79861476272
4	306	1254.319072994777	272.49026791471
4	309	1264.828328543921	275.65161946843
4	317	1299.780319746365	304.35321851319
4	320	1310.305779877578	294.0561557827
4	331	1389.419271630194	281.83469321219
4	341	1419.524440734705	260.74157622254
4	346	1438.421229133862	279.48741953906
4	371	1514.172101771637	252.75839804275
4	386	1553.59687610978	266.76234031409
4	387	1568.137928106441	261.35049849056
4	393	1578.40194722316	246.70287031758
4	394	1582.07645649886	232.86695067145
4	402	1635.830935564425	245.16070678603
4	442	1723.135231551727	280.73342147121
4	443	1731.061748880152	276.98149499832
4	454	1767.592770943692	296.35499343199
4	499	1882.995516543851	390.71633666488
4	503	1887.700582693925	362.41240326143
4	504	1903.421994597557	371.87258022371
4	512	1913.00135186231	374.53012684861
4	515	1916.58196047791	375.65456164604
4	523	1955.84937330926	384.68913659148
4	541	2001.46555503246	369.95150758337
4	556	2039.505232531101	383.23156207863
4	584	2136.792804697576	441.32290136016
4	603	2216.698829655724	502.22758808967
4	609	2267.422308402969	523.99002630891
4	610	2277.204127030441	514.05616462853
4	616	2306.49582036483	522.5990004151
4	628	2352.951272088517	560.37722587247
5	90	381.910508285344	8
5	100	401.932998597983	9
5	127	507.778352471988	10
5	160	627.778284939314	11
5	163	638.222539276565	12
5	170	662.431607004495	13
5	178	669.501349085891	14
5	189	712.041199677948	15
5	193	741.260931673624	16
5	202	799.551242766425	17
5	208	822.860284331871	18
5	222	877.543810870645	19
5	225	887.337605029767	20
5	228	888.487505027603	21
5	233	907.588439234243	22
5	236	909.614822051967	23
5	253	964.27347470108	24
5	256	981.828805080065	25
5	261	991.993690733228	26
5	266	1016.249624094874	27
5	275	1077.928705248913	28
5	281	1107.584578418003	29
5	290	1158.933809594803	30
5	294	1188.996723057024	31
5	313	1278.988197943606	32
5	324	1331.699076905576	33
5	329	1354.3265869964	34
5	339	1410.690821772367	35
5	348	1442.401810080516	36
5	353	1458.263650676793	37
5	361	1474.67750170795	38
5	364	1478.591938273987	39
5	369	1499.350124495382	40
5	381	1540.927398831871	41
5	384	1543.83572861612	42
5	389	1571.160236717777	43
5	398	1627.011532211296	44
5	404	1641.200728983196	45
5	421	1677.97722850772	46
5	428	1691.221218932796	47
5	431	1695.469903337416	48
5	438	1709.973952942435	49
5	445	1734.173751778239	50
5	464	1795.251777029999	51
5	492	1868.175832967458	52
5	501	1883.079443135498	53
5	508	1906.172223784969	54
5	517	1929.509174591028	55
5	525	1967.343964080476	56
5	530	1979.682068380707	57
5	533	1982.357432335051	58
5	543	2003.786686497585	59
5	546	2006.5504223079	60
5	558	2040.249635521158	61
5	561	2053.063007369747	62
5	568	2076.247451695774	63
5	571	2080.649378436169	64
5	579	2116.760152658708	65
5	582	2130.649701280081	66
5	586	2149.349687489204	67
5	589	2171.319197265902	68
5	594	2183.040962897326	69
5	607	2263.858396856056	70
5	612	2294.457992447564	71
5	620	2319.143568197383	72
5	634	2364.097716176362	73
5	642	2379.332298766566	74
5	648	2420.064793868789	75
5	658	2461.309526535168	76
5	661	2468.83020005602	77
5	664	2471.034788360199	78
6	90	381.910508285344	0
6	95	385.805729446624	3.683567675494
6	96	385.823004893297	0.364405855009
6	100	401.932998597983	0
6	103	417.014096144204	12.720983354027
6	112	457.371219660933	19.467355200126
6	117	472.507789297158	32.740338753779
6	118	472.508370977675	5.403218269621
6	127	507.778352471988	0
6	136	533.873103378641	21.902260024626
6	139	540.107154971147	16.46575127829
6	142	543.909647341846	20.145047678662
6	147	570.763809932529	44.238666939915
6	150	578.774001876046	22.676816995861
6	153	591.828551368173	27.372218168183
6	160	627.778284939314	0
6	163	638.222539276565	0
6	170	662.431607004495	0
6	175	664.875972573098	2.439049231383
6	178	669.501349085891	0
6	189	712.041199677948	0
6	193	741.260931673624	0
6	202	799.551242766425	0
6	208	822.860284331871	0
6	222	877.543810870645	0
6	225	887.337605029767	0
6	228	888.487505027603	0
6	233	907.588439234243	0
6	236	909.614822051967	0
6	241	922.171766912789	1.400164261675
6	253	964.27347470108	0
6	256	981.828805080065	0
6	261	991.993690733228	0
6	266	1016.249624094874	0
6	275	1077.928705248913	0
6	278	1092.468827548198	12.166812521946
6	281	1107.584578418003	0
6	290	1158.933809594803	0
6	294	1188.996723057024	0
6	313	1278.988197943606	0
6	324	1331.699076905576	0
6	329	1354.3265869964	0
6	339	1410.690821772367	0
6	348	1442.401810080516	0
6	353	1458.263650676793	0
6	356	1468.470361282677	9.616561687924
6	361	1474.67750170795	0
6	364	1478.591938273987	0
6	369	1499.350124495382	0
6	381	1540.927398831871	0
6	384	1543.83572861612	0
6	389	1571.160236717777	0
6	398	1627.011532211296	0
6	404	1641.200728983196	0
6	411	1653.654231828509	4.514443649081
6	418	1671.371793403605	19.48502843379
6	421	1677.97722850772	0
6	428	1691.221218932796	0
6	431	1695.469903337416	0
6	438	1709.973952942435	0
6	445	1734.173751778239	0
6	448	1742.715883434621	1.084167556457
6	464	1795.251777029999	0
6	471	1819.322326879577	23.135812008646
6	478	1829.720897598727	19.48719767635
6	481	1846.141167642556	24.393760297129
6	484	1853.607819000477	1.047270807651
6	487	1856.032970562811	1.456456701795
6	492	1868.175832967458	0
6	495	1869.292385221659	0.191272814523
6	501	1883.079443135498	0
6	508	1906.172223784969	0
6	517	1929.509174591028	0
6	525	1967.343964080476	0
6	530	1979.682068380707	0
6	533	1982.357432335051	0
6	543	2003.786686497585	0
6	546	2006.5504223079	0
6	558	2040.249635521158	0
6	561	2053.063007369747	0
6	568	2076.247451695774	0
6	571	2080.649378436169	0
6	574	2096.880535289176	10.551006943863
6	579	2116.760152658708	0
6	582	2130.649701280081	0
6	586	2149.349687489204	0
6	589	2171.319197265902	0
6	594	2183.040962897326	0
6	597	2195.351237082017	11.872875788873
6	607	2263.858396856056	0
6	612	2294.457992447564	0
6	620	2319.143568197383	0
6	634	2364.097716176362	0
6	637	2374.422207989344	5.387791612537
6	642	2379.332298766566	0
6	645	2389.888412163617	6.889953495607
6	648	2420.064793868789	0
6	655	2444.844354987835	9.302588446049
6	658	2461.309526535168	0
6	661	2468.83020005602	0
6	664	2471.034788360199	0
7	670	2500	0.0252
8	670	2500	0.048

