file 23996 1679223311                                           
version 2
run factors_calibration_minions-65-20230319-11:55:11-7476
attr configname factors_calibration_minions
attr datetime 20230319-11:55:11
attr experiment factors_calibration_minions
attr inifile omnetpp.ini
attr iterationvars $0=3
attr iterationvarsf 3-
attr measurement $0=3
attr network Network
attr processid 7476
attr repetition 5
attr replication #5
attr resultdir results
attr runnumber 65
attr seedset 5
param *.minion.arrival_mean 20
param *.minion.service_mean 3
param *.boss.arrival_mean 20
param *.boss.service_mean 7
param *.player.recover_rate_x 100
param **.minion.arrival_distribution 0
param **.minion.service_distribution 0
param **.boss.arrival_distribution 0
param **.boss.service_distribution 0

vector 0 Network.player boss_defeated_stat:vector ETV
attr source signal_boss_defeated
vector 1 Network.player boss_response_time_stat:vector ETV
attr source signal_boss_response_time
vector 2 Network.player minion_waiting_time_stat:vector ETV
attr source signal_minion_waiting_time
vector 3 Network.player minion_defeated_stat:vector ETV
attr source signal_minion_defeated
vector 4 Network.player minion_response_time_stat:vector ETV
attr source signal_minion_response_time
vector 5 Network.player boss_waiting_time_stat:vector ETV
attr source signal_boss_waiting_time
vector 6 Network.player minion_recovered_stat:vector ETV
attr source signal_minion_recovered
vector 7 Network.player minion_throughput:vector ETV
attr source signal_minion_throughput
vector 8 Network.player boss_throughput:vector ETV
attr source signal_boss_throughput
0	1561 2732 86 723 353.215778133134 2482.155833515979 102 19 120 7089 581111
1	4293 3964 86 723 353.215778133134 2482.155833515979 102 0.002965492084 53.078106870756 1159.6289379812 27386.374329242
2	8257 4661 86 728 353.215778133134 2495.435961220486 138 0 66.491668789802 1323.6286178688 41095.402447541
3	12918 3032 87 728 356.531171925214 2495.435961220486 113 10 122 7458 612460
4	15950 4394 87 728 356.531171925214 2495.435961220486 113 0.156322759852 70.037895884961 1435.1265841443 45251.741024316
5	20344 2984 92 722 381.910508285344 2471.034788360199 101 0 44.238666939915 391.60284412887 8611.1108988572
6	23328 632 196 697 712.041199677948 2379.332298766566 24 3 26 348 6196
7	23960 18 729 729 2500 2500 1 0.0488 0.0488 0.0488 0.00238144
8	23978 17 729 729 2500 2500 1 0.048 0.048 0.048 0.002304

