version 2
run factors_calibration_minions-42-20230319-11:55:06-7361
attr configname factors_calibration_minions
attr datetime 20230319-11:55:06
attr experiment factors_calibration_minions
attr inifile omnetpp.ini
attr iterationvars $0=2
attr iterationvarsf 2-
attr measurement $0=2
attr network Network
attr processid 7361
attr repetition 12
attr replication #12
attr resultdir results
attr runnumber 42
attr seedset 12
param *.minion.arrival_mean 20
param *.minion.service_mean 2
param *.boss.arrival_mean 20
param *.boss.service_mean 7
param *.player.recover_rate_x 100
param **.minion.arrival_distribution 0
param **.minion.service_distribution 0
param **.boss.arrival_distribution 0
param **.boss.service_distribution 0

vector 0 Network.player minion_defeated_stat:vector ETV
attr source signal_minion_defeated
vector 1 Network.player minion_response_time_stat:vector ETV
attr source signal_minion_response_time
vector 2 Network.player boss_waiting_time_stat:vector ETV
attr source signal_boss_waiting_time
vector 3 Network.player boss_defeated_stat:vector ETV
attr source signal_boss_defeated
vector 4 Network.player boss_response_time_stat:vector ETV
attr source signal_boss_response_time
vector 5 Network.player minion_waiting_time_stat:vector ETV
attr source signal_minion_waiting_time
vector 6 Network.player minion_recovered_stat:vector ETV
attr source signal_minion_recovered
vector 7 Network.player minion_throughput:vector ETV
attr source signal_minion_throughput
vector 8 Network.player boss_throughput:vector ETV
attr source signal_boss_throughput
0	105	351.051682632095	19
0	128	398.24443260395	20
0	132	403.00279135465	21
0	135	413.954793653164	22
0	138	416.051587245611	23
0	147	441.928621118822	24
0	150	454.05230470928	25
0	153	460.898426188958	26
0	156	490.450253589353	27
0	162	516.984847688459	28
0	165	532.268212690522	29
0	168	543.36588681252	30
0	171	560.832062245389	31
0	180	599.694649101814	32
0	183	614.02277300513	33
0	201	661.630345903587	34
0	207	672.969407847256	35
0	210	694.222833957385	36
0	213	698.762130798665	37
0	216	714.456488782277	38
0	225	723.811897214044	39
0	239	755.34941522893	40
0	240	758.353172072442	41
0	245	761.224728684163	42
0	246	763.684054374781	43
0	251	766.324856288534	44
0	252	772.055273897651	45
0	255	776.382180415258	46
0	261	782.709062056521	47
0	271	804.207871173707	48
0	272	805.085585987227	49
0	273	807.974424261622	50
0	279	826.572658634505	51
0	288	893.633136681163	52
0	297	915.57664801616	53
0	306	928.327629172976	54
0	309	936.664236739014	55
0	321	961.288363006594	56
0	324	969.350500799214	57
0	339	1023.308485842564	58
0	350	1039.087454085806	59
0	351	1043.614714772081	60
0	354	1044.909381040341	61
0	357	1047.870631158451	62
0	363	1074.988964954729	63
0	370	1094.787255091475	64
0	371	1098.498486245928	65
0	372	1098.845912236351	66
0	378	1123.327804072787	67
0	386	1146.228759423084	68
0	389	1155.460642571854	69
0	390	1162.132141844814	70
0	393	1177.706697380418	71
0	406	1205.645588427944	72
0	410	1213.458499803062	73
0	411	1215.978692856002	74
0	414	1222.282966768152	75
0	434	1294.633982182207	76
0	435	1296.825754493666	77
0	438	1323.935745266363	78
0	449	1351.730950129977	79
0	457	1369.885479034151	80
0	458	1371.633734045054	81
0	464	1387.813226433083	82
0	465	1388.760966718927	83
0	483	1452.460038530471	84
0	497	1526.33261138358	85
0	498	1526.450609828814	86
0	504	1560.765474461773	87
0	507	1572.926439208561	88
0	510	1576.611937258487	89
0	516	1626.393220357252	90
0	519	1636.402169568685	91
0	527	1649.941513370941	92
0	528	1651.507944824484	93
0	531	1666.677009036429	94
0	534	1684.857826889785	95
0	537	1719.421115470456	96
0	543	1738.973915952058	97
0	546	1743.644038456436	98
0	552	1789.393007855837	99
0	555	1806.486123805053	100
0	558	1815.55096128979	101
0	570	1851.511668564649	102
0	573	1856.863867622309	103
0	576	1877.372349021442	104
0	579	1878.420744724732	105
0	588	1898.191764167027	106
0	591	1903.24423437871	107
0	594	1918.687968148994	108
0	603	1982.778607556034	109
0	618	2023.677756763912	110
0	621	2033.713938299272	111
0	624	2049.913629179629	112
0	638	2093.358377769638	113
0	639	2093.44864675436	114
0	648	2112.044072521441	115
0	654	2137.249535990226	116
0	663	2160.315171441991	117
0	669	2178.572478097196	118
0	672	2183.289611511559	119
0	675	2185.678639360357	120
0	687	2291.743723867248	121
0	693	2322.009492584325	122
0	696	2336.479781828255	123
0	699	2370.693127087198	124
0	702	2374.687619760546	125
0	717	2440.325372564807	126
0	724	2479.332161165188	127
0	727	2481.953008567738	128
0	730	2482.586102507644	129
0	731	2485.452476958288	130
0	732	2487.25678427082	131
1	105	351.051682632095	4.53115856249
1	128	398.24443260395	28.269829411184
1	132	403.00279135465	2.575615353603
1	135	413.954793653164	2.345254524184
1	138	416.051587245611	1.381421692228
1	147	441.928621118822	0.818140537348
1	150	454.05230470928	1.167555444358
1	153	460.898426188958	0.025392539255
1	156	490.450253589353	3.24333003896
1	162	516.984847688459	0.770592167126
1	165	532.268212690522	3.726484793268
1	168	543.36588681252	1.02060277604
1	171	560.832062245389	0.520492350958
1	180	599.694649101814	0.432027879571
1	183	614.02277300513	6.549175930054
1	201	661.630345903587	0.90079192363
1	207	672.969407847256	0.121450728046
1	210	694.222833957385	0.288854105009
1	213	698.762130798665	0.684524007251
1	216	714.456488782277	1.906211035327
1	225	723.811897214044	0.748410095411
1	239	755.34941522893	11.088974745172
1	240	758.353172072442	4.171119462402
1	245	761.224728684163	1.368883027693
1	246	763.684054374781	3.071880063894
1	251	766.324856288534	2.162911113641
1	252	772.055273897651	6.182436032075
1	255	776.382180415258	1.361665552892
1	261	782.709062056521	2.886822964888
1	271	804.207871173707	13.617170097393
1	272	805.085585987227	2.415287644695
1	273	807.974424261622	5.003755965026
1	279	826.572658634505	2.313926689131
1	288	893.633136681163	0.568991032982
1	297	915.57664801616	4.739578686807
1	306	928.327629172976	9.356457130554
1	309	936.664236739014	0.58051479018
1	321	961.288363006594	0.809476487735
1	324	969.350500799214	0.721711467417
1	339	1023.308485842564	0.09459298547
1	350	1039.087454085806	6.294370764937
1	351	1043.614714772081	9.555960593246
1	354	1044.909381040341	0.579349554399
1	357	1047.870631158451	0.458263646673
1	363	1074.988964954729	4.830065394634
1	370	1094.787255091475	8.938155675684
1	371	1098.498486245928	9.488773058145
1	372	1098.845912236351	8.643384345523
1	378	1123.327804072787	2.027776463529
1	386	1146.228759423084	3.220822598734
1	389	1155.460642571854	11.689797218484
1	390	1162.132141844814	9.068801757622
1	393	1177.706697380418	5.624140980847
1	406	1205.645588427944	21.96000045471
1	410	1213.458499803062	25.813245599943
1	411	1215.978692856002	8.057621547351
1	414	1222.282966768152	5.080302057257
1	434	1294.633982182207	9.633024999507
1	435	1296.825754493666	5.718218881244
1	438	1323.935745266363	6.489923230691
1	449	1351.730950129977	4.719634082806
1	457	1369.885479034151	17.018240122035
1	458	1371.633734045054	15.526658561878
1	464	1387.813226433083	12.503640928678
1	465	1388.760966718927	9.115788138879
1	483	1452.460038530471	3.81181902799
1	497	1526.33261138358	16.600959995457
1	498	1526.450609828814	3.120732328332
1	504	1560.765474461773	0.897072498969
1	507	1572.926439208561	0.280286235178
1	510	1576.611937258487	0.36450103271
1	516	1626.393220357252	2.741086396512
1	519	1636.402169568685	4.506472405753
1	527	1649.941513370941	9.051907416433
1	528	1651.507944824484	8.730653386914
1	531	1666.677009036429	8.893420845763
1	534	1684.857826889785	3.466617785548
1	537	1719.421115470456	4.908453871025
1	543	1738.973915952058	1.677899498582
1	546	1743.644038456436	2.238777508612
1	552	1789.393007855837	0.013387659436
1	555	1806.486123805053	0.219780978499
1	558	1815.55096128979	1.976762772546
1	570	1851.511668564649	1.595632306446
1	573	1856.863867622309	2.927343964039
1	576	1877.372349021442	0.430485371051
1	579	1878.420744724732	0.77094204548
1	588	1898.191764167027	4.25024547157
1	591	1903.24423437871	0.055686406492
1	594	1918.687968148994	1.954125500733
1	603	1982.778607556034	0.190346721158
1	618	2023.677756763912	7.868852576527
1	621	2033.713938299272	0.59092668682
1	624	2049.913629179629	2.541336283124
1	638	2093.358377769638	1.920363654677
1	639	2093.44864675436	1.165100782899
1	648	2112.044072521441	1.708334111595
1	654	2137.249535990226	3.001289857357
1	663	2160.315171441991	0.020439220141
1	669	2178.572478097196	7.244784394493
1	672	2183.289611511559	2.311035590448
1	675	2185.678639360357	1.47567470198
1	687	2291.743723867248	11.576958350886
1	693	2322.009492584325	0.782527349223
1	696	2336.479781828255	5.280285545713
1	699	2370.693127087198	1.028513912906
1	702	2374.687619760546	1.944465453421
1	717	2440.325372564807	17.6385342834
1	724	2479.332161165188	9.137813920142
1	727	2481.953008567738	9.623691138904
1	730	2482.586102507644	9.002788572999
1	731	2485.452476958288	5.1841465467
1	732	2487.25678427082	5.066099069569
2	107	353.492191333855	0
2	110	361.358890033519	0
2	117	372.299479237702	3.519044666022
2	120	380.352000414881	0
2	125	393.09188624001	4.230369833903
2	126	394.432920429907	2.675778736366
2	130	400.427176001047	0
2	140	418.490878757168	0
2	143	425.864307741123	4.229429209567
2	158	498.166435993675	0
2	173	570.157955171208	0
2	176	572.17015635404	0.156458723994
2	185	619.990869827664	0
2	188	626.951996879465	0
2	191	643.369658326367	0
2	194	648.833252517114	0
2	197	656.358877459783	0
2	203	670.89757570658	0
2	218	714.718457972752	0
2	221	717.137631386173	1.477948490566
2	231	738.112029162346	0
2	234	744.260440483758	0
2	237	754.18205261004	0
2	257	776.438308007573	0
2	265	790.590701076314	0
2	275	821.734270542422	0
2	281	836.585368277	0
2	284	845.71735824376	0.067664573297
2	290	898.271736045084	0
2	293	904.094754908129	3.415122204873
2	299	917.623000115617	0
2	304	926.388316361502	5.115879964507
2	311	943.345188572361	0
2	316	949.457071197747	5.743516156835
2	317	949.587293098339	4.800264269074
2	326	975.864205792521	0
2	329	984.367062741265	0.580954937739
2	334	995.467069032555	5.19008402135
2	335	1002.919112131512	11.481033815895
2	341	1031.498604334519	0
2	348	1035.913871405741	0.450450535134
2	359	1050.509505621411	0
2	374	1102.565256430476	0
2	380	1126.178327443082	0
2	395	1181.795656424566	0
2	404	1188.275165556543	5.395847785104
2	408	1207.921071308651	0
2	416	1237.592404539237	0
2	419	1263.979150557185	0
2	422	1277.933263534912	9.461589022027
2	429	1285.334731352916	4.474500091795
2	432	1294.0384198178	12.825260549476
2	440	1334.781804229055	0
2	443	1342.435565038599	0
2	451	1352.867238912116	0
2	460	1375.309585504405	0
2	467	1398.299642162285	0
2	470	1404.77742651609	0
2	473	1425.76906201151	0
2	476	1430.384050855711	0
2	481	1448.648219502481	0
2	485	1492.015021764522	0
2	490	1509.126080026853	12.089470630856
2	495	1523.329877500482	0
2	500	1546.266431360994	0
2	512	1598.33928803856	0
2	521	1640.4232040738	0
2	539	1735.467369980249	0
2	548	1767.330518862194	0
2	560	1822.296353712127	0
2	565	1842.752233381167	9.143123291997
2	566	1844.093623840731	6.261413875533
2	581	1887.823250840407	0
2	584	1891.218272816414	0
2	596	1921.668223527153	0
2	599	1967.396434143435	0
2	605	1993.270757791483	0
2	608	2005.425083293427	0
2	611	2008.092390160378	0
2	614	2014.950917893618	0
2	626	2064.563262874183	0
2	629	2069.515851758278	0
2	632	2083.12083866903	3.793969525867
2	641	2103.346587578668	0
2	646	2110.335738409846	0
2	650	2125.044740041305	0
2	656	2144.225125355446	0
2	659	2150.527057442777	0
2	665	2163.143513135241	0
2	677	2210.697394252604	0
2	680	2221.331535881743	4.737620141035
2	683	2277.88009486364	0
2	689	2314.406601838302	0
2	704	2396.152750829857	0
2	709	2418.357903145574	18.269783303035
2	712	2421.127126428159	6.447418169653
2	715	2429.253213841085	9.421026935016
3	108	359.733270225707	17
3	117	372.299479237702	18
3	118	376.982702434593	19
3	125	393.09188624001	20
3	126	394.432920429907	21
3	127	395.68667742165	22
3	131	402.150114109342	23
3	143	425.864307741123	24
3	144	433.148274214402	25
3	159	503.561572225697	26
3	176	572.17015635404	27
3	177	573.050071832192	28
3	186	623.687241863771	29
3	189	633.563625675107	30
3	192	643.711974037983	31
3	195	650.06041079703	32
3	198	659.09513703652	33
3	204	672.391822429525	34
3	221	717.137631386173	35
3	222	718.456074225932	36
3	232	742.238718745081	37
3	235	753.453661889399	38
3	238	754.617227168914	39
3	260	780.844307382045	40
3	266	800.425856455825	41
3	278	825.480446396644	42
3	284	845.71735824376	43
3	285	845.936402728558	44
3	293	904.094754908129	45
3	294	904.518614682067	46
3	304	926.388316361502	47
3	305	928.023993485186	48
3	316	949.457071197747	49
3	317	949.587293098339	50
3	318	956.722132385722	51
3	329	984.367062741265	52
3	334	995.467069032555	53
3	335	1002.919112131512	54
3	336	1017.173280262846	55
3	348	1035.913871405741	56
3	349	1038.929264589755	57
3	360	1054.095474415339	58
3	375	1105.141427438397	59
3	381	1139.509559602461	60
3	404	1188.275165556543	61
3	405	1203.793727479581	62
3	409	1211.179228996261	63
3	417	1237.786240678127	64
3	422	1277.933263534912	65
3	429	1285.334731352916	66
3	432	1294.0384198178	67
3	433	1294.619070419848	68
3	441	1338.63152070155	69
3	448	1350.732314672809	70
3	456	1367.545286384243	71
3	463	1385.236879654282	72
3	468	1398.434658324639	73
3	471	1422.890759353189	74
3	474	1430.050976638282	75
3	477	1444.219298415333	76
3	482	1449.945056487933	77
3	490	1509.126080026853	78
3	493	1522.081063220751	79
3	496	1523.377931076726	80
3	501	1547.196798933763	81
3	515	1625.311886049968	82
3	526	1649.931794551259	83
3	540	1736.250377014375	84
3	549	1780.499293735395	85
3	565	1842.752233381167	86
3	566	1844.093623840731	87
3	567	1844.940125983162	88
3	582	1890.039788025854	89
3	585	1893.263643708339	90
3	597	1939.473969181493	91
3	600	1975.350103199268	92
3	606	2000.610462100992	93
3	609	2007.345769687596	94
3	612	2010.759622855154	95
3	617	2018.874954685713	96
3	627	2068.316718066363	97
3	632	2083.12083866903	98
3	633	2084.378232043741	99
3	642	2104.021538837267	100
3	647	2111.86639256984	101
3	651	2132.784074122481	102
3	657	2145.762586140515	103
3	660	2154.277877807308	104
3	668	2176.544938381943	105
3	680	2221.331535881743	106
3	681	2229.506699674521	107
3	686	2291.448876803692	108
3	690	2315.16120764554	109
3	709	2418.357903145574	110
3	712	2421.127126428159	111
3	715	2429.253213841085	112
3	716	2435.335400913232	113
4	108	359.733270225707	6.241078891852
4	117	372.299479237702	10.940589204183
4	118	376.982702434593	8.202267862913
4	125	393.09188624001	12.739885825129
4	126	394.432920429907	5.5714040238
4	127	395.68667742165	3.929535728109
4	131	402.150114109342	1.722938108295
4	143	425.864307741123	7.373428983955
4	144	433.148274214402	11.513395682846
4	159	503.561572225697	5.395136232022
4	176	572.17015635404	2.012201182832
4	177	573.050071832192	1.036374202146
4	186	623.687241863771	3.696372036107
4	189	633.563625675107	6.611628795642
4	192	643.711974037983	0.342315711616
4	195	650.06041079703	1.227158279916
4	198	659.09513703652	2.736259576737
4	204	672.391822429525	1.494246722945
4	221	717.137631386173	2.419173413421
4	222	718.456074225932	2.796391330325
4	232	742.238718745081	4.126689582735
4	235	753.453661889399	9.193221405641
4	238	754.617227168914	0.435174558874
4	260	780.844307382045	4.405999374472
4	266	800.425856455825	9.835155379511
4	278	825.480446396644	3.746175854222
4	284	845.71735824376	9.13198996676
4	285	845.936402728558	0.286709058095
4	293	904.094754908129	5.823018863045
4	294	904.518614682067	3.838981978811
4	304	926.388316361502	8.765316245885
4	305	928.023993485186	6.751557088191
4	316	949.457071197747	6.111882625386
4	317	949.587293098339	5.873738057427
4	318	956.722132385722	11.935103556457
4	329	984.367062741265	8.502856948744
4	334	995.467069032555	11.680961229029
4	335	1002.919112131512	12.642127120307
4	336	1017.173280262846	25.735201947229
4	348	1035.913871405741	4.415267071222
4	349	1038.929264589755	3.465843719148
4	360	1054.095474415339	3.585968793928
4	375	1105.141427438397	2.576171007921
4	381	1139.509559602461	13.331232159379
4	404	1188.275165556543	6.479509131977
4	405	1203.793727479581	20.914409708142
4	409	1211.179228996261	3.25815768761
4	417	1237.786240678127	0.19383613889
4	422	1277.933263534912	13.954112977727
4	429	1285.334731352916	16.863056840031
4	432	1294.0384198178	13.178188556679
4	433	1294.619070419848	13.405911151524
4	441	1338.63152070155	3.849716472495
4	448	1350.732314672809	8.29674963421
4	456	1367.545286384243	14.678047472127
4	463	1385.236879654282	9.927294149877
4	468	1398.434658324639	0.135016162354
4	471	1422.890759353189	18.113332837099
4	474	1430.050976638282	4.281914626772
4	477	1444.219298415333	13.835247559622
4	482	1449.945056487933	1.296836985452
4	490	1509.126080026853	17.111058262331
4	493	1522.081063220751	25.044453824754
4	496	1523.377931076726	0.048053576244
4	501	1547.196798933763	0.930367572769
4	515	1625.311886049968	26.972598011408
4	526	1649.931794551259	9.508590477459
4	540	1736.250377014375	0.783007034126
4	549	1780.499293735395	13.168774873201
4	565	1842.752233381167	20.45587966904
4	566	1844.093623840731	10.484513751561
4	567	1844.940125983162	7.107916017964
4	582	1890.039788025854	2.216537185447
4	585	1893.263643708339	2.045370891925
4	597	1939.473969181493	17.80574565434
4	600	1975.350103199268	7.953669055833
4	606	2000.610462100992	7.339704309509
4	609	2007.345769687596	1.920686394169
4	612	2010.759622855154	2.667232694776
4	617	2018.874954685713	3.924036792095
4	627	2068.316718066363	3.75345519218
4	632	2083.12083866903	13.604986910752
4	633	2084.378232043741	5.051362900578
4	642	2104.021538837267	0.674951258599
4	647	2111.86639256984	1.530654159994
4	651	2132.784074122481	7.739334081176
4	657	2145.762586140515	1.537460785069
4	660	2154.277877807308	3.750820364531
4	668	2176.544938381943	13.401425246702
4	680	2221.331535881743	10.634141629139
4	681	2229.506699674521	12.912783933813
4	686	2291.448876803692	13.568781940052
4	690	2315.16120764554	0.754605807238
4	709	2418.357903145574	22.205152315717
4	712	2421.127126428159	21.03900658562
4	715	2429.253213841085	14.573505582579
4	716	2435.335400913232	15.503214007163
5	118	376.982702434593	9.390798795481
5	127	395.68667742165	25.712074228884
5	128	398.24443260395	17.892432189069
5	131	402.150114109342	1.722938108295
5	134	411.60953912898	0
5	137	414.670165553383	0
5	146	441.110480581474	0
5	149	452.884749264922	0
5	152	460.873033649703	0
5	155	487.206923550393	0
5	161	516.214255521333	0
5	164	528.541727897254	0
5	167	542.34528403648	0
5	170	560.311569894431	0
5	179	599.262621222243	0
5	182	607.473597075076	0
5	200	660.729553979957	0
5	206	672.84795711921	0
5	209	693.933979852376	0
5	212	698.077606791414	0
5	215	712.55027774695	0
5	224	723.063487118633	0
5	227	735.107527902688	0
5	232	742.238718745081	4.297568214891
5	235	753.453661889399	15.341632727053
5	238	754.617227168914	10.356786685156
5	239	755.34941522893	1.16736261889
5	242	759.85584565647	0
5	245	761.224728684163	0.612554373276
5	248	764.161945174893	0
5	251	766.324856288534	0.452018422958
5	254	775.020514862366	0
5	260	780.844307382045	1.022068290412
5	263	786.911061029906	0
5	266	800.425856455825	9.835155379511
5	271	804.207871173707	1.537572831175
5	272	805.085585987227	2.114917690631
5	278	825.480446396644	1.22171445127
5	287	893.064145648181	0
5	296	910.837069329353	0
5	305	928.023993485186	9.052821442764
5	308	936.083721948834	0
5	320	960.478886518859	0
5	323	968.628789331797	0
5	338	1023.213892857094	0
5	349	1038.929264589755	6.136181268886
5	350	1039.087454085806	5.028699906971
5	353	1044.330031485942	0
5	356	1047.412367511778	0
5	362	1070.158899560095	0
5	365	1085.849099415791	0
5	370	1094.787255091475	5.777541903692
5	371	1098.498486245928	8.2959583551
5	377	1121.300027609258	0
5	383	1143.00793682435	0
5	386	1146.228759423084	2.457914069714
5	389	1155.460642571854	2.397302484662
5	392	1172.082556399571	0
5	405	1203.793727479581	20.108139506347
5	406	1205.645588427944	18.660907722261
5	409	1211.179228996261	23.533974793142
5	410	1213.458499803062	5.537428494411
5	413	1217.202664710895	0
5	433	1294.619070419848	9.618113237148
5	434	1294.633982182207	3.526446569785
5	437	1317.445822035672	0
5	448	1350.732314672809	3.720998625638
5	449	1351.730950129977	2.402044488318
5	456	1367.545286384243	14.678047472127
5	457	1369.885479034151	13.778403550975
5	458	1371.633734045054	13.081192926298
5	463	1385.236879654282	9.927294149877
5	464	1387.813226433083	8.168047853035
5	479	1445.624087106782	0
5	482	1449.945056487933	1.296836985452
5	493	1522.081063220751	16.305396042592
5	496	1523.377931076726	13.646279688603
5	497	1526.33261138358	3.002733883098
5	503	1559.868401962804	0
5	506	1572.646152973383	0
5	509	1576.247436225777	0
5	515	1625.311886049968	1.659752089228
5	518	1631.895697162932	0
5	526	1649.931794551259	9.042188596751
5	527	1649.941513370941	7.164221933371
5	530	1657.783588190666	0
5	533	1681.391209104237	0
5	536	1714.512661599431	0
5	542	1737.296016453476	0
5	545	1741.405260947824	0
5	551	1789.379620196401	0
5	554	1806.266342826554	0
5	557	1813.574198517244	0
5	569	1849.916036258203	0
5	572	1853.93652365827	0
5	575	1876.941863650391	0
5	578	1877.649802679252	0
5	587	1893.941518695457	0
5	590	1903.188547972218	0
5	593	1916.733842648261	0
5	602	1982.588260834876	0
5	617	2018.874954685713	3.066050498328
5	620	2033.123011612452	0
5	623	2047.372292896505	0
5	635	2091.438014114961	0
5	638	2093.358377769638	1.074831798177
5	644	2106.867317815278	0
5	647	2111.86639256984	1.530654159994
5	653	2134.248246132869	0
5	662	2160.29473222185	0
5	668	2176.544938381943	5.21724467924
5	671	2180.978575921111	0
5	674	2184.202964658377	0
5	686	2291.448876803692	11.28211128733
5	692	2321.226965235102	0
5	695	2331.199496282542	0
5	698	2369.664613174292	0
5	701	2372.743154307125	0
5	716	2435.335400913232	12.648562631825
5	719	2470.194347245046	0
5	724	2479.332161165188	7.002843736354
5	727	2481.953008567738	8.369694633093
5	730	2482.586102507644	2.317772096056
5	731	2485.452476958288	3.261791757037
6	120	380.352000414881	1
6	130	400.427176001047	2
6	231	738.112029162346	3
6	234	744.260440483758	4
6	237	754.18205261004	5
6	265	790.590701076314	6
6	408	1207.921071308651	7
6	451	1352.867238912116	8
6	460	1375.309585504405	9
6	481	1448.648219502481	10
6	495	1523.329877500482	11
6	646	2110.335738409846	12
7	733	2500	0.0524
8	733	2500	0.0452

