file 25115 1679223309                                           
version 2
run factors_calibration_minions-56-20230319-11:55:09-7431
attr configname factors_calibration_minions
attr datetime 20230319-11:55:09
attr experiment factors_calibration_minions
attr inifile omnetpp.ini
attr iterationvars $0=2
attr iterationvarsf 2-
attr measurement $0=2
attr network Network
attr processid 7431
attr repetition 26
attr replication #26
attr resultdir results
attr runnumber 56
attr seedset 26
param *.minion.arrival_mean 20
param *.minion.service_mean 2
param *.boss.arrival_mean 20
param *.boss.service_mean 7
param *.player.recover_rate_x 100
param **.minion.arrival_distribution 0
param **.minion.service_distribution 0
param **.boss.arrival_distribution 0
param **.boss.service_distribution 0

vector 0 Network.player boss_waiting_time_stat:vector ETV
attr source signal_boss_waiting_time
vector 1 Network.player boss_defeated_stat:vector ETV
attr source signal_boss_defeated
vector 2 Network.player boss_response_time_stat:vector ETV
attr source signal_boss_response_time
vector 3 Network.player minion_waiting_time_stat:vector ETV
attr source signal_minion_waiting_time
vector 4 Network.player minion_defeated_stat:vector ETV
attr source signal_minion_defeated
vector 5 Network.player minion_response_time_stat:vector ETV
attr source signal_minion_response_time
vector 6 Network.player minion_recovered_stat:vector ETV
attr source signal_minion_recovered
vector 7 Network.player minion_throughput:vector ETV
attr source signal_minion_throughput
vector 8 Network.player boss_throughput:vector ETV
attr source signal_boss_throughput
0	1564 3254 77 770 360.864535828211 2497.285207450237 105 0 37.020134109906 548.18504213952 11906.97234501
1	4818 2814 78 771 360.986550899831 2498.103102893978 105 12 116 6720 526540
2	7632 4087 78 771 360.986550899831 2498.103102893978 105 0.12201507162 46.782808163425 1322.7610496024 31796.138192622
3	11719 4647 80 767 415.673079967841 2490.415002608561 141 0 195.0753475832 1773.9240326578 140357.74223785
4	16366 3419 81 768 415.677575485594 2490.616848177138 127 15 141 9906 943356
5	19785 4929 81 768 415.677575485594 2490.616848177138 127 0.004495517753 196.6088790759 1980.4342385968 146252.2231557
6	24714 364 121 718 533.662990720296 2272.375387945966 14 1 14 105 1015
7	25078 18 772 772 2500 2500 1 0.0564 0.0564 0.0564 0.00318096
8	25096 18 772 772 2500 2500 1 0.0464 0.0464 0.0464 0.00215296

