file 22773 1679223313                                           
version 2
run factors_calibration_minions-74-20230319-11:55:13-7521
attr configname factors_calibration_minions
attr datetime 20230319-11:55:13
attr experiment factors_calibration_minions
attr inifile omnetpp.ini
attr iterationvars $0=3
attr iterationvarsf 3-
attr measurement $0=3
attr network Network
attr processid 7521
attr repetition 14
attr replication #14
attr resultdir results
attr runnumber 74
attr seedset 14
param *.minion.arrival_mean 20
param *.minion.service_mean 3
param *.boss.arrival_mean 20
param *.boss.service_mean 7
param *.player.recover_rate_x 100
param **.minion.arrival_distribution 0
param **.minion.service_distribution 0
param **.boss.arrival_distribution 0
param **.boss.service_distribution 0

vector 0 Network.player boss_defeated_stat:vector ETV
attr source signal_boss_defeated
vector 1 Network.player boss_response_time_stat:vector ETV
attr source signal_boss_response_time
vector 2 Network.player boss_waiting_time_stat:vector ETV
attr source signal_boss_waiting_time
vector 3 Network.player minion_waiting_time_stat:vector ETV
attr source signal_minion_waiting_time
vector 4 Network.player minion_defeated_stat:vector ETV
attr source signal_minion_defeated
vector 5 Network.player minion_response_time_stat:vector ETV
attr source signal_minion_response_time
vector 6 Network.player minion_recovered_stat:vector ETV
attr source signal_minion_recovered
vector 7 Network.player minion_throughput:vector ETV
attr source signal_minion_throughput
vector 8 Network.player boss_throughput:vector ETV
attr source signal_boss_throughput
0	1564 2676 93 720 354.411155526407 2467.88464691787 100 15 114 6450 499350
1	4240 3885 93 720 354.411155526407 2467.88464691787 100 0.254253496276 25.477853311762 852.30385047932 11157.61318961
2	8125 2918 95 719 357.206506079018 2464.141668652333 99 0 21.022820552648 163.34502957396 1666.7114480647
3	11043 4045 98 725 362.484948516216 2473.231196923321 124 0 50.047015208083 867.03220398373 22976.089716811
4	15088 3001 99 726 364.699951782424 2473.640804725817 112 17 128 8120 705768
5	18089 4338 99 726 364.699951782424 2473.640804725817 112 0.056479941222 53.337807394266 1096.2384022364 28331.15793254
6	22427 309 127 669 465.277290456284 2330.823323660804 12 2 13 90 818
7	22736 18 727 727 2500 2500 1 0.0512 0.0512 0.0512 0.00262144
8	22754 18 727 727 2500 2500 1 0.0456 0.0456 0.0456 0.00207936

