version 2
run analysis_2kr_easy_game_mode-145-20230307-21:31:35-4889
attr configname analysis_2kr_easy_game_mode
attr datetime 20230307-21:31:35
attr experiment analysis_2kr_easy_game_mode
attr inifile omnetpp.ini
attr iterationvars "$0=25, $1=7.5, $2=15, $3=1, $4=100"
attr iterationvarsf 25,7.5,15,1,100-
attr measurement "$0=25, $1=7.5, $2=15, $3=1, $4=100"
attr network Network
attr processid 4889
attr repetition 0
attr replication #0
attr resultdir results
attr runnumber 145
attr seedset 0
param *.boss.arrival_mean 25
param *.boss.service_mean 7.5
param *.minion.arrival_mean 15
param *.minion.service_mean 1
param *.player.recover_rate_x 100
param **.minion.arrival_distribution 0
param **.minion.service_distribution 0
param **.boss.arrival_distribution 0
param **.boss.service_distribution 0

vector 0 Network.player minion_jobs_number_stat:vector ETV
attr source signal_minion_jobs_number
vector 1 Network.player minion_jobs_queue_number_stat:vector ETV
attr source signal_minion_jobs_queue_number
vector 2 Network.player minion_waiting_time_stat:vector ETV
attr source signal_minion_waiting_time
vector 3 Network.player minion_defeated_stat:vector ETV
attr source signal_minion_defeated
vector 4 Network.player minion_response_time_stat:vector ETV
attr source signal_minion_response_time
vector 5 Network.player boss_jobs_number_stat:vector ETV
attr source signal_boss_jobs_number
vector 6 Network.player boss_jobs_queue_number_stat:vector ETV
attr source signal_boss_jobs_queue_number
vector 7 Network.player boss_waiting_time_stat:vector ETV
attr source signal_boss_waiting_time
vector 8 Network.player boss_defeated_stat:vector ETV
attr source signal_boss_defeated
vector 9 Network.player boss_response_time_stat:vector ETV
attr source signal_boss_response_time
vector 10 Network.player minion_recovered_stat:vector ETV
attr source signal_minion_recovered
vector 11 Network.player minion_throughput:vector ETV
attr source signal_minion_throughput
vector 12 Network.player boss_throughput:vector ETV
attr source signal_boss_throughput
0	122	369.303862818423	1
0	128	380.593974518115	1
0	131	390.402213026432	1
0	137	402.993705819936	1
0	140	410.476785955174	1
0	146	449.450597242908	1
0	152	476.576136207032	1
0	155	477.681416539008	1
0	158	483.855086482647	1
0	163	485.222501874511	1
0	170	500.891689499132	1
0	172	501.198073325118	2
0	179	508.086795383946	1
0	185	534.899110335526	1
0	194	582.151659265665	1
0	200	604.738423145226	1
0	203	607.006885950201	1
0	211	637.611599819329	1
0	215	668.224983058005	1
0	227	725.903311095133	1
0	231	735.528948685305	2
0	236	759.607542041228	1
0	247	783.817573164617	1
0	251	793.101515059018	1
0	254	804.125981376865	1
0	257	826.874020986718	1
0	260	843.913105112371	1
0	263	845.801221253942	1
0	266	864.929636787297	1
0	272	880.251114902535	1
0	278	893.335932828167	1
0	282	895.656878035668	2
0	290	907.219397912678	3
0	313	950.635705082484	1
0	317	971.95617528389	1
0	322	983.023584660229	1
0	326	984.702777069719	1
0	329	992.736262873137	1
0	335	1002.361683403604	2
0	340	1006.970888685892	3
0	345	1010.063937916349	4
0	353	1032.387760302624	1
0	360	1052.417113071983	1
0	362	1061.553349419729	2
0	365	1065.214076780777	3
0	373	1077.81909736496	1
0	375	1079.998267774343	2
0	377	1080.282796312359	3
0	384	1086.15935847251	2
0	388	1100.580072558496	3
0	390	1103.012119900185	4
0	398	1117.217070057809	5
0	400	1120.988699038931	6
0	406	1135.381918699455	7
0	411	1142.710274439075	8
0	425	1185.87899975824	1
0	434	1220.812700371453	1
0	437	1237.989784691954	1
0	442	1246.95597584423	1
0	446	1253.638753269998	1
0	452	1267.881172022449	1
0	455	1276.499158123567	1
0	464	1311.394424048982	1
0	469	1329.336041040838	1
0	473	1330.904459427466	1
0	476	1331.836188784462	1
0	482	1384.339394051281	1
0	485	1400.823081064545	1
0	488	1416.705593036859	1
0	491	1433.364554722167	1
0	494	1436.175945712435	1
0	497	1439.719046303676	1
0	500	1446.370106732985	1
0	503	1448.440537059412	1
0	506	1469.276177406277	1
0	509	1474.960606870517	1
0	514	1489.001530267088	1
0	518	1495.783061170457	1
0	521	1501.679749530018	1
0	531	1514.346166432933	1
0	533	1514.933913779129	2
0	542	1523.593778441227	1
0	545	1538.681843518725	1
0	554	1605.499296211366	1
0	557	1653.39349584217	1
0	559	1655.008022464511	2
0	563	1670.875418664795	1
0	566	1674.389941446429	1
0	572	1689.510230127731	1
0	575	1692.148933309115	1
0	587	1772.550438562763	1
0	593	1788.431579289175	1
0	596	1801.510317093561	1
0	599	1805.891525092569	1
0	602	1813.917495248818	1
0	605	1823.336618963685	1
0	608	1832.993333987723	1
0	611	1837.197489114908	1
0	614	1851.850450225968	1
0	617	1854.44736206816	1
0	620	1860.634880516997	1
0	623	1862.389211663884	1
0	626	1879.236736186884	1
0	629	1895.257819144127	1
0	634	1900.98115679474	1
0	636	1903.211840833522	2
0	647	1925.81137083261	1
0	650	1929.094579780219	1
0	661	1973.902428157999	1
0	665	1980.802637524103	1
0	668	1997.096678237277	1
0	676	2022.901653103026	1
0	678	2023.106621779489	2
0	683	2024.638795002363	1
0	688	2039.265324014708	1
0	694	2066.562607803974	1
0	700	2083.359823290283	1
0	702	2084.875344919917	2
0	713	2138.479170505083	1
0	719	2194.71464239885	1
0	725	2226.294461910733	1
0	728	2235.77951085667	1
0	734	2246.468264756668	1
0	743	2302.897174024227	1
0	746	2303.757077920583	1
0	749	2317.684255374104	1
0	752	2326.68345867372	1
0	755	2346.847137756005	1
0	757	2347.149989678197	2
0	760	2347.749634164071	2
0	764	2356.492809997076	1
0	767	2361.478963611532	1
0	778	2419.852515454212	1
0	780	2421.77336693388	2
0	782	2428.454658862677	3
0	788	2433.722300203397	1
0	791	2443.556994468852	1
0	794	2445.452824015232	1
0	797	2462.955926913462	1
0	803	2468.696441146389	1
1	122	369.303862818423	0
1	123	369.679682011081	0
1	128	380.593974518115	0
1	129	381.749854228723	0
1	131	390.402213026432	0
1	132	391.14570271711	0
1	137	402.993705819936	0
1	138	403.222430226529	0
1	140	410.476785955174	0
1	141	411.062789419685	0
1	146	449.450597242908	0
1	147	451.555294539185	0
1	152	476.576136207032	0
1	153	476.836952056971	0
1	155	477.681416539008	0
1	156	477.709186166625	0
1	158	483.855086482647	0
1	159	484.619544735098	0
1	163	485.222501874511	0
1	168	498.538903796088	0
1	170	500.891689499132	0
1	172	501.198073325118	1
1	173	503.344655979353	1
1	174	503.884747029142	0
1	179	508.086795383946	0
1	180	508.697818594954	0
1	185	534.899110335526	0
1	186	535.717117646906	0
1	194	582.151659265665	0
1	195	582.715004497007	0
1	200	604.738423145226	0
1	201	604.889696062898	0
1	203	607.006885950201	0
1	204	609.805864561484	0
1	211	637.611599819329	0
1	213	647.432784088502	0
1	215	668.224983058005	0
1	216	669.731815806998	0
1	227	725.903311095133	0
1	231	735.528948685305	1
1	233	755.180340249916	1
1	234	756.439017461091	0
1	236	759.607542041228	0
1	237	763.057769128514	0
1	247	783.817573164617	0
1	249	788.08100151861	0
1	251	793.101515059018	0
1	252	793.477553681433	0
1	254	804.125981376865	0
1	255	804.22337461599	0
1	257	826.874020986718	0
1	258	828.052724489262	0
1	260	843.913105112371	0
1	261	844.643232817506	0
1	263	845.801221253942	0
1	264	847.891838176901	0
1	266	864.929636787297	0
1	267	866.932267264373	0
1	272	880.251114902535	0
1	273	882.501170771749	0
1	278	893.335932828167	0
1	282	895.656878035668	1
1	290	907.219397912678	2
1	292	913.752756622244	2
1	293	913.841636150835	1
1	294	915.611262561457	0
1	313	950.635705082484	0
1	315	960.313087699295	0
1	317	971.95617528389	0
1	318	972.275072832372	0
1	322	983.023584660229	0
1	324	983.899980279101	0
1	326	984.702777069719	0
1	327	984.763847687882	0
1	329	992.736262873137	0
1	335	1002.361683403604	1
1	340	1006.970888685892	2
1	345	1010.063937916349	3
1	348	1014.823683247761	3
1	349	1015.933947278695	2
1	350	1016.037472630851	1
1	351	1016.936575712263	0
1	353	1032.387760302624	0
1	354	1032.934398994711	0
1	360	1052.417113071983	0
1	362	1061.553349419729	1
1	365	1065.214076780777	2
1	367	1066.737692932168	2
1	368	1069.905151854621	1
1	369	1070.435819500682	0
1	373	1077.81909736496	0
1	375	1079.998267774343	1
1	377	1080.282796312359	2
1	379	1083.191187676258	2
1	380	1083.411274520974	1
1	384	1086.15935847251	1
1	388	1100.580072558496	2
1	390	1103.012119900185	3
1	398	1117.217070057809	4
1	400	1120.988699038931	5
1	406	1135.381918699455	6
1	411	1142.710274439075	7
1	413	1146.064451098795	7
1	414	1146.406419915268	6
1	415	1146.785509389673	5
1	416	1146.93880059403	4
1	417	1148.098759462351	3
1	418	1149.628067621039	2
1	419	1151.427611350038	1
1	420	1151.959556504493	0
1	425	1185.87899975824	0
1	426	1185.897457336239	0
1	434	1220.812700371453	0
1	435	1220.847469171515	0
1	437	1237.989784691954	0
1	438	1239.376656469311	0
1	442	1246.95597584423	0
1	444	1249.742586255824	0
1	446	1253.638753269998	0
1	447	1258.136063938351	0
1	452	1267.881172022449	0
1	453	1268.961853212461	0
1	455	1276.499158123567	0
1	456	1277.87814188471	0
1	464	1311.394424048982	0
1	465	1311.748951726355	0
1	469	1329.336041040838	0
1	471	1330.033391519971	0
1	473	1330.904459427466	0
1	474	1331.495292830172	0
1	476	1331.836188784462	0
1	477	1333.39341065609	0
1	482	1384.339394051281	0
1	483	1384.590582906813	0
1	485	1400.823081064545	0
1	486	1400.932032477637	0
1	488	1416.705593036859	0
1	489	1416.781787679918	0
1	491	1433.364554722167	0
1	492	1433.958569083151	0
1	494	1436.175945712435	0
1	495	1436.809388270325	0
1	497	1439.719046303676	0
1	498	1442.1115069202	0
1	500	1446.370106732985	0
1	501	1446.471223221675	0
1	503	1448.440537059412	0
1	504	1448.788130710926	0
1	506	1469.276177406277	0
1	507	1471.613045206195	0
1	509	1474.960606870517	0
1	510	1475.299968758434	0
1	514	1489.001530267088	0
1	516	1494.238719931329	0
1	518	1495.783061170457	0
1	519	1495.922356076421	0
1	521	1501.679749530018	0
1	522	1502.423767742578	0
1	531	1514.346166432933	0
1	533	1514.933913779129	1
1	539	1523.253849790346	1
1	540	1523.341177223069	0
1	542	1523.593778441227	0
1	543	1524.729580362351	0
1	545	1538.681843518725	0
1	546	1541.169088913446	0
1	554	1605.499296211366	0
1	555	1605.737081571564	0
1	557	1653.39349584217	0
1	559	1655.008022464511	1
1	560	1655.806435900287	1
1	561	1656.115064708628	0
1	563	1670.875418664795	0
1	564	1671.230566362533	0
1	566	1674.389941446429	0
1	567	1675.066375394967	0
1	572	1689.510230127731	0
1	573	1690.388235978035	0
1	575	1692.148933309115	0
1	576	1692.203772402839	0
1	587	1772.550438562763	0
1	588	1773.384946628973	0
1	593	1788.431579289175	0
1	594	1789.285171332159	0
1	596	1801.510317093561	0
1	597	1802.462075218779	0
1	599	1805.891525092569	0
1	600	1806.050202670927	0
1	602	1813.917495248818	0
1	603	1817.053309668386	0
1	605	1823.336618963685	0
1	606	1824.226524704355	0
1	608	1832.993333987723	0
1	609	1833.295762904195	0
1	611	1837.197489114908	0
1	612	1838.400656781975	0
1	614	1851.850450225968	0
1	615	1852.113134589547	0
1	617	1854.44736206816	0
1	618	1854.555319765177	0
1	620	1860.634880516997	0
1	621	1861.397267369944	0
1	623	1862.389211663884	0
1	624	1862.923742697268	0
1	626	1879.236736186884	0
1	627	1882.231231897133	0
1	629	1895.257819144127	0
1	630	1896.443297882873	0
1	634	1900.98115679474	0
1	636	1903.211840833522	1
1	638	1906.37577342287	1
1	639	1906.91051487409	0
1	647	1925.81137083261	0
1	648	1926.589205928111	0
1	650	1929.094579780219	0
1	651	1929.145824085102	0
1	661	1973.902428157999	0
1	663	1977.148873723162	0
1	665	1980.802637524103	0
1	666	1981.570285018459	0
1	668	1997.096678237277	0
1	669	1997.143084257056	0
1	676	2022.901653103026	0
1	678	2023.106621779489	1
1	680	2024.393590758149	1
1	681	2024.544374253596	0
1	683	2024.638795002363	0
1	684	2025.362172772319	0
1	688	2039.265324014708	0
1	690	2044.532060550596	0
1	694	2066.562607803974	0
1	696	2070.454639293549	0
1	700	2083.359823290283	0
1	702	2084.875344919917	1
1	704	2093.366111494237	1
1	705	2094.249342372359	0
1	713	2138.479170505083	0
1	714	2140.62582483197	0
1	719	2194.71464239885	0
1	720	2197.051838738968	0
1	725	2226.294461910733	0
1	726	2227.072705629891	0
1	728	2235.77951085667	0
1	729	2235.92740165694	0
1	734	2246.468264756668	0
1	735	2247.062436089553	0
1	743	2302.897174024227	0
1	744	2303.047155806626	0
1	746	2303.757077920583	0
1	747	2305.983960806547	0
1	749	2317.684255374104	0
1	750	2319.331349934355	0
1	752	2326.68345867372	0
1	753	2327.157605827797	0
1	755	2346.847137756005	0
1	757	2347.149989678197	1
1	758	2347.35409891296	1
1	760	2347.749634164071	1
1	761	2348.127208976182	1
1	762	2348.3079568046	0
1	764	2356.492809997076	0
1	765	2357.549222010647	0
1	767	2361.478963611532	0
1	771	2365.248658546674	0
1	778	2419.852515454212	0
1	780	2421.77336693388	1
1	782	2428.454658862677	2
1	784	2431.599676345938	2
1	785	2432.027028015827	1
1	786	2432.87334633438	0
1	788	2433.722300203397	0
1	789	2435.111848262355	0
1	791	2443.556994468852	0
1	792	2444.572653921567	0
1	794	2445.452824015232	0
1	795	2446.747443842729	0
1	797	2462.955926913462	0
1	798	2463.090962157209	0
1	803	2468.696441146389	0
1	804	2470.844642084686	0
2	122	369.303862818423	0
2	128	380.593974518115	0
2	131	390.402213026432	0
2	137	402.993705819936	0
2	140	410.476785955174	0
2	146	449.450597242908	0
2	152	476.576136207032	0
2	155	477.681416539008	0
2	158	483.855086482647	0
2	167	497.428823477538	12.206321603027
2	170	500.891689499132	0
2	173	503.344655979353	2.146582654235
2	179	508.086795383946	0
2	185	534.899110335526	0
2	194	582.151659265665	0
2	200	604.738423145226	0
2	203	607.006885950201	0
2	212	647.212010871617	9.600411052288
2	215	668.224983058005	0
2	227	725.903311095133	0
2	232	754.115314400115	27.271660437306
2	233	755.180340249916	19.651391564611
2	236	759.607542041228	0
2	248	786.457680159431	2.640106994814
2	251	793.101515059018	0
2	254	804.125981376865	0
2	257	826.874020986718	0
2	260	843.913105112371	0
2	263	845.801221253942	0
2	266	864.929636787297	0
2	272	880.251114902535	0
2	278	893.335932828167	0
2	291	912.641030353744	18.229109363963
2	292	913.752756622244	18.095878586576
2	293	913.841636150835	6.622238238157
2	314	960.27324982014	9.637544737656
2	317	971.95617528389	0
2	323	983.713854990143	0.690270329914
2	326	984.702777069719	0
2	329	992.736262873137	0
2	347	1012.821566065529	19.620164350521
2	348	1014.823683247761	12.461999844157
2	349	1015.933947278695	8.963058592803
2	350	1016.037472630851	5.973534714502
2	353	1032.387760302624	0
2	366	1065.624005304401	13.206892232418
2	367	1066.737692932168	5.184343512439
2	368	1069.905151854621	4.691075073844
2	378	1082.429407653703	4.610310288743
2	379	1083.191187676258	3.192919901915
2	380	1083.411274520974	3.128478208615
2	412	1144.95186878805	61.264662712915
2	413	1146.064451098795	59.905092626285
2	414	1146.406419915268	45.826347356772
2	415	1146.785509389673	43.773389489488
2	416	1146.93880059403	29.721730536221
2	417	1148.098759462351	27.11006042342
2	418	1149.628067621039	14.246148921584
2	419	1151.427611350038	8.717336910963
2	425	1185.87899975824	0
2	434	1220.812700371453	0
2	437	1237.989784691954	0
2	443	1248.764340374231	1.808364530001
2	446	1253.638753269998	0
2	452	1267.881172022449	0
2	455	1276.499158123567	0
2	464	1311.394424048982	0
2	470	1329.704270606909	0.368229566071
2	473	1330.904459427466	0
2	476	1331.836188784462	0
2	482	1384.339394051281	0
2	485	1400.823081064545	0
2	488	1416.705593036859	0
2	491	1433.364554722167	0
2	494	1436.175945712435	0
2	497	1439.719046303676	0
2	500	1446.370106732985	0
2	503	1448.440537059412	0
2	506	1469.276177406277	0
2	509	1474.960606870517	0
2	515	1494.111465399346	5.109935132258
2	518	1495.783061170457	0
2	521	1501.679749530018	0
2	538	1523.23429283529	8.888126402357
2	539	1523.253849790346	8.319936011217
2	542	1523.593778441227	0
2	545	1538.681843518725	0
2	554	1605.499296211366	0
2	557	1653.39349584217	0
2	560	1655.806435900287	0.798413435776
2	563	1670.875418664795	0
2	566	1674.389941446429	0
2	572	1689.510230127731	0
2	575	1692.148933309115	0
2	587	1772.550438562763	0
2	593	1788.431579289175	0
2	596	1801.510317093561	0
2	599	1805.891525092569	0
2	602	1813.917495248818	0
2	605	1823.336618963685	0
2	608	1832.993333987723	0
2	611	1837.197489114908	0
2	614	1851.850450225968	0
2	617	1854.44736206816	0
2	620	1860.634880516997	0
2	623	1862.389211663884	0
2	626	1879.236736186884	0
2	629	1895.257819144127	0
2	637	1905.696411599179	4.715254804439
2	638	1906.37577342287	3.163932589348
2	647	1925.81137083261	0
2	650	1929.094579780219	0
2	662	1975.698637538791	1.796209380792
2	665	1980.802637524103	0
2	668	1997.096678237277	0
2	679	2023.303557616631	0.401904513605
2	680	2024.393590758149	1.28696897866
2	683	2024.638795002363	0
2	689	2042.959901181794	3.694577167086
2	695	2067.561558214626	0.998950410652
2	703	2093.33585704919	9.976033758907
2	704	2093.366111494237	8.49076657432
2	713	2138.479170505083	0
2	719	2194.71464239885	0
2	725	2226.294461910733	0
2	728	2235.77951085667	0
2	734	2246.468264756668	0
2	743	2302.897174024227	0
2	746	2303.757077920583	0
2	749	2317.684255374104	0
2	752	2326.68345867372	0
2	755	2346.847137756005	0
2	758	2347.35409891296	0.204109234763
2	761	2348.127208976182	0.377574812111
2	764	2356.492809997076	0
2	767	2361.478963611532	0
2	770	2363.172283673301	0.49420420833
2	783	2431.151416950491	11.298901496279
2	784	2431.599676345938	9.826309412058
2	785	2432.027028015827	3.57236915315
2	788	2433.722300203397	0
2	791	2443.556994468852	0
2	794	2445.452824015232	0
2	797	2462.955926913462	0
2	803	2468.696441146389	0
3	123	369.679682011081	22
3	129	381.749854228723	23
3	132	391.14570271711	24
3	138	403.222430226529	25
3	141	411.062789419685	26
3	147	451.555294539185	27
3	153	476.836952056971	28
3	156	477.709186166625	29
3	159	484.619544735098	30
3	168	498.538903796088	31
3	173	503.344655979353	32
3	174	503.884747029142	33
3	180	508.697818594954	34
3	186	535.717117646906	35
3	195	582.715004497007	36
3	201	604.889696062898	37
3	204	609.805864561484	38
3	213	647.432784088502	39
3	216	669.731815806998	40
3	233	755.180340249916	41
3	234	756.439017461091	42
3	237	763.057769128514	43
3	249	788.08100151861	44
3	252	793.477553681433	45
3	255	804.22337461599	46
3	258	828.052724489262	47
3	261	844.643232817506	48
3	264	847.891838176901	49
3	267	866.932267264373	50
3	273	882.501170771749	51
3	292	913.752756622244	52
3	293	913.841636150835	53
3	294	915.611262561457	54
3	315	960.313087699295	55
3	318	972.275072832372	56
3	324	983.899980279101	57
3	327	984.763847687882	58
3	348	1014.823683247761	59
3	349	1015.933947278695	60
3	350	1016.037472630851	61
3	351	1016.936575712263	62
3	354	1032.934398994711	63
3	367	1066.737692932168	64
3	368	1069.905151854621	65
3	369	1070.435819500682	66
3	379	1083.191187676258	67
3	380	1083.411274520974	68
3	413	1146.064451098795	69
3	414	1146.406419915268	70
3	415	1146.785509389673	71
3	416	1146.93880059403	72
3	417	1148.098759462351	73
3	418	1149.628067621039	74
3	419	1151.427611350038	75
3	420	1151.959556504493	76
3	426	1185.897457336239	77
3	435	1220.847469171515	78
3	438	1239.376656469311	79
3	444	1249.742586255824	80
3	447	1258.136063938351	81
3	453	1268.961853212461	82
3	456	1277.87814188471	83
3	465	1311.748951726355	84
3	471	1330.033391519971	85
3	474	1331.495292830172	86
3	477	1333.39341065609	87
3	483	1384.590582906813	88
3	486	1400.932032477637	89
3	489	1416.781787679918	90
3	492	1433.958569083151	91
3	495	1436.809388270325	92
3	498	1442.1115069202	93
3	501	1446.471223221675	94
3	504	1448.788130710926	95
3	507	1471.613045206195	96
3	510	1475.299968758434	97
3	516	1494.238719931329	98
3	519	1495.922356076421	99
3	522	1502.423767742578	100
3	539	1523.253849790346	101
3	540	1523.341177223069	102
3	543	1524.729580362351	103
3	546	1541.169088913446	104
3	555	1605.737081571564	105
3	560	1655.806435900287	106
3	561	1656.115064708628	107
3	564	1671.230566362533	108
3	567	1675.066375394967	109
3	573	1690.388235978035	110
3	576	1692.203772402839	111
3	588	1773.384946628973	112
3	594	1789.285171332159	113
3	597	1802.462075218779	114
3	600	1806.050202670927	115
3	603	1817.053309668386	116
3	606	1824.226524704355	117
3	609	1833.295762904195	118
3	612	1838.400656781975	119
3	615	1852.113134589547	120
3	618	1854.555319765177	121
3	621	1861.397267369944	122
3	624	1862.923742697268	123
3	627	1882.231231897133	124
3	630	1896.443297882873	125
3	638	1906.37577342287	126
3	639	1906.91051487409	127
3	648	1926.589205928111	128
3	651	1929.145824085102	129
3	663	1977.148873723162	130
3	666	1981.570285018459	131
3	669	1997.143084257056	132
3	680	2024.393590758149	133
3	681	2024.544374253596	134
3	684	2025.362172772319	135
3	690	2044.532060550596	136
3	696	2070.454639293549	137
3	704	2093.366111494237	138
3	705	2094.249342372359	139
3	714	2140.62582483197	140
3	720	2197.051838738968	141
3	726	2227.072705629891	142
3	729	2235.92740165694	143
3	735	2247.062436089553	144
3	744	2303.047155806626	145
3	747	2305.983960806547	146
3	750	2319.331349934355	147
3	753	2327.157605827797	148
3	758	2347.35409891296	149
3	761	2348.127208976182	150
3	762	2348.3079568046	151
3	765	2357.549222010647	152
3	771	2365.248658546674	153
3	784	2431.599676345938	154
3	785	2432.027028015827	155
3	786	2432.87334633438	156
3	789	2435.111848262355	157
3	792	2444.572653921567	158
3	795	2446.747443842729	159
3	798	2463.090962157209	160
3	804	2470.844642084686	161
4	123	369.679682011081	0.375819192658
4	129	381.749854228723	1.155879710608
4	132	391.14570271711	0.743489690678
4	138	403.222430226529	0.228724406593
4	141	411.062789419685	0.586003464511
4	147	451.555294539185	2.104697296277
4	153	476.836952056971	0.260815849939
4	156	477.709186166625	0.027769627617
4	159	484.619544735098	0.764458252451
4	168	498.538903796088	13.316401921577
4	173	503.344655979353	2.452966480221
4	174	503.884747029142	2.686673704024
4	180	508.697818594954	0.611023211008
4	186	535.717117646906	0.81800731138
4	195	582.715004497007	0.563345231342
4	201	604.889696062898	0.151272917672
4	204	609.805864561484	2.798978611283
4	213	647.432784088502	9.821184269173
4	216	669.731815806998	1.506832748993
4	233	755.180340249916	28.336686287107
4	234	756.439017461091	20.910068775786
4	237	763.057769128514	3.450227087286
4	249	788.08100151861	4.263428353993
4	252	793.477553681433	0.376038622415
4	255	804.22337461599	0.097393239125
4	258	828.052724489262	1.178703502544
4	261	844.643232817506	0.730127705135
4	264	847.891838176901	2.090616922959
4	267	866.932267264373	2.002630477076
4	273	882.501170771749	2.250055869214
4	292	913.752756622244	19.340835632463
4	293	913.841636150835	18.184758115167
4	294	915.611262561457	8.391864648779
4	315	960.313087699295	9.677382616811
4	318	972.275072832372	0.318897548482
4	324	983.899980279101	0.876395618872
4	327	984.763847687882	0.061070618163
4	348	1014.823683247761	21.622281532753
4	349	1015.933947278695	13.572263875091
4	350	1016.037472630851	9.066583944959
4	351	1016.936575712263	6.872637795914
4	354	1032.934398994711	0.546638692087
4	367	1066.737692932168	14.320579860185
4	368	1069.905151854621	8.351802434892
4	369	1070.435819500682	5.221742719905
4	379	1083.191187676258	5.372090311298
4	380	1083.411274520974	3.413006746631
4	413	1146.064451098795	62.37724502366
4	414	1146.406419915268	60.247061442758
4	415	1146.785509389673	46.205436831177
4	416	1146.93880059403	43.926680693845
4	417	1148.098759462351	30.881689404542
4	418	1149.628067621039	28.639368582108
4	419	1151.427611350038	16.045692650583
4	420	1151.959556504493	9.249282065418
4	426	1185.897457336239	0.018457577999
4	435	1220.847469171515	0.034768800062
4	438	1239.376656469311	1.386871777357
4	444	1249.742586255824	2.786610411594
4	447	1258.136063938351	4.497310668353
4	453	1268.961853212461	1.080681190012
4	456	1277.87814188471	1.378983761143
4	465	1311.748951726355	0.354527677373
4	471	1330.033391519971	0.697350479133
4	474	1331.495292830172	0.590833402706
4	477	1333.39341065609	1.557221871628
4	483	1384.590582906813	0.251188855532
4	486	1400.932032477637	0.108951413092
4	489	1416.781787679918	0.076194643059
4	492	1433.958569083151	0.594014360984
4	495	1436.809388270325	0.63344255789
4	498	1442.1115069202	2.392460616524
4	501	1446.471223221675	0.10111648869
4	504	1448.788130710926	0.347593651514
4	507	1471.613045206195	2.336867799918
4	510	1475.299968758434	0.339361887917
4	516	1494.238719931329	5.237189664241
4	519	1495.922356076421	0.139294905964
4	522	1502.423767742578	0.74401821256
4	539	1523.253849790346	8.907683357413
4	540	1523.341177223069	8.40726344394
4	543	1524.729580362351	1.135801921124
4	546	1541.169088913446	2.487245394721
4	555	1605.737081571564	0.237785360198
4	560	1655.806435900287	2.412940058117
4	561	1656.115064708628	1.107042244117
4	564	1671.230566362533	0.355147697738
4	567	1675.066375394967	0.676433948538
4	573	1690.388235978035	0.878005850304
4	576	1692.203772402839	0.054839093724
4	588	1773.384946628973	0.83450806621
4	594	1789.285171332159	0.853592042984
4	597	1802.462075218779	0.951758125218
4	600	1806.050202670927	0.158677578358
4	603	1817.053309668386	3.135814419568
4	606	1824.226524704355	0.88990574067
4	609	1833.295762904195	0.302428916472
4	612	1838.400656781975	1.203167667067
4	615	1852.113134589547	0.262684363579
4	618	1854.555319765177	0.107957697017
4	621	1861.397267369944	0.762386852947
4	624	1862.923742697268	0.534531033384
4	627	1882.231231897133	2.994495710249
4	630	1896.443297882873	1.185478738746
4	638	1906.37577342287	5.39461662813
4	639	1906.91051487409	3.698674040568
4	648	1926.589205928111	0.777835095501
4	651	1929.145824085102	0.051244304883
4	663	1977.148873723162	3.246445565163
4	666	1981.570285018459	0.767647494356
4	669	1997.143084257056	0.046406019779
4	680	2024.393590758149	1.491937655123
4	681	2024.544374253596	1.437752474107
4	684	2025.362172772319	0.723377769956
4	690	2044.532060550596	5.266736535888
4	696	2070.454639293549	3.892031489575
4	704	2093.366111494237	10.006288203954
4	705	2094.249342372359	9.373997452442
4	714	2140.62582483197	2.146654326887
4	720	2197.051838738968	2.337196340118
4	726	2227.072705629891	0.778243719158
4	729	2235.92740165694	0.14789080027
4	735	2247.062436089553	0.594171332885
4	744	2303.047155806626	0.149981782399
4	747	2305.983960806547	2.226882885964
4	750	2319.331349934355	1.647094560251
4	753	2327.157605827797	0.474147154077
4	758	2347.35409891296	0.506961156955
4	761	2348.127208976182	0.977219297985
4	762	2348.3079568046	0.558322640529
4	765	2357.549222010647	1.056412013571
4	771	2365.248658546674	2.570579081703
4	784	2431.599676345938	11.747160891726
4	785	2432.027028015827	10.253661081947
4	786	2432.87334633438	4.418687471703
4	789	2435.111848262355	1.389548058958
4	792	2444.572653921567	1.015659452715
4	795	2446.747443842729	1.294619827497
4	798	2463.090962157209	0.135035243747
4	804	2470.844642084686	2.148200938297
5	125	370.603771219516	1
5	134	394.868077673049	1
5	143	437.49295502607	1
5	149	456.322927738819	1
5	161	485.046315532251	1
5	165	488.659822385218	2
5	176	505.916663594185	1
5	182	523.933637627136	1
5	188	546.029043387715	1
5	191	551.126046311744	1
5	197	582.928254164919	1
5	206	621.395186484024	1
5	209	628.872124735185	1
5	218	676.971610514442	1
5	221	696.724481249524	1
5	224	713.766650832127	1
5	229	726.843653962809	1
5	239	773.705038630802	1
5	242	778.574548514208	1
5	244	780.649456651858	2
5	269	868.008938660007	1
5	275	885.60130839013	1
5	280	894.411920989781	1
5	284	896.099801431139	2
5	287	904.587130001746	2
5	296	918.557884405028	1
5	298	921.64580768241	2
5	301	924.183642524682	2
5	305	929.197625094939	1
5	307	932.597699685602	2
5	311	949.642485626088	1
5	320	972.347158792077	1
5	331	993.201401715008	1
5	333	999.606374551222	2
5	337	1005.876797296833	3
5	342	1008.704494209079	3
5	356	1045.175171811606	1
5	358	1051.396522024245	2
5	371	1072.924313611612	1
5	382	1083.687206075135	1
5	386	1088.27996853132	2
5	392	1104.047778664193	3
5	396	1115.498523488581	2
5	402	1121.131647552772	3
5	408	1136.941115658641	2
5	422	1162.510657702905	1
5	428	1189.062810513555	1
5	431	1205.558997629982	1
5	440	1244.945750650241	1
5	449	1262.537646821182	1
5	458	1289.734040194923	1
5	461	1301.964421116412	1
5	467	1325.699604037716	1
5	479	1365.152621999303	1
5	512	1482.508113685987	1
5	524	1504.19587686062	1
5	526	1507.37707904525	2
5	529	1511.80441830576	2
5	535	1515.825214798535	3
5	548	1545.987308945426	1
5	551	1593.798401005372	1
5	569	1677.28996495809	1
5	578	1695.099534041843	1
5	581	1712.4286317581	1
5	584	1718.552815948064	1
5	590	1773.625848570111	1
5	632	1898.641581290292	1
5	641	1909.090665580181	1
5	644	1918.559935932189	1
5	653	1939.493697544728	1
5	656	1946.978563180686	1
5	659	1960.924134022694	1
5	671	2002.33413389894	1
5	674	2016.684804875417	1
5	686	2027.596139460602	1
5	692	2065.061357545698	1
5	698	2080.831751670568	1
5	707	2100.007202237812	1
5	710	2108.018300581576	1
5	716	2184.856442199698	1
5	722	2224.868444655778	1
5	731	2244.51142103081	1
5	737	2286.580247510418	1
5	739	2288.721779842195	2
5	769	2362.678079464971	1
5	773	2374.084242636429	1
5	776	2417.35809212268	1
5	800	2464.928245471707	1
5	806	2483.0255774281	1
5	809	2496.059055200273	1
6	125	370.603771219516	0
6	126	379.505262441126	0
6	134	394.868077673049	0
6	135	395.095564671097	0
6	143	437.49295502607	0
6	144	438.671106211667	0
6	149	456.322927738819	0
6	150	460.900469230782	0
6	161	485.046315532251	0
6	165	488.659822385218	1
6	166	489.57347690381	1
6	167	497.428823477538	0
6	176	505.916663594185	0
6	177	507.737715187547	0
6	182	523.933637627136	0
6	183	526.381677200791	0
6	188	546.029043387715	0
6	189	549.30510968788	0
6	191	551.126046311744	0
6	192	559.584537400386	0
6	197	582.928254164919	0
6	198	588.017202380798	0
6	206	621.395186484024	0
6	207	628.097972138598	0
6	209	628.872124735185	0
6	212	647.212010871617	0
6	218	676.971610514442	0
6	219	677.153666492716	0
6	221	696.724481249524	0
6	222	707.612174621178	0
6	224	713.766650832127	0
6	225	719.904497724198	0
6	229	726.843653962809	0
6	232	754.115314400115	0
6	239	773.705038630802	0
6	240	775.955754080869	0
6	242	778.574548514208	0
6	244	780.649456651858	1
6	245	782.435306922523	1
6	248	786.457680159431	0
6	269	868.008938660007	0
6	270	874.044088401243	0
6	275	885.60130839013	0
6	276	888.101898724077	0
6	280	894.411920989781	0
6	284	896.099801431139	1
6	285	897.155444157763	1
6	287	904.587130001746	1
6	288	906.015620769927	1
6	291	912.641030353744	0
6	296	918.557884405028	0
6	298	921.64580768241	1
6	299	922.912602224523	1
6	301	924.183642524682	1
6	302	925.323652977537	1
6	303	926.603388792806	0
6	305	929.197625094939	0
6	307	932.597699685602	1
6	308	933.744500438822	1
6	309	939.644651113111	0
6	311	949.642485626088	0
6	314	960.27324982014	0
6	320	972.347158792077	0
6	323	983.713854990143	0
6	331	993.201401715008	0
6	333	999.606374551222	1
6	337	1005.876797296833	2
6	338	1005.961847175204	2
6	342	1008.704494209079	2
6	343	1008.705401748933	2
6	346	1010.939256393545	1
6	347	1012.821566065529	0
6	356	1045.175171811606	0
6	358	1051.396522024245	1
6	363	1061.94168506412	1
6	366	1065.624005304401	0
6	371	1072.924313611612	0
6	378	1082.429407653703	0
6	382	1083.687206075135	0
6	386	1088.27996853132	1
6	392	1104.047778664193	2
6	393	1104.348842171384	2
6	394	1104.5050667729	1
6	396	1115.498523488581	1
6	402	1121.131647552772	2
6	403	1132.476399001502	2
6	404	1133.631305833554	1
6	408	1136.941115658641	1
6	409	1142.000646637221	1
6	412	1144.95186878805	0
6	422	1162.510657702905	0
6	423	1179.995673787608	0
6	428	1189.062810513555	0
6	429	1201.476144789735	0
6	431	1205.558997629982	0
6	432	1219.577894675146	0
6	440	1244.945750650241	0
6	443	1248.764340374231	0
6	449	1262.537646821182	0
6	450	1266.098688918296	0
6	458	1289.734040194923	0
6	459	1293.880538445805	0
6	461	1301.964421116412	0
6	462	1302.690045578361	0
6	467	1325.699604037716	0
6	470	1329.704270606909	0
6	479	1365.152621999303	0
6	480	1373.099737091401	0
6	512	1482.508113685987	0
6	515	1494.111465399346	0
6	524	1504.19587686062	0
6	526	1507.37707904525	1
6	527	1510.316515852685	1
6	529	1511.80441830576	1
6	535	1515.825214798535	2
6	536	1519.693362765893	2
6	537	1523.058875556598	1
6	538	1523.23429283529	0
6	548	1545.987308945426	0
6	549	1547.899528281867	0
6	551	1593.798401005372	0
6	552	1596.644329548742	0
6	569	1677.28996495809	0
6	570	1681.203102139358	0
6	578	1695.099534041843	0
6	579	1701.304254993762	0
6	581	1712.4286317581	0
6	582	1717.175237247863	0
6	584	1718.552815948064	0
6	585	1728.894949465235	0
6	590	1773.625848570111	0
6	591	1775.978329637713	0
6	632	1898.641581290292	0
6	637	1905.696411599179	0
6	641	1909.090665580181	0
6	642	1911.6783045941	0
6	644	1918.559935932189	0
6	645	1920.265027394871	0
6	653	1939.493697544728	0
6	654	1944.083028872633	0
6	656	1946.978563180686	0
6	657	1954.930439472727	0
6	659	1960.924134022694	0
6	662	1975.698637538791	0
6	671	2002.33413389894	0
6	672	2010.484697551162	0
6	674	2016.684804875417	0
6	679	2023.303557616631	0
6	686	2027.596139460602	0
6	689	2042.959901181794	0
6	692	2065.061357545698	0
6	695	2067.561558214626	0
6	698	2080.831751670568	0
6	703	2093.33585704919	0
6	707	2100.007202237812	0
6	708	2102.449944661836	0
6	710	2108.018300581576	0
6	711	2111.532831886346	0
6	716	2184.856442199698	0
6	717	2189.403514430458	0
6	722	2224.868444655778	0
6	723	2225.454778935855	0
6	731	2244.51142103081	0
6	732	2246.235891895699	0
6	737	2286.580247510418	0
6	739	2288.721779842195	1
6	740	2297.301719822722	1
6	741	2298.988233054702	0
6	769	2362.678079464971	0
6	770	2363.172283673301	0
6	773	2374.084242636429	0
6	774	2379.496383522508	0
6	776	2417.35809212268	0
6	783	2431.151416950491	0
6	800	2464.928245471707	0
6	801	2465.612775376872	0
6	806	2483.0255774281	0
6	807	2491.873441700709	0
6	809	2496.059055200273	0
7	125	370.603771219516	0
7	134	394.868077673049	0
7	143	437.49295502607	0
7	149	456.322927738819	0
7	161	485.046315532251	0
7	166	489.57347690381	0.913654518592
7	176	505.916663594185	0
7	182	523.933637627136	0
7	188	546.029043387715	0
7	191	551.126046311744	0
7	197	582.928254164919	0
7	206	621.395186484024	0
7	209	628.872124735185	0
7	218	676.971610514442	0
7	221	696.724481249524	0
7	224	713.766650832127	0
7	229	726.843653962809	0
7	239	773.705038630802	0
7	242	778.574548514208	0
7	245	782.435306922523	1.785850270665
7	269	868.008938660007	0
7	275	885.60130839013	0
7	280	894.411920989781	0
7	285	897.155444157763	1.055642726624
7	288	906.015620769927	1.428490768181
7	296	918.557884405028	0
7	299	922.912602224523	1.266794542113
7	302	925.323652977537	1.140010452855
7	305	929.197625094939	0
7	308	933.744500438822	1.14680075322
7	311	949.642485626088	0
7	320	972.347158792077	0
7	331	993.201401715008	0
7	338	1005.961847175204	6.355472623982
7	343	1008.705401748933	2.8286044521
7	346	1010.939256393545	2.234762184466
7	356	1045.175171811606	0
7	363	1061.94168506412	10.545163039875
7	371	1072.924313611612	0
7	382	1083.687206075135	0
7	393	1104.348842171384	16.068873640064
7	394	1104.5050667729	0.457288108707
7	403	1132.476399001502	16.977875512921
7	404	1133.631305833554	12.499658280782
7	409	1142.000646637221	5.05953097858
7	422	1162.510657702905	0
7	428	1189.062810513555	0
7	431	1205.558997629982	0
7	440	1244.945750650241	0
7	449	1262.537646821182	0
7	458	1289.734040194923	0
7	461	1301.964421116412	0
7	467	1325.699604037716	0
7	479	1365.152621999303	0
7	512	1482.508113685987	0
7	524	1504.19587686062	0
7	527	1510.316515852685	2.939436807435
7	536	1519.693362765893	7.888944460133
7	537	1523.058875556598	7.233660758063
7	548	1545.987308945426	0
7	551	1593.798401005372	0
7	569	1677.28996495809	0
7	578	1695.099534041843	0
7	581	1712.4286317581	0
7	584	1718.552815948064	0
7	590	1773.625848570111	0
7	632	1898.641581290292	0
7	641	1909.090665580181	0
7	644	1918.559935932189	0
7	653	1939.493697544728	0
7	656	1946.978563180686	0
7	659	1960.924134022694	0
7	671	2002.33413389894	0
7	674	2016.684804875417	0
7	686	2027.596139460602	0
7	692	2065.061357545698	0
7	698	2080.831751670568	0
7	707	2100.007202237812	0
7	710	2108.018300581576	0
7	716	2184.856442199698	0
7	722	2224.868444655778	0
7	731	2244.51142103081	0
7	737	2286.580247510418	0
7	740	2297.301719822722	8.579939980527
7	769	2362.678079464971	0
7	773	2374.084242636429	0
7	776	2417.35809212268	0
7	800	2464.928245471707	0
7	806	2483.0255774281	0
7	809	2496.059055200273	0
8	126	379.505262441126	20
8	135	395.095564671097	21
8	144	438.671106211667	22
8	150	460.900469230782	23
8	166	489.57347690381	24
8	167	497.428823477538	25
8	177	507.737715187547	26
8	183	526.381677200791	27
8	189	549.30510968788	28
8	192	559.584537400386	29
8	198	588.017202380798	30
8	207	628.097972138598	31
8	212	647.212010871617	32
8	219	677.153666492716	33
8	222	707.612174621178	34
8	225	719.904497724198	35
8	232	754.115314400115	36
8	240	775.955754080869	37
8	245	782.435306922523	38
8	248	786.457680159431	39
8	270	874.044088401243	40
8	276	888.101898724077	41
8	285	897.155444157763	42
8	288	906.015620769927	43
8	291	912.641030353744	44
8	299	922.912602224523	45
8	302	925.323652977537	46
8	303	926.603388792806	47
8	308	933.744500438822	48
8	309	939.644651113111	49
8	314	960.27324982014	50
8	323	983.713854990143	51
8	338	1005.961847175204	52
8	343	1008.705401748933	53
8	346	1010.939256393545	54
8	347	1012.821566065529	55
8	363	1061.94168506412	56
8	366	1065.624005304401	57
8	378	1082.429407653703	58
8	393	1104.348842171384	59
8	394	1104.5050667729	60
8	403	1132.476399001502	61
8	404	1133.631305833554	62
8	409	1142.000646637221	63
8	412	1144.95186878805	64
8	423	1179.995673787608	65
8	429	1201.476144789735	66
8	432	1219.577894675146	67
8	443	1248.764340374231	68
8	450	1266.098688918296	69
8	459	1293.880538445805	70
8	462	1302.690045578361	71
8	470	1329.704270606909	72
8	480	1373.099737091401	73
8	515	1494.111465399346	74
8	527	1510.316515852685	75
8	536	1519.693362765893	76
8	537	1523.058875556598	77
8	538	1523.23429283529	78
8	549	1547.899528281867	79
8	552	1596.644329548742	80
8	570	1681.203102139358	81
8	579	1701.304254993762	82
8	582	1717.175237247863	83
8	585	1728.894949465235	84
8	591	1775.978329637713	85
8	637	1905.696411599179	86
8	642	1911.6783045941	87
8	645	1920.265027394871	88
8	654	1944.083028872633	89
8	657	1954.930439472727	90
8	662	1975.698637538791	91
8	672	2010.484697551162	92
8	679	2023.303557616631	93
8	689	2042.959901181794	94
8	695	2067.561558214626	95
8	703	2093.33585704919	96
8	708	2102.449944661836	97
8	711	2111.532831886346	98
8	717	2189.403514430458	99
8	723	2225.454778935855	100
8	732	2246.235891895699	101
8	740	2297.301719822722	102
8	741	2298.988233054702	103
8	770	2363.172283673301	104
8	774	2379.496383522508	105
8	783	2431.151416950491	106
8	801	2465.612775376872	107
8	807	2491.873441700709	108
9	126	379.505262441126	8.90149122161
9	135	395.095564671097	0.227486998048
9	144	438.671106211667	1.178151185597
9	150	460.900469230782	4.577541491963
9	166	489.57347690381	4.527161371559
9	167	497.428823477538	8.76900109232
9	177	507.737715187547	1.821051593362
9	183	526.381677200791	2.448039573655
9	189	549.30510968788	3.276066300165
9	192	559.584537400386	8.458491088642
9	198	588.017202380798	5.088948215879
9	207	628.097972138598	6.702785654574
9	212	647.212010871617	18.339886136432
9	219	677.153666492716	0.182055978274
9	222	707.612174621178	10.887693371654
9	225	719.904497724198	6.137846892071
9	232	754.115314400115	27.271660437306
9	240	775.955754080869	2.250715450067
9	245	782.435306922523	3.860758408315
9	248	786.457680159431	5.808223507573
9	270	874.044088401243	6.035149741236
9	276	888.101898724077	2.500590333947
9	285	897.155444157763	2.743523167982
9	288	906.015620769927	9.915819338788
9	291	912.641030353744	8.053900351998
9	299	922.912602224523	4.354717819495
9	302	925.323652977537	3.677845295127
9	303	926.603388792806	2.419746268124
9	308	933.744500438822	4.546875343883
9	309	939.644651113111	7.046951427509
9	314	960.27324982014	10.630764194052
9	323	983.713854990143	11.366696198066
9	338	1005.961847175204	12.760445460196
9	343	1008.705401748933	9.099027197711
9	346	1010.939256393545	5.062459096712
9	347	1012.821566065529	4.11707185645
9	363	1061.94168506412	16.766513252514
9	366	1065.624005304401	14.227483280156
9	378	1082.429407653703	9.505094042091
9	393	1104.348842171384	20.661636096249
9	394	1104.5050667729	16.22509824158
9	403	1132.476399001502	28.428620337309
9	404	1133.631305833554	18.132782344973
9	409	1142.000646637221	20.868999084449
9	412	1144.95186878805	8.010753129409
9	423	1179.995673787608	17.485016084703
9	429	1201.476144789735	12.41333427618
9	432	1219.577894675146	14.018897045164
9	443	1248.764340374231	3.81858972399
9	450	1266.098688918296	3.561042097114
9	459	1293.880538445805	4.146498250882
9	462	1302.690045578361	0.725624461949
9	470	1329.704270606909	4.004666569193
9	480	1373.099737091401	7.947115092098
9	515	1494.111465399346	11.603351713359
9	527	1510.316515852685	6.120638992065
9	536	1519.693362765893	12.316283720643
9	537	1523.058875556598	11.254457250838
9	538	1523.23429283529	7.409078036755
9	549	1547.899528281867	1.912219336441
9	552	1596.644329548742	2.84592854337
9	570	1681.203102139358	3.913137181268
9	579	1701.304254993762	6.204720951919
9	582	1717.175237247863	4.746605489763
9	585	1728.894949465235	10.342133517171
9	591	1775.978329637713	2.352481067602
9	637	1905.696411599179	7.054830308887
9	642	1911.6783045941	2.587639013919
9	645	1920.265027394871	1.705091462682
9	654	1944.083028872633	4.589331327905
9	657	1954.930439472727	7.951876292041
9	662	1975.698637538791	14.774503516097
9	672	2010.484697551162	8.150563652222
9	679	2023.303557616631	6.618752741214
9	689	2042.959901181794	15.363761721192
9	695	2067.561558214626	2.500200668928
9	703	2093.33585704919	12.504105378622
9	708	2102.449944661836	2.442742424024
9	711	2111.532831886346	3.51453130477
9	717	2189.403514430458	4.54707223076
9	723	2225.454778935855	0.586334280077
9	732	2246.235891895699	1.724470864889
9	740	2297.301719822722	10.721472312304
9	741	2298.988233054702	10.266453212507
9	770	2363.172283673301	0.49420420833
9	774	2379.496383522508	5.412140886079
9	783	2431.151416950491	13.793324827811
9	801	2465.612775376872	0.684529905165
9	807	2491.873441700709	8.847864272609
10	229	726.843653962809	2
10	280	894.411920989781	3
10	331	993.201401715008	4
10	382	1083.687206075135	5
10	769	2362.678079464971	6
11	810	2500	0.0644
12	810	2500	0.0432

