version 2
run analysis_2kr_easy_game_mode-126-20230307-21:31:32-4791
attr configname analysis_2kr_easy_game_mode
attr datetime 20230307-21:31:32
attr experiment analysis_2kr_easy_game_mode
attr inifile omnetpp.ini
attr iterationvars "$0=25, $1=7.5, $2=10, $3=1, $4=100"
attr iterationvarsf 25,7.5,10,1,100-
attr measurement "$0=25, $1=7.5, $2=10, $3=1, $4=100"
attr network Network
attr processid 4791
attr repetition 1
attr replication #1
attr resultdir results
attr runnumber 126
attr seedset 1
param *.boss.arrival_mean 25
param *.boss.service_mean 7.5
param *.minion.arrival_mean 10
param *.minion.service_mean 1
param *.player.recover_rate_x 100
param **.minion.arrival_distribution 0
param **.minion.service_distribution 0
param **.boss.arrival_distribution 0
param **.boss.service_distribution 0

vector 0 Network.player minion_jobs_number_stat:vector ETV
attr source signal_minion_jobs_number
vector 1 Network.player minion_jobs_queue_number_stat:vector ETV
attr source signal_minion_jobs_queue_number
vector 2 Network.player minion_waiting_time_stat:vector ETV
attr source signal_minion_waiting_time
vector 3 Network.player minion_defeated_stat:vector ETV
attr source signal_minion_defeated
vector 4 Network.player minion_response_time_stat:vector ETV
attr source signal_minion_response_time
vector 5 Network.player boss_jobs_number_stat:vector ETV
attr source signal_boss_jobs_number
vector 6 Network.player boss_jobs_queue_number_stat:vector ETV
attr source signal_boss_jobs_queue_number
vector 7 Network.player boss_waiting_time_stat:vector ETV
attr source signal_boss_waiting_time
vector 8 Network.player boss_defeated_stat:vector ETV
attr source signal_boss_defeated
vector 9 Network.player boss_response_time_stat:vector ETV
attr source signal_boss_response_time
vector 10 Network.player minion_recovered_stat:vector ETV
attr source signal_minion_recovered
vector 11 Network.player minion_throughput:vector ETV
attr source signal_minion_throughput
vector 12 Network.player boss_throughput:vector ETV
attr source signal_boss_throughput
0	116	354.557151855681	1
0	122	363.823894831212	1
0	125	365.613274632813	1
0	128	370.585233872072	1
0	134	379.681710898725	1
0	140	396.392065199602	1
0	142	396.482332329256	2
0	146	405.963380670505	1
0	151	410.850292778012	1
0	153	413.949212177533	2
0	155	414.400860177836	3
0	164	424.726697612854	1
0	170	456.111867721576	1
0	176	472.775236854993	1
0	179	478.504847620427	1
0	181	478.696928021011	2
0	187	508.451775855767	1
0	189	508.857708167273	2
0	196	524.28980936815	1
0	200	553.294729384193	1
0	206	573.415496850299	1
0	209	579.327708019238	1
0	212	581.229214307217	1
0	215	587.051509254189	1
0	217	587.830568865482	2
0	221	588.51024789307	3
0	223	597.69174064835	4
0	225	599.625904239714	5
0	230	601.464798297421	6
0	241	621.555207288251	1
0	248	634.774522045433	1
0	256	653.323311617842	1
0	258	658.573298451177	2
0	266	684.49641219479	1
0	269	692.002243623595	1
0	274	712.428054766382	1
0	278	740.165402144317	1
0	281	758.199070333875	1
0	284	765.574160589746	1
0	287	768.598356354349	1
0	289	769.743416064392	2
0	291	770.107547801784	3
0	294	771.829954097869	3
0	299	774.42754541804	1
0	302	782.306578941402	1
0	305	784.678757195726	1
0	308	792.11062420985	1
0	311	794.103925195273	1
0	314	804.254275049714	1
0	317	808.053947914704	1
0	320	813.187159306011	1
0	323	815.945202965973	1
0	328	826.437857566554	1
0	330	831.143790537557	2
0	332	836.200513181557	3
0	335	846.215295774186	4
0	341	855.994726423543	1
0	344	858.518294259223	1
0	347	873.102858222541	1
0	349	874.596576772936	2
0	353	876.56858066659	1
0	356	885.172340007252	1
0	361	889.881592834636	1
0	363	894.21520461275	2
0	368	901.197466405341	1
0	371	907.503892790405	1
0	374	919.108782958971	1
0	377	923.552397120488	1
0	380	926.478400633381	1
0	383	927.346722870158	1
0	389	935.437711264658	1
0	392	938.35340222437	1
0	397	948.159850924412	1
0	399	948.645510515757	2
0	407	971.23130375891	1
0	412	997.739497752726	1
0	414	1002.247055797812	2
0	416	1004.940780636881	3
0	422	1015.089663101238	1
0	425	1031.744717209477	1
0	427	1033.869800367338	2
0	431	1035.218628114189	1
0	436	1042.10607936867	1
0	438	1042.89333419035	2
0	440	1044.907710098221	3
0	442	1056.478227078671	4
0	451	1081.535408919244	1
0	455	1110.924019657824	1
0	458	1116.577226252923	1
0	461	1120.370427437659	1
0	467	1138.101066537554	1
0	476	1158.997769375823	1
0	479	1164.389614103138	1
0	485	1176.368381827385	1
0	490	1199.872236254162	1
0	494	1204.278596782078	2
0	496	1209.467598345595	3
0	499	1232.961859612421	4
0	502	1236.984180589291	5
0	508	1241.706954241873	2
0	515	1250.196517913514	1
0	521	1268.951555771959	1
0	524	1287.623521008735	1
0	530	1300.845123160787	1
0	535	1320.578965987141	1
0	539	1332.584785782388	1
0	542	1341.640472899657	1
0	547	1352.712257866263	1
0	549	1353.596872460635	2
0	551	1354.430462899995	3
0	556	1363.525267817574	4
0	558	1363.98202022208	5
0	560	1366.79840673552	6
0	562	1367.798799028257	7
0	566	1380.988650301259	8
0	570	1383.440373029984	9
0	588	1405.945167179226	1
0	593	1422.396675441742	1
0	596	1429.627255756317	1
0	599	1430.685088772856	1
0	602	1439.937483048556	1
0	605	1440.601567088654	1
0	608	1441.274379830186	1
0	611	1470.089611214683	1
0	614	1477.856523929648	1
0	617	1479.634303538207	1
0	620	1481.017581247421	1
0	627	1489.97936585555	1
0	631	1499.513136980461	2
0	644	1529.541644465283	1
0	647	1534.061715485615	1
0	650	1538.630925993558	1
0	653	1553.230681240834	1
0	655	1553.449239273142	2
0	657	1553.946754001386	3
0	664	1561.300505661371	2
0	667	1562.463800429604	2
0	671	1566.131236080638	1
0	674	1577.652101419888	1
0	680	1595.558615324041	1
0	683	1602.787541439405	1
0	689	1629.290346216222	1
0	692	1637.768291493497	1
0	695	1639.148682106153	1
0	698	1657.708909622613	1
0	701	1675.495492245268	1
0	704	1682.1846757928	1
0	707	1697.637724245331	1
0	710	1714.252640392117	1
0	713	1725.952996459446	1
0	716	1733.091468649534	1
0	722	1743.602300963212	1
0	731	1769.737070293725	1
0	734	1797.429649869354	1
0	739	1808.423608925901	1
0	741	1811.117469180127	2
0	743	1812.727691339913	3
0	745	1819.29507133408	4
0	748	1823.829339928366	5
0	758	1850.05842958545	1
0	764	1870.140801328938	1
0	767	1872.093750590139	1
0	770	1876.405968623866	1
0	773	1878.066848027262	1
0	776	1880.162037838015	1
0	782	1914.482613606068	1
0	787	1920.880977758516	2
0	791	1924.746660298332	1
0	794	1929.7353207484	1
0	799	1951.433106009163	1
0	801	1961.080825932835	2
0	806	1968.963691792235	1
0	809	1974.704298001108	1
0	812	1979.34222648922	1
0	815	1982.36574677823	1
0	817	1983.838293113229	2
0	823	1989.156610482477	1
0	825	1990.350194517302	2
0	830	1995.780825651345	1
0	833	1996.531113902884	1
0	836	2019.802131646665	1
0	839	2021.949410744452	1
0	844	2060.879589853667	1
0	846	2060.908898717302	2
0	851	2070.679099586889	1
0	854	2091.617982071237	1
0	857	2092.486468161446	1
0	862	2120.154046587702	1
0	866	2133.359064701743	2
0	872	2140.34363870594	1
0	875	2151.696984518615	1
0	880	2165.460219418262	1
0	890	2182.948533678196	1
0	893	2189.646182425831	1
0	896	2193.914878067786	1
0	898	2193.954164107906	2
0	902	2194.561011312908	3
0	908	2200.766102351387	1
0	911	2210.22901050779	1
0	914	2211.800957408794	1
0	917	2213.125016198576	1
0	920	2216.818198176185	1
0	926	2231.069777978458	1
0	929	2245.062037414236	1
0	932	2260.881398963393	1
0	940	2274.961049532209	1
0	942	2280.214129127697	2
0	947	2305.165130442435	1
0	956	2333.953071763477	1
0	962	2360.789919575655	1
0	965	2362.698859064813	1
0	967	2363.643523370556	2
0	974	2392.218169230268	1
0	977	2394.39108518217	1
0	980	2400.655127529596	1
0	983	2408.898363050178	1
0	986	2423.295046423066	1
0	988	2423.399860528197	2
0	992	2437.376253249859	1
0	995	2439.988562019943	1
0	998	2479.732826589049	1
0	1000	2480.108407740282	2
1	116	354.557151855681	0
1	117	354.729495198342	0
1	122	363.823894831212	0
1	123	365.26939837629	0
1	125	365.613274632813	0
1	126	367.733013588858	0
1	128	370.585233872072	0
1	129	370.70278029824	0
1	134	379.681710898725	0
1	135	380.002035267947	0
1	140	396.392065199602	0
1	142	396.482332329256	1
1	143	396.62041572102	1
1	144	397.155252357334	0
1	146	405.963380670505	0
1	147	406.090186569436	0
1	151	410.850292778012	0
1	153	413.949212177533	1
1	155	414.400860177836	2
1	157	415.092330202134	2
1	158	417.195270263267	1
1	159	418.18625196394	0
1	164	424.726697612854	0
1	165	425.468353101286	0
1	170	456.111867721576	0
1	171	456.978982193869	0
1	176	472.775236854993	0
1	177	473.452778431355	0
1	179	478.504847620427	0
1	181	478.696928021011	1
1	182	479.420961363357	1
1	183	480.737248801761	0
1	187	508.451775855767	0
1	189	508.857708167273	1
1	191	511.259303162824	1
1	192	511.273991257287	0
1	196	524.28980936815	0
1	198	528.598610330498	0
1	200	553.294729384193	0
1	201	553.392742552286	0
1	206	573.415496850299	0
1	207	573.7079746717	0
1	209	579.327708019238	0
1	210	581.079598441106	0
1	212	581.229214307217	0
1	213	581.626062559509	0
1	215	587.051509254189	0
1	217	587.830568865482	1
1	221	588.51024789307	2
1	223	597.69174064835	3
1	225	599.625904239714	4
1	230	601.464798297421	5
1	232	604.63079981322	5
1	233	606.860236858524	4
1	234	607.041294640212	3
1	235	610.211701766587	2
1	236	610.234028706271	1
1	237	613.556337164952	0
1	241	621.555207288251	0
1	243	623.207848553617	0
1	248	634.774522045433	0
1	249	637.99908204035	0
1	256	653.323311617842	0
1	258	658.573298451177	1
1	260	659.999250366896	1
1	261	660.208016087752	0
1	266	684.49641219479	0
1	267	690.015105515336	0
1	269	692.002243623595	0
1	270	692.026850464036	0
1	274	712.428054766382	0
1	276	718.636669787897	0
1	278	740.165402144317	0
1	279	740.39425640285	0
1	281	758.199070333875	0
1	282	759.353985093718	0
1	284	765.574160589746	0
1	285	766.777612235902	0
1	287	768.598356354349	0
1	289	769.743416064392	1
1	291	770.107547801784	2
1	292	770.452258899524	2
1	294	771.829954097869	2
1	295	771.964182620023	2
1	296	772.921620482788	1
1	297	772.944820627975	0
1	299	774.42754541804	0
1	300	775.255796668036	0
1	302	782.306578941402	0
1	303	783.16853032097	0
1	305	784.678757195726	0
1	306	785.137879758103	0
1	308	792.11062420985	0
1	309	792.112267729819	0
1	311	794.103925195273	0
1	312	795.278116555774	0
1	314	804.254275049714	0
1	315	804.978856359279	0
1	317	808.053947914704	0
1	318	809.747679163955	0
1	320	813.187159306011	0
1	321	814.208241741645	0
1	323	815.945202965973	0
1	324	818.544086972245	0
1	328	826.437857566554	0
1	330	831.143790537557	1
1	332	836.200513181557	2
1	335	846.215295774186	3
1	336	847.584241443724	3
1	337	847.589993013233	2
1	338	847.889879381804	1
1	339	849.16484553402	0
1	341	855.994726423543	0
1	342	857.616727356511	0
1	344	858.518294259223	0
1	345	859.618084635162	0
1	347	873.102858222541	0
1	349	874.596576772936	1
1	350	875.146802060057	1
1	351	875.369652409344	0
1	353	876.56858066659	0
1	354	879.129283986246	0
1	356	885.172340007252	0
1	357	886.365257260403	0
1	361	889.881592834636	0
1	363	894.21520461275	1
1	365	895.592554692271	1
1	366	896.449194705072	0
1	368	901.197466405341	0
1	369	901.831379810377	0
1	371	907.503892790405	0
1	372	908.370730240922	0
1	374	919.108782958971	0
1	375	923.097079160082	0
1	377	923.552397120488	0
1	378	923.619078626565	0
1	380	926.478400633381	0
1	381	926.987469145231	0
1	383	927.346722870158	0
1	384	927.541821054281	0
1	389	935.437711264658	0
1	390	937.118282603325	0
1	392	938.35340222437	0
1	393	938.771234110565	0
1	397	948.159850924412	0
1	399	948.645510515757	1
1	401	949.54888311237	1
1	402	950.487170465625	0
1	407	971.23130375891	0
1	408	972.704700081217	0
1	412	997.739497752726	0
1	414	1002.247055797812	1
1	416	1004.940780636881	2
1	418	1007.381308956335	2
1	419	1008.044763516821	1
1	420	1008.174358062089	0
1	422	1015.089663101238	0
1	423	1015.119206808922	0
1	425	1031.744717209477	0
1	427	1033.869800367338	1
1	428	1034.473166801936	1
1	429	1034.563666823815	0
1	431	1035.218628114189	0
1	432	1035.591112979533	0
1	436	1042.10607936867	0
1	438	1042.89333419035	1
1	440	1044.907710098221	2
1	442	1056.478227078671	3
1	444	1059.703561993941	3
1	445	1060.346618082328	2
1	446	1060.635961687009	1
1	447	1060.700192580018	0
1	451	1081.535408919244	0
1	453	1085.597102760518	0
1	455	1110.924019657824	0
1	456	1111.246078005462	0
1	458	1116.577226252923	0
1	459	1117.576263064896	0
1	461	1120.370427437659	0
1	462	1120.626595833139	0
1	467	1138.101066537554	0
1	474	1157.481754539398	0
1	476	1158.997769375823	0
1	477	1161.863413017562	0
1	479	1164.389614103138	0
1	480	1165.224513804968	0
1	485	1176.368381827385	0
1	486	1176.842031513311	0
1	490	1199.872236254162	0
1	494	1204.278596782078	1
1	496	1209.467598345595	2
1	499	1232.961859612421	3
1	502	1236.984180589291	4
1	503	1237.582553657109	4
1	504	1238.06690388637	3
1	505	1239.73769816163	2
1	506	1240.097237150704	1
1	508	1241.706954241873	1
1	509	1242.710194751693	1
1	510	1242.927270477886	0
1	515	1250.196517913514	0
1	516	1252.634084194753	0
1	521	1268.951555771959	0
1	522	1270.28455448438	0
1	524	1287.623521008735	0
1	528	1295.745026143725	0
1	530	1300.845123160787	0
1	531	1303.466565352141	0
1	535	1320.578965987141	0
1	537	1324.46892312818	0
1	539	1332.584785782388	0
1	540	1333.737535681525	0
1	542	1341.640472899657	0
1	543	1342.088399496252	0
1	547	1352.712257866263	0
1	549	1353.596872460635	1
1	551	1354.430462899995	2
1	556	1363.525267817574	3
1	558	1363.98202022208	4
1	560	1366.79840673552	5
1	562	1367.798799028257	6
1	566	1380.988650301259	7
1	570	1383.440373029984	8
1	571	1383.931029899874	8
1	572	1383.967184713128	7
1	573	1384.802705406459	6
1	574	1385.593153124392	5
1	575	1385.835198217209	4
1	576	1387.425533380901	3
1	577	1387.596358608437	2
1	578	1387.648855577891	1
1	579	1389.455611939955	0
1	588	1405.945167179226	0
1	591	1412.906510415014	0
1	593	1422.396675441742	0
1	594	1424.261361994145	0
1	596	1429.627255756317	0
1	597	1430.082138707953	0
1	599	1430.685088772856	0
1	600	1431.717020650104	0
1	602	1439.937483048556	0
1	603	1440.217581773959	0
1	605	1440.601567088654	0
1	606	1440.745715495719	0
1	608	1441.274379830186	0
1	609	1442.859551920931	0
1	611	1470.089611214683	0
1	612	1470.284073101476	0
1	614	1477.856523929648	0
1	615	1478.290535031625	0
1	617	1479.634303538207	0
1	618	1480.018302586901	0
1	620	1481.017581247421	0
1	621	1482.036119792931	0
1	627	1489.97936585555	0
1	631	1499.513136980461	1
1	632	1500.47423323915	1
1	633	1501.154296496168	0
1	644	1529.541644465283	0
1	645	1529.798584207994	0
1	647	1534.061715485615	0
1	648	1534.93758368292	0
1	650	1538.630925993558	0
1	651	1540.844477466726	0
1	653	1553.230681240834	0
1	655	1553.449239273142	1
1	657	1553.946754001386	2
1	658	1556.032482115692	2
1	659	1558.729514190689	1
1	664	1561.300505661371	1
1	665	1562.4310562403	1
1	667	1562.463800429604	1
1	668	1562.520002246316	1
1	669	1562.63843947257	0
1	671	1566.131236080638	0
1	672	1567.79928028491	0
1	674	1577.652101419888	0
1	675	1579.507151952652	0
1	680	1595.558615324041	0
1	681	1600.749197989316	0
1	683	1602.787541439405	0
1	684	1603.21223241076	0
1	689	1629.290346216222	0
1	690	1629.725327379921	0
1	692	1637.768291493497	0
1	693	1637.874571624849	0
1	695	1639.148682106153	0
1	696	1639.810447478918	0
1	698	1657.708909622613	0
1	699	1658.192459084002	0
1	701	1675.495492245268	0
1	702	1676.850792350956	0
1	704	1682.1846757928	0
1	705	1682.898750013478	0
1	707	1697.637724245331	0
1	708	1698.104173088781	0
1	710	1714.252640392117	0
1	711	1717.499480830335	0
1	713	1725.952996459446	0
1	714	1725.988786868224	0
1	716	1733.091468649534	0
1	717	1733.555907981371	0
1	722	1743.602300963212	0
1	723	1743.767957889675	0
1	731	1769.737070293725	0
1	732	1769.749516842245	0
1	734	1797.429649869354	0
1	735	1797.817810836097	0
1	739	1808.423608925901	0
1	741	1811.117469180127	1
1	743	1812.727691339913	2
1	745	1819.29507133408	3
1	748	1823.829339928366	4
1	749	1824.999799157602	4
1	750	1825.124804528549	3
1	751	1825.242587158091	2
1	752	1825.688381991455	1
1	753	1826.339119404772	0
1	758	1850.05842958545	0
1	759	1851.254428768417	0
1	764	1870.140801328938	0
1	765	1872.0377881954	0
1	767	1872.093750590139	0
1	768	1873.665128655339	0
1	770	1876.405968623866	0
1	771	1877.129034880569	0
1	773	1878.066848027262	0
1	774	1878.657745748414	0
1	776	1880.162037838015	0
1	777	1880.753726193178	0
1	782	1914.482613606068	0
1	787	1920.880977758516	1
1	788	1921.301584922158	1
1	789	1922.913407769165	0
1	791	1924.746660298332	0
1	792	1925.461467411651	0
1	794	1929.7353207484	0
1	795	1929.755922902305	0
1	799	1951.433106009163	0
1	801	1961.080825932835	1
1	803	1962.435842589591	1
1	804	1963.285921163216	0
1	806	1968.963691792235	0
1	807	1969.018583894454	0
1	809	1974.704298001108	0
1	810	1975.234278614346	0
1	812	1979.34222648922	0
1	813	1979.625030986941	0
1	815	1982.36574677823	0
1	817	1983.838293113229	1
1	818	1986.574613289266	1
1	819	1987.984899269769	0
1	823	1989.156610482477	0
1	825	1990.350194517302	1
1	827	1994.141170507445	1
1	828	1995.128680010315	0
1	830	1995.780825651345	0
1	831	1995.83629829626	0
1	833	1996.531113902884	0
1	834	1997.909541467295	0
1	836	2019.802131646665	0
1	837	2020.013442695317	0
1	839	2021.949410744452	0
1	840	2026.347264784438	0
1	844	2060.879589853667	0
1	846	2060.908898717302	1
1	848	2068.923863173532	1
1	849	2069.815307052343	0
1	851	2070.679099586889	0
1	852	2071.892927706844	0
1	854	2091.617982071237	0
1	855	2092.323962891612	0
1	857	2092.486468161446	0
1	858	2092.890007347906	0
1	862	2120.154046587702	0
1	866	2133.359064701743	1
1	869	2137.579607351653	1
1	870	2138.025868200221	0
1	872	2140.34363870594	0
1	873	2141.197127139005	0
1	875	2151.696984518615	0
1	876	2154.241266251511	0
1	880	2165.460219418262	0
1	882	2167.688340296086	0
1	890	2182.948533678196	0
1	891	2186.019647187442	0
1	893	2189.646182425831	0
1	894	2191.419407801064	0
1	896	2193.914878067786	0
1	898	2193.954164107906	1
1	902	2194.561011312908	2
1	904	2196.696868052535	2
1	905	2197.207302930293	1
1	906	2199.495700677678	0
1	908	2200.766102351387	0
1	909	2202.696873330816	0
1	911	2210.22901050779	0
1	912	2210.629866139903	0
1	914	2211.800957408794	0
1	915	2211.954827361902	0
1	917	2213.125016198576	0
1	918	2213.211378946064	0
1	920	2216.818198176185	0
1	921	2218.244843800906	0
1	926	2231.069777978458	0
1	927	2231.817840923685	0
1	929	2245.062037414236	0
1	930	2247.773243802516	0
1	932	2260.881398963393	0
1	933	2261.962695207042	0
1	940	2274.961049532209	0
1	942	2280.214129127697	1
1	944	2281.994330850304	1
1	945	2284.22911053236	0
1	947	2305.165130442435	0
1	948	2305.302155216374	0
1	956	2333.953071763477	0
1	960	2346.16680663936	0
1	962	2360.789919575655	0
1	963	2360.920390511085	0
1	965	2362.698859064813	0
1	967	2363.643523370556	1
1	968	2364.16824235298	1
1	969	2365.097897939228	0
1	974	2392.218169230268	0
1	975	2393.641538925577	0
1	977	2394.39108518217	0
1	978	2398.501350887446	0
1	980	2400.655127529596	0
1	981	2401.89317100868	0
1	983	2408.898363050178	0
1	984	2411.246752801282	0
1	986	2423.295046423066	0
1	988	2423.399860528197	1
1	989	2424.504208772717	1
1	990	2424.806715087111	0
1	992	2437.376253249859	0
1	993	2438.834393310066	0
1	995	2439.988562019943	0
1	996	2440.896713481151	0
1	998	2479.732826589049	0
1	1000	2480.108407740282	1
1	1004	2484.317405463911	1
1	1005	2487.84350970484	0
2	116	354.557151855681	0
2	122	363.823894831212	0
2	125	365.613274632813	0
2	128	370.585233872072	0
2	134	379.681710898725	0
2	140	396.392065199602	0
2	143	396.62041572102	0.138083391764
2	146	405.963380670505	0
2	156	414.741239731418	3.890946953406
2	157	415.092330202134	1.143118024601
2	158	417.195270263267	2.794410085431
2	164	424.726697612854	0
2	170	456.111867721576	0
2	176	472.775236854993	0
2	179	478.504847620427	0
2	182	479.420961363357	0.724033342346
2	190	510.950303310412	2.498527454645
2	191	511.259303162824	2.401594995551
2	197	528.263576821273	3.973767453123
2	200	553.294729384193	0
2	206	573.415496850299	0
2	209	579.327708019238	0
2	212	581.229214307217	0
2	215	587.051509254189	0
2	226	600.395913242377	12.565344376895
2	231	603.552977007199	15.369389373168
2	232	604.63079981322	16.12055192015
2	233	606.860236858524	9.168496210174
2	234	607.041294640212	7.415390400498
2	235	610.211701766587	9.671706966392
2	236	610.234028706271	8.76923040885
2	242	622.383824466355	0.828617178104
2	248	634.774522045433	0
2	259	659.904336544472	6.58102492663
2	260	659.999250366896	1.425951915719
2	266	684.49641219479	0
2	269	692.002243623595	0
2	275	717.98772756517	5.559672798788
2	278	740.165402144317	0
2	281	758.199070333875	0
2	284	765.574160589746	0
2	287	768.598356354349	0
2	292	770.452258899524	0.708842835132
2	295	771.964182620023	1.856634818239
2	296	772.921620482788	1.091666384919
2	299	774.42754541804	0
2	302	782.306578941402	0
2	305	784.678757195726	0
2	308	792.11062420985	0
2	311	794.103925195273	0
2	314	804.254275049714	0
2	317	808.053947914704	0
2	320	813.187159306011	0
2	323	815.945202965973	0
2	333	843.342018249002	16.904160682448
2	336	847.584241443724	16.440450906167
2	337	847.589993013233	11.389479831676
2	338	847.889879381804	1.674583607618
2	341	855.994726423543	0
2	344	858.518294259223	0
2	347	873.102858222541	0
2	350	875.146802060057	0.550225287121
2	353	876.56858066659	0
2	356	885.172340007252	0
2	364	895.590338022042	5.708745187406
2	365	895.592554692271	1.377350079521
2	368	901.197466405341	0
2	371	907.503892790405	0
2	374	919.108782958971	0
2	377	923.552397120488	0
2	380	926.478400633381	0
2	383	927.346722870158	0
2	389	935.437711264658	0
2	392	938.35340222437	0
2	400	948.758219026757	0.598368102345
2	401	949.54888311237	0.903372596613
2	407	971.23130375891	0
2	417	1007.163805773834	9.424308021108
2	418	1007.381308956335	5.134253158523
2	419	1008.044763516821	3.10398287994
2	422	1015.089663101238	0
2	425	1031.744717209477	0
2	428	1034.473166801936	0.603366434598
2	431	1035.218628114189	0
2	443	1059.585393345853	17.479313977183
2	444	1059.703561993941	16.810227803591
2	445	1060.346618082328	15.438907984107
2	446	1060.635961687009	4.157734608338
2	452	1082.247112691942	0.711703772698
2	455	1110.924019657824	0
2	458	1116.577226252923	0
2	461	1120.370427437659	0
2	467	1138.101066537554	0
2	473	1155.983576998709	17.302604340376
2	476	1158.997769375823	0
2	479	1164.389614103138	0
2	485	1176.368381827385	0
2	500	1236.573719357344	36.701483103182
2	503	1237.582553657109	33.303956875031
2	504	1238.06690388637	28.599305540775
2	505	1239.73769816163	6.775838549209
2	506	1240.097237150704	3.113056561413
2	509	1242.710194751693	1.00324050982
2	515	1250.196517913514	0
2	521	1268.951555771959	0
2	524	1287.623521008735	0
2	527	1294.642622548998	5.963681799536
2	530	1300.845123160787	0
2	536	1324.369983363974	3.791017376833
2	539	1332.584785782388	0
2	542	1341.640472899657	0
2	568	1383.379025082879	30.666767216616
2	571	1383.931029899874	30.334157439239
2	572	1383.967184713128	29.536721813133
2	573	1384.802705406459	21.277437588885
2	574	1385.593153124392	21.611132902312
2	575	1385.835198217209	19.036791481689
2	576	1387.425533380901	19.626734352644
2	577	1387.596358608437	6.607708307178
2	578	1387.648855577891	4.208482547907
2	590	1412.697432809209	6.752265629983
2	593	1422.396675441742	0
2	596	1429.627255756317	0
2	599	1430.685088772856	0
2	602	1439.937483048556	0
2	605	1440.601567088654	0
2	608	1441.274379830186	0
2	611	1470.089611214683	0
2	614	1477.856523929648	0
2	617	1479.634303538207	0
2	620	1481.017581247421	0
2	629	1497.349562286593	7.370196431043
2	632	1500.47423323915	0.961096258689
2	644	1529.541644465283	0
2	647	1534.061715485615	0
2	650	1538.630925993558	0
2	653	1553.230681240834	0
2	658	1556.032482115692	2.58324284255
2	659	1558.729514190689	4.782760189303
2	662	1559.557223593982	0.794154690352
2	665	1562.4310562403	1.130550578929
2	668	1562.520002246316	0.056201816712
2	671	1566.131236080638	0
2	674	1577.652101419888	0
2	680	1595.558615324041	0
2	683	1602.787541439405	0
2	689	1629.290346216222	0
2	692	1637.768291493497	0
2	695	1639.148682106153	0
2	698	1657.708909622613	0
2	701	1675.495492245268	0
2	704	1682.1846757928	0
2	707	1697.637724245331	0
2	710	1714.252640392117	0
2	713	1725.952996459446	0
2	716	1733.091468649534	0
2	722	1743.602300963212	0
2	731	1769.737070293725	0
2	734	1797.429649869354	0
2	746	1823.035777731731	14.61216880583
2	749	1824.999799157602	13.882329977475
2	750	1825.124804528549	12.397113188636
2	751	1825.242587158091	5.947515824011
2	752	1825.688381991455	1.859042063089
2	758	1850.05842958545	0
2	764	1870.140801328938	0
2	767	1872.093750590139	0
2	770	1876.405968623866	0
2	773	1878.066848027262	0
2	776	1880.162037838015	0
2	782	1914.482613606068	0
2	785	1918.963216503034	2.427562920362
2	788	1921.301584922158	0.420607163642
2	791	1924.746660298332	0
2	794	1929.7353207484	0
2	802	1961.770118030529	10.337012021366
2	803	1962.435842589591	1.355016656756
2	806	1968.963691792235	0
2	809	1974.704298001108	0
2	812	1979.34222648922	0
2	815	1982.36574677823	0
2	818	1986.574613289266	2.736320176037
2	826	1992.524700280002	3.368089797525
2	827	1994.141170507445	3.790975990143
2	830	1995.780825651345	0
2	833	1996.531113902884	0
2	836	2019.802131646665	0
2	839	2021.949410744452	0
2	847	2068.321618575424	7.442028721757
2	848	2068.923863173532	8.01496445623
2	851	2070.679099586889	0
2	854	2091.617982071237	0
2	857	2092.486468161446	0
2	868	2137.334623416305	17.180576828603
2	869	2137.579607351653	4.22054264991
2	872	2140.34363870594	0
2	875	2151.696984518615	0
2	881	2166.165470461178	0.705251042916
2	890	2182.948533678196	0
2	893	2189.646182425831	0
2	896	2193.914878067786	0
2	903	2196.421021437773	2.466857329867
2	904	2196.696868052535	2.698583923003
2	905	2197.207302930293	2.646291617385
2	908	2200.766102351387	0
2	911	2210.22901050779	0
2	914	2211.800957408794	0
2	917	2213.125016198576	0
2	920	2216.818198176185	0
2	926	2231.069777978458	0
2	929	2245.062037414236	0
2	932	2260.881398963393	0
2	943	2280.735626496313	5.774576964104
2	944	2281.994330850304	1.780201722607
2	947	2305.165130442435	0
2	956	2333.953071763477	0
2	959	2343.899659318061	8.033926029193
2	962	2360.789919575655	0
2	965	2362.698859064813	0
2	968	2364.16824235298	0.524718982424
2	974	2392.218169230268	0
2	977	2394.39108518217	0
2	980	2400.655127529596	0
2	983	2408.898363050178	0
2	986	2423.295046423066	0
2	989	2424.504208772717	1.10434824452
2	992	2437.376253249859	0
2	995	2439.988562019943	0
2	998	2479.732826589049	0
2	1003	2483.910917174453	3.802509434171
2	1004	2484.317405463911	3.875934931786
3	117	354.729495198342	27
3	123	365.26939837629	28
3	126	367.733013588858	29
3	129	370.70278029824	30
3	135	380.002035267947	31
3	143	396.62041572102	32
3	144	397.155252357334	33
3	147	406.090186569436	34
3	157	415.092330202134	35
3	158	417.195270263267	36
3	159	418.18625196394	37
3	165	425.468353101286	38
3	171	456.978982193869	39
3	177	473.452778431355	40
3	182	479.420961363357	41
3	183	480.737248801761	42
3	191	511.259303162824	43
3	192	511.273991257287	44
3	198	528.598610330498	45
3	201	553.392742552286	46
3	207	573.7079746717	47
3	210	581.079598441106	48
3	213	581.626062559509	49
3	232	604.63079981322	50
3	233	606.860236858524	51
3	234	607.041294640212	52
3	235	610.211701766587	53
3	236	610.234028706271	54
3	237	613.556337164952	55
3	243	623.207848553617	56
3	249	637.99908204035	57
3	260	659.999250366896	58
3	261	660.208016087752	59
3	267	690.015105515336	60
3	270	692.026850464036	61
3	276	718.636669787897	62
3	279	740.39425640285	63
3	282	759.353985093718	64
3	285	766.777612235902	65
3	292	770.452258899524	66
3	295	771.964182620023	67
3	296	772.921620482788	68
3	297	772.944820627975	69
3	300	775.255796668036	70
3	303	783.16853032097	71
3	306	785.137879758103	72
3	309	792.112267729819	73
3	312	795.278116555774	74
3	315	804.978856359279	75
3	318	809.747679163955	76
3	321	814.208241741645	77
3	324	818.544086972245	78
3	336	847.584241443724	79
3	337	847.589993013233	80
3	338	847.889879381804	81
3	339	849.16484553402	82
3	342	857.616727356511	83
3	345	859.618084635162	84
3	350	875.146802060057	85
3	351	875.369652409344	86
3	354	879.129283986246	87
3	357	886.365257260403	88
3	365	895.592554692271	89
3	366	896.449194705072	90
3	369	901.831379810377	91
3	372	908.370730240922	92
3	375	923.097079160082	93
3	378	923.619078626565	94
3	381	926.987469145231	95
3	384	927.541821054281	96
3	390	937.118282603325	97
3	393	938.771234110565	98
3	401	949.54888311237	99
3	402	950.487170465625	100
3	408	972.704700081217	101
3	418	1007.381308956335	102
3	419	1008.044763516821	103
3	420	1008.174358062089	104
3	423	1015.119206808922	105
3	428	1034.473166801936	106
3	429	1034.563666823815	107
3	432	1035.591112979533	108
3	444	1059.703561993941	109
3	445	1060.346618082328	110
3	446	1060.635961687009	111
3	447	1060.700192580018	112
3	453	1085.597102760518	113
3	456	1111.246078005462	114
3	459	1117.576263064896	115
3	462	1120.626595833139	116
3	474	1157.481754539398	117
3	477	1161.863413017562	118
3	480	1165.224513804968	119
3	486	1176.842031513311	120
3	503	1237.582553657109	121
3	504	1238.06690388637	122
3	505	1239.73769816163	123
3	506	1240.097237150704	124
3	509	1242.710194751693	125
3	510	1242.927270477886	126
3	516	1252.634084194753	127
3	522	1270.28455448438	128
3	528	1295.745026143725	129
3	531	1303.466565352141	130
3	537	1324.46892312818	131
3	540	1333.737535681525	132
3	543	1342.088399496252	133
3	571	1383.931029899874	134
3	572	1383.967184713128	135
3	573	1384.802705406459	136
3	574	1385.593153124392	137
3	575	1385.835198217209	138
3	576	1387.425533380901	139
3	577	1387.596358608437	140
3	578	1387.648855577891	141
3	579	1389.455611939955	142
3	591	1412.906510415014	143
3	594	1424.261361994145	144
3	597	1430.082138707953	145
3	600	1431.717020650104	146
3	603	1440.217581773959	147
3	606	1440.745715495719	148
3	609	1442.859551920931	149
3	612	1470.284073101476	150
3	615	1478.290535031625	151
3	618	1480.018302586901	152
3	621	1482.036119792931	153
3	632	1500.47423323915	154
3	633	1501.154296496168	155
3	645	1529.798584207994	156
3	648	1534.93758368292	157
3	651	1540.844477466726	158
3	658	1556.032482115692	159
3	659	1558.729514190689	160
3	665	1562.4310562403	161
3	668	1562.520002246316	162
3	669	1562.63843947257	163
3	672	1567.79928028491	164
3	675	1579.507151952652	165
3	681	1600.749197989316	166
3	684	1603.21223241076	167
3	690	1629.725327379921	168
3	693	1637.874571624849	169
3	696	1639.810447478918	170
3	699	1658.192459084002	171
3	702	1676.850792350956	172
3	705	1682.898750013478	173
3	708	1698.104173088781	174
3	711	1717.499480830335	175
3	714	1725.988786868224	176
3	717	1733.555907981371	177
3	723	1743.767957889675	178
3	732	1769.749516842245	179
3	735	1797.817810836097	180
3	749	1824.999799157602	181
3	750	1825.124804528549	182
3	751	1825.242587158091	183
3	752	1825.688381991455	184
3	753	1826.339119404772	185
3	759	1851.254428768417	186
3	765	1872.0377881954	187
3	768	1873.665128655339	188
3	771	1877.129034880569	189
3	774	1878.657745748414	190
3	777	1880.753726193178	191
3	788	1921.301584922158	192
3	789	1922.913407769165	193
3	792	1925.461467411651	194
3	795	1929.755922902305	195
3	803	1962.435842589591	196
3	804	1963.285921163216	197
3	807	1969.018583894454	198
3	810	1975.234278614346	199
3	813	1979.625030986941	200
3	818	1986.574613289266	201
3	819	1987.984899269769	202
3	827	1994.141170507445	203
3	828	1995.128680010315	204
3	831	1995.83629829626	205
3	834	1997.909541467295	206
3	837	2020.013442695317	207
3	840	2026.347264784438	208
3	848	2068.923863173532	209
3	849	2069.815307052343	210
3	852	2071.892927706844	211
3	855	2092.323962891612	212
3	858	2092.890007347906	213
3	869	2137.579607351653	214
3	870	2138.025868200221	215
3	873	2141.197127139005	216
3	876	2154.241266251511	217
3	882	2167.688340296086	218
3	891	2186.019647187442	219
3	894	2191.419407801064	220
3	904	2196.696868052535	221
3	905	2197.207302930293	222
3	906	2199.495700677678	223
3	909	2202.696873330816	224
3	912	2210.629866139903	225
3	915	2211.954827361902	226
3	918	2213.211378946064	227
3	921	2218.244843800906	228
3	927	2231.817840923685	229
3	930	2247.773243802516	230
3	933	2261.962695207042	231
3	944	2281.994330850304	232
3	945	2284.22911053236	233
3	948	2305.302155216374	234
3	960	2346.16680663936	235
3	963	2360.920390511085	236
3	968	2364.16824235298	237
3	969	2365.097897939228	238
3	975	2393.641538925577	239
3	978	2398.501350887446	240
3	981	2401.89317100868	241
3	984	2411.246752801282	242
3	989	2424.504208772717	243
3	990	2424.806715087111	244
3	993	2438.834393310066	245
3	996	2440.896713481151	246
3	1004	2484.317405463911	247
3	1005	2487.84350970484	248
4	117	354.729495198342	0.172343342661
4	123	365.26939837629	1.445503545078
4	126	367.733013588858	2.119738956045
4	129	370.70278029824	0.117546426168
4	135	380.002035267947	0.320324369222
4	143	396.62041572102	0.228350521418
4	144	397.155252357334	0.672920028078
4	147	406.090186569436	0.126805898931
4	157	415.092330202134	4.242037424122
4	158	417.195270263267	3.246058085734
4	159	418.18625196394	3.785391786104
4	165	425.468353101286	0.741655488432
4	171	456.978982193869	0.867114472293
4	177	473.452778431355	0.677541576362
4	182	479.420961363357	0.91611374293
4	183	480.737248801761	2.04032078075
4	191	511.259303162824	2.807527307057
4	192	511.273991257287	2.416283090014
4	198	528.598610330498	4.308800962348
4	201	553.392742552286	0.098013168093
4	207	573.7079746717	0.292477821401
4	210	581.079598441106	1.751890421868
4	213	581.626062559509	0.396848252292
4	232	604.63079981322	16.447212179189
4	233	606.860236858524	18.349988965454
4	234	607.041294640212	9.349553991862
4	235	610.211701766587	10.585797526873
4	236	610.234028706271	9.694033906076
4	237	613.556337164952	12.091538867531
4	243	623.207848553617	1.652641265366
4	249	637.99908204035	3.224559994917
4	260	659.999250366896	6.675938749054
4	261	660.208016087752	1.634717636575
4	267	690.015105515336	5.518693320546
4	270	692.026850464036	0.024606840441
4	276	718.636669787897	6.208615021515
4	279	740.39425640285	0.228854258533
4	282	759.353985093718	1.154914759843
4	285	766.777612235902	1.203451646156
4	292	770.452258899524	1.853902545175
4	295	771.964182620023	2.220766555631
4	296	772.921620482788	2.814072681004
4	297	772.944820627975	1.114866530106
4	300	775.255796668036	0.828251249996
4	303	783.16853032097	0.861951379568
4	306	785.137879758103	0.459122562377
4	309	792.112267729819	0.001643519969
4	312	795.278116555774	1.174191360501
4	315	804.978856359279	0.724581309565
4	318	809.747679163955	1.693731249251
4	321	814.208241741645	1.021082435634
4	324	818.544086972245	2.598884006272
4	336	847.584241443724	21.14638387717
4	337	847.589993013233	16.446202475676
4	338	847.889879381804	11.689366200247
4	339	849.16484553402	2.949549759834
4	342	857.616727356511	1.622000932968
4	345	859.618084635162	1.099790375939
4	350	875.146802060057	2.043943837516
4	351	875.369652409344	0.773075636408
4	354	879.129283986246	2.560703319656
4	357	886.365257260403	1.192917253151
4	365	895.592554692271	5.710961857635
4	366	896.449194705072	2.233990092322
4	369	901.831379810377	0.633913405036
4	372	908.370730240922	0.866837450517
4	375	923.097079160082	3.988296201111
4	378	923.619078626565	0.066681506077
4	381	926.987469145231	0.50906851185
4	384	927.541821054281	0.195098184123
4	390	937.118282603325	1.680571338667
4	393	938.771234110565	0.417831886195
4	401	949.54888311237	1.389032187958
4	402	950.487170465625	1.841659949868
4	408	972.704700081217	1.473396322307
4	418	1007.381308956335	9.641811203609
4	419	1008.044763516821	5.797707719009
4	420	1008.174358062089	3.233577425208
4	423	1015.119206808922	0.029543707684
4	428	1034.473166801936	2.728449592459
4	429	1034.563666823815	0.693866456477
4	432	1035.591112979533	0.372484865344
4	444	1059.703561993941	17.597482625271
4	445	1060.346618082328	17.453283891978
4	446	1060.635961687009	15.728251588788
4	447	1060.700192580018	4.221965501347
4	453	1085.597102760518	4.061693841274
4	456	1111.246078005462	0.322058347638
4	459	1117.576263064896	0.999036811973
4	462	1120.626595833139	0.25616839548
4	474	1157.481754539398	18.800781881065
4	477	1161.863413017562	2.865643641739
4	480	1165.224513804968	0.83489970183
4	486	1176.842031513311	0.473649685926
4	503	1237.582553657109	37.710317402947
4	504	1238.06690388637	33.788307104292
4	505	1239.73769816163	30.270099816035
4	506	1240.097237150704	7.135377538283
4	509	1242.710194751693	5.726014162402
4	510	1242.927270477886	1.220316236013
4	516	1252.634084194753	2.437566281239
4	522	1270.28455448438	1.332998712421
4	528	1295.745026143725	7.066085394263
4	531	1303.466565352141	2.621442191354
4	537	1324.46892312818	3.889957141039
4	540	1333.737535681525	1.152749899137
4	543	1342.088399496252	0.447926596595
4	571	1383.931029899874	31.218772033611
4	572	1383.967184713128	30.370312252493
4	573	1384.802705406459	30.372242506464
4	574	1385.593153124392	22.067885306818
4	575	1385.835198217209	21.853177995129
4	576	1387.425533380901	20.627126645381
4	577	1387.596358608437	19.79755958018
4	578	1387.648855577891	6.660205276632
4	579	1389.455611939955	6.015238909971
4	591	1412.906510415014	6.961343235788
4	594	1424.261361994145	1.864686552403
4	597	1430.082138707953	0.454882951636
4	600	1431.717020650104	1.031931877248
4	603	1440.217581773959	0.280098725403
4	606	1440.745715495719	0.144148407065
4	609	1442.859551920931	1.585172090745
4	612	1470.284073101476	0.194461886793
4	615	1478.290535031625	0.434011101977
4	618	1480.018302586901	0.383999048694
4	621	1482.036119792931	1.01853854551
4	632	1500.47423323915	10.4948673836
4	633	1501.154296496168	1.641159515707
4	645	1529.798584207994	0.256939742711
4	648	1534.93758368292	0.875868197305
4	651	1540.844477466726	2.213551473168
4	658	1556.032482115692	2.801800874858
4	659	1558.729514190689	5.280274917547
4	665	1562.4310562403	3.66798733667
4	668	1562.520002246316	1.219496584945
4	669	1562.63843947257	0.174639042966
4	672	1567.79928028491	1.668044204272
4	675	1579.507151952652	1.855050532764
4	681	1600.749197989316	5.190582665275
4	684	1603.21223241076	0.424690971355
4	690	1629.725327379921	0.434981163699
4	693	1637.874571624849	0.106280131352
4	696	1639.810447478918	0.661765372765
4	699	1658.192459084002	0.483549461389
4	702	1676.850792350956	1.355300105688
4	705	1682.898750013478	0.714074220678
4	708	1698.104173088781	0.46644884345
4	711	1717.499480830335	3.246840438218
4	714	1725.988786868224	0.035790408778
4	717	1733.555907981371	0.464439331837
4	723	1743.767957889675	0.165656926463
4	732	1769.749516842245	0.01244654852
4	735	1797.817810836097	0.388160966743
4	749	1824.999799157602	16.576190231701
4	750	1825.124804528549	14.007335348422
4	751	1825.242587158091	12.514895818178
4	752	1825.688381991455	6.393310657375
4	753	1826.339119404772	2.509779476406
4	759	1851.254428768417	1.195999182967
4	765	1872.0377881954	1.896986866462
4	768	1873.665128655339	1.5713780652
4	771	1877.129034880569	0.723066256703
4	774	1878.657745748414	0.590897721152
4	777	1880.753726193178	0.591688355163
4	788	1921.301584922158	4.765931339486
4	789	1922.913407769165	2.032430010649
4	792	1925.461467411651	0.714807113319
4	795	1929.755922902305	0.020602153905
4	803	1962.435842589591	11.002736580428
4	804	1963.285921163216	2.205095230381
4	807	1969.018583894454	0.054892102219
4	810	1975.234278614346	0.529980613238
4	813	1979.625030986941	0.282804497721
4	818	1986.574613289266	4.208866511036
4	819	1987.984899269769	4.14660615654
4	827	1994.141170507445	4.984560024968
4	828	1995.128680010315	4.778485493013
4	831	1995.83629829626	0.055472644915
4	834	1997.909541467295	1.378427564411
4	837	2020.013442695317	0.211311048652
4	840	2026.347264784438	4.397854039986
4	848	2068.923863173532	8.044273319865
4	849	2069.815307052343	8.906408335041
4	852	2071.892927706844	1.213828119955
4	855	2092.323962891612	0.705980820375
4	858	2092.890007347906	0.40353918646
4	869	2137.579607351653	17.425560763951
4	870	2138.025868200221	4.666803498478
4	873	2141.197127139005	0.853488433065
4	876	2154.241266251511	2.544281732896
4	882	2167.688340296086	2.228120877824
4	891	2186.019647187442	3.071113509246
4	894	2191.419407801064	1.773225375233
4	904	2196.696868052535	2.742703944629
4	905	2197.207302930293	3.209018800761
4	906	2199.495700677678	4.93468936477
4	909	2202.696873330816	1.930770979429
4	912	2210.629866139903	0.400855632113
4	915	2211.954827361902	0.153869953108
4	918	2213.211378946064	0.086362747488
4	921	2218.244843800906	1.426645624721
4	927	2231.817840923685	0.748062945227
4	930	2247.773243802516	2.71120638828
4	933	2261.962695207042	1.081296243649
4	944	2281.994330850304	7.033281318095
4	945	2284.22911053236	4.014981404663
4	948	2305.302155216374	0.137024773939
4	960	2346.16680663936	10.301073350492
4	963	2360.920390511085	0.13047093543
4	968	2364.16824235298	1.469383288167
4	969	2365.097897939228	1.454374568672
4	975	2393.641538925577	1.423369695309
4	978	2398.501350887446	4.110265705276
4	981	2401.89317100868	1.238043479084
4	984	2411.246752801282	2.348389751104
4	989	2424.504208772717	1.209162349651
4	990	2424.806715087111	1.406854558914
4	993	2438.834393310066	1.458140060207
4	996	2440.896713481151	0.908151461208
4	1004	2484.317405463911	4.208997723629
4	1005	2487.84350970484	7.402039172715
5	119	354.757849584372	1
5	131	378.20040898439	1
5	137	391.767237284278	1
5	149	410.663899489857	1
5	161	420.87844282726	1
5	167	437.363164677891	1
5	173	461.719069146592	1
5	185	505.32321760767	1
5	194	519.735845114752	1
5	203	554.899595016344	1
5	219	588.183587634031	1
5	228	600.539994800195	1
5	239	618.787162636242	1
5	245	625.641959344216	1
5	251	647.26162552967	1
5	254	651.490296628691	1
5	263	677.406252787069	1
5	272	709.61990692432	1
5	326	825.316222675048	1
5	359	886.708287626157	1
5	386	929.558561205755	1
5	395	945.573669883936	1
5	404	958.900490531521	1
5	410	987.269736988034	1
5	434	1039.510600199808	1
5	449	1079.962591761471	1
5	464	1123.360225363677	1
5	469	1138.680972658333	1
5	471	1140.081333291793	2
5	482	1168.090105665538	1
5	488	1199.792867917209	1
5	492	1203.79252994237	2
5	512	1244.301280812866	1
5	518	1255.345249120624	1
5	526	1288.678940749462	1
5	533	1312.63780748306	1
5	545	1343.509929233885	1
5	553	1358.117719725472	2
5	564	1377.581907498264	2
5	581	1399.029644146794	1
5	583	1402.362905933047	2
5	586	1404.579349620298	2
5	623	1483.622424288542	1
5	625	1489.939424025676	2
5	635	1502.846113433367	1
5	637	1508.990117586892	2
5	641	1515.104122808249	1
5	661	1558.76306890363	1
5	677	1590.345158181845	1
5	686	1605.760989798109	1
5	719	1734.54049907613	1
5	725	1754.265017155247	1
5	728	1761.644908105008	1
5	737	1800.378156450047	1
5	755	1828.194118418841	1
5	761	1861.857583627929	1
5	779	1884.702798397291	1
5	784	1916.535653582672	1
5	797	1948.122721673178	1
5	821	1988.088419027561	1
5	842	2057.34302269493	1
5	860	2110.747846604462	1
5	864	2121.587123076923	2
5	878	2164.680957283682	1
5	884	2171.994440221103	1
5	887	2181.124409608105	1
5	900	2193.998284129532	1
5	923	2228.197383202115	1
5	935	2262.5082264203	1
5	938	2274.792759052252	1
5	950	2306.98301209186	1
5	953	2322.839297228415	1
5	958	2335.865733288868	1
5	971	2366.81641764498	1
5	1002	2480.441470532125	1
5	1007	2491.799713292694	1
6	119	354.757849584372	0
6	120	359.97327927152	0
6	131	378.20040898439	0
6	132	378.880947170811	0
6	137	391.767237284278	0
6	138	392.328077147749	0
6	149	410.663899489857	0
6	156	414.741239731418	0
6	161	420.87844282726	0
6	162	423.222752721896	0
6	167	437.363164677891	0
6	168	437.483451834913	0
6	173	461.719069146592	0
6	174	466.915910685706	0
6	185	505.32321760767	0
6	190	510.950303310412	0
6	194	519.735845114752	0
6	197	528.263576821273	0
6	203	554.899595016344	0
6	204	570.132421263897	0
6	219	588.183587634031	0
6	226	600.395913242377	0
6	228	600.539994800195	0
6	231	603.552977007199	0
6	239	618.787162636242	0
6	242	622.383824466355	0
6	245	625.641959344216	0
6	246	629.385445220945	0
6	251	647.26162552967	0
6	252	647.773205699977	0
6	254	651.490296628691	0
6	259	659.904336544472	0
6	263	677.406252787069	0
6	264	679.955366912262	0
6	272	709.61990692432	0
6	275	717.98772756517	0
6	326	825.316222675048	0
6	333	843.342018249002	0
6	359	886.708287626157	0
6	364	895.590338022042	0
6	386	929.558561205755	0
6	387	931.358687202186	0
6	395	945.573669883936	0
6	400	948.758219026757	0
6	404	958.900490531521	0
6	405	963.413287142548	0
6	410	987.269736988034	0
6	417	1007.163805773834	0
6	434	1039.510600199808	0
6	443	1059.585393345853	0
6	449	1079.962591761471	0
6	452	1082.247112691942	0
6	464	1123.360225363677	0
6	465	1123.54933378551	0
6	469	1138.680972658333	0
6	471	1140.081333291793	1
6	472	1149.101097156396	1
6	473	1155.983576998709	0
6	482	1168.090105665538	0
6	483	1170.296822207738	0
6	488	1199.792867917209	0
6	492	1203.79252994237	1
6	497	1222.2803092761	1
6	500	1236.573719357344	0
6	512	1244.301280812866	0
6	513	1246.264467286388	0
6	518	1255.345249120624	0
6	519	1256.779432001646	0
6	526	1288.678940749462	0
6	527	1294.642622548998	0
6	533	1312.63780748306	0
6	536	1324.369983363974	0
6	545	1343.509929233885	0
6	553	1358.117719725472	1
6	554	1361.497234845418	1
6	564	1377.581907498264	1
6	567	1382.307186890149	1
6	568	1383.379025082879	0
6	581	1399.029644146794	0
6	583	1402.362905933047	1
6	584	1403.497426858789	1
6	586	1404.579349620298	1
6	589	1409.055707660029	1
6	590	1412.697432809209	0
6	623	1483.622424288542	0
6	625	1489.939424025676	1
6	628	1494.031937836039	1
6	629	1497.349562286593	0
6	635	1502.846113433367	0
6	637	1508.990117586892	1
6	638	1511.138690288204	1
6	639	1512.75023311686	0
6	641	1515.104122808249	0
6	642	1519.83397790889	0
6	661	1558.76306890363	0
6	662	1559.557223593982	0
6	677	1590.345158181845	0
6	678	1592.064333387371	0
6	686	1605.760989798109	0
6	687	1610.703567358978	0
6	719	1734.54049907613	0
6	720	1739.601854798179	0
6	725	1754.265017155247	0
6	726	1761.398642090359	0
6	728	1761.644908105008	0
6	729	1765.138617070136	0
6	737	1800.378156450047	0
6	746	1823.035777731731	0
6	755	1828.194118418841	0
6	756	1833.061176922821	0
6	761	1861.857583627929	0
6	762	1865.074119726971	0
6	779	1884.702798397291	0
6	780	1888.119299248452	0
6	784	1916.535653582672	0
6	785	1918.963216503034	0
6	797	1948.122721673178	0
6	802	1961.770118030529	0
6	821	1988.088419027561	0
6	826	1992.524700280002	0
6	842	2057.34302269493	0
6	847	2068.321618575424	0
6	860	2110.747846604462	0
6	864	2121.587123076923	1
6	867	2134.508099181477	1
6	868	2137.334623416305	0
6	878	2164.680957283682	0
6	881	2166.165470461178	0
6	884	2171.994440221103	0
6	885	2178.370146866658	0
6	887	2181.124409608105	0
6	888	2182.279302574747	0
6	900	2193.998284129532	0
6	903	2196.421021437773	0
6	923	2228.197383202115	0
6	924	2228.851398555042	0
6	935	2262.5082264203	0
6	936	2267.030871681632	0
6	938	2274.792759052252	0
6	943	2280.735626496313	0
6	950	2306.98301209186	0
6	951	2310.248328679798	0
6	953	2322.839297228415	0
6	954	2325.624549567744	0
6	958	2335.865733288868	0
6	959	2343.899659318061	0
6	971	2366.81641764498	0
6	972	2369.308582249574	0
6	1002	2480.441470532125	0
6	1003	2483.910917174453	0
6	1007	2491.799713292694	0
7	119	354.757849584372	0
7	131	378.20040898439	0
7	137	391.767237284278	0
7	149	410.663899489857	0
7	161	420.87844282726	0
7	167	437.363164677891	0
7	173	461.719069146592	0
7	185	505.32321760767	0
7	194	519.735845114752	0
7	203	554.899595016344	0
7	219	588.183587634031	0
7	228	600.539994800195	0
7	239	618.787162636242	0
7	245	625.641959344216	0
7	251	647.26162552967	0
7	254	651.490296628691	0
7	263	677.406252787069	0
7	272	709.61990692432	0
7	326	825.316222675048	0
7	359	886.708287626157	0
7	386	929.558561205755	0
7	395	945.573669883936	0
7	404	958.900490531521	0
7	410	987.269736988034	0
7	434	1039.510600199808	0
7	449	1079.962591761471	0
7	464	1123.360225363677	0
7	469	1138.680972658333	0
7	472	1149.101097156396	9.019763864603
7	482	1168.090105665538	0
7	488	1199.792867917209	0
7	497	1222.2803092761	18.48777933373
7	512	1244.301280812866	0
7	518	1255.345249120624	0
7	526	1288.678940749462	0
7	533	1312.63780748306	0
7	545	1343.509929233885	0
7	554	1361.497234845418	3.379515119946
7	567	1382.307186890149	4.725279391885
7	581	1399.029644146794	0
7	584	1403.497426858789	1.134520925742
7	589	1409.055707660029	4.476358039731
7	623	1483.622424288542	0
7	628	1494.031937836039	4.092513810363
7	635	1502.846113433367	0
7	638	1511.138690288204	2.148572701312
7	641	1515.104122808249	0
7	661	1558.76306890363	0
7	677	1590.345158181845	0
7	686	1605.760989798109	0
7	719	1734.54049907613	0
7	725	1754.265017155247	0
7	728	1761.644908105008	0
7	737	1800.378156450047	0
7	755	1828.194118418841	0
7	761	1861.857583627929	0
7	779	1884.702798397291	0
7	784	1916.535653582672	0
7	797	1948.122721673178	0
7	821	1988.088419027561	0
7	842	2057.34302269493	0
7	860	2110.747846604462	0
7	867	2134.508099181477	12.920976104554
7	878	2164.680957283682	0
7	884	2171.994440221103	0
7	887	2181.124409608105	0
7	900	2193.998284129532	0
7	923	2228.197383202115	0
7	935	2262.5082264203	0
7	938	2274.792759052252	0
7	950	2306.98301209186	0
7	953	2322.839297228415	0
7	958	2335.865733288868	0
7	971	2366.81641764498	0
7	1002	2480.441470532125	0
7	1007	2491.799713292694	0
8	120	359.97327927152	13
8	132	378.880947170811	14
8	138	392.328077147749	15
8	156	414.741239731418	16
8	162	423.222752721896	17
8	168	437.483451834913	18
8	174	466.915910685706	19
8	190	510.950303310412	20
8	197	528.263576821273	21
8	204	570.132421263897	22
8	226	600.395913242377	23
8	231	603.552977007199	24
8	242	622.383824466355	25
8	246	629.385445220945	26
8	252	647.773205699977	27
8	259	659.904336544472	28
8	264	679.955366912262	29
8	275	717.98772756517	30
8	333	843.342018249002	31
8	364	895.590338022042	32
8	387	931.358687202186	33
8	400	948.758219026757	34
8	405	963.413287142548	35
8	417	1007.163805773834	36
8	443	1059.585393345853	37
8	452	1082.247112691942	38
8	465	1123.54933378551	39
8	472	1149.101097156396	40
8	473	1155.983576998709	41
8	483	1170.296822207738	42
8	497	1222.2803092761	43
8	500	1236.573719357344	44
8	513	1246.264467286388	45
8	519	1256.779432001646	46
8	527	1294.642622548998	47
8	536	1324.369983363974	48
8	554	1361.497234845418	49
8	567	1382.307186890149	50
8	568	1383.379025082879	51
8	584	1403.497426858789	52
8	589	1409.055707660029	53
8	590	1412.697432809209	54
8	628	1494.031937836039	55
8	629	1497.349562286593	56
8	638	1511.138690288204	57
8	639	1512.75023311686	58
8	642	1519.83397790889	59
8	662	1559.557223593982	60
8	678	1592.064333387371	61
8	687	1610.703567358978	62
8	720	1739.601854798179	63
8	726	1761.398642090359	64
8	729	1765.138617070136	65
8	746	1823.035777731731	66
8	756	1833.061176922821	67
8	762	1865.074119726971	68
8	780	1888.119299248452	69
8	785	1918.963216503034	70
8	802	1961.770118030529	71
8	826	1992.524700280002	72
8	847	2068.321618575424	73
8	867	2134.508099181477	74
8	868	2137.334623416305	75
8	881	2166.165470461178	76
8	885	2178.370146866658	77
8	888	2182.279302574747	78
8	903	2196.421021437773	79
8	924	2228.851398555042	80
8	936	2267.030871681632	81
8	943	2280.735626496313	82
8	951	2310.248328679798	83
8	954	2325.624549567744	84
8	959	2343.899659318061	85
8	972	2369.308582249574	86
8	1003	2483.910917174453	87
9	120	359.97327927152	5.215429687148
9	132	378.880947170811	0.680538186421
9	138	392.328077147749	0.560839863471
9	156	414.741239731418	4.077340241561
9	162	423.222752721896	2.344309894636
9	168	437.483451834913	0.120287157022
9	174	466.915910685706	5.196841539114
9	190	510.950303310412	5.627085702742
9	197	528.263576821273	8.527731706521
9	204	570.132421263897	15.232826247553
9	226	600.395913242377	12.212325608346
9	231	603.552977007199	3.012982207004
9	242	622.383824466355	3.596661830113
9	246	629.385445220945	3.743485876729
9	252	647.773205699977	0.511580170307
9	259	659.904336544472	8.414039915781
9	264	679.955366912262	2.549114125193
9	275	717.98772756517	8.36782064085
9	333	843.342018249002	18.025795573954
9	364	895.590338022042	8.882050395885
9	387	931.358687202186	1.800125996431
9	400	948.758219026757	3.184549142821
9	405	963.413287142548	4.512796611027
9	417	1007.163805773834	19.8940687858
9	443	1059.585393345853	20.074793146045
9	452	1082.247112691942	2.284520930471
9	465	1123.54933378551	0.189108421833
9	472	1149.101097156396	10.420124498063
9	473	1155.983576998709	15.902243706916
9	483	1170.296822207738	2.2067165422
9	497	1222.2803092761	22.487441358891
9	500	1236.573719357344	32.781189414974
9	513	1246.264467286388	1.963186473522
9	519	1256.779432001646	1.434182881022
9	527	1294.642622548998	5.963681799536
9	536	1324.369983363974	11.732175880914
9	554	1361.497234845418	17.987305611533
9	567	1382.307186890149	24.189467164677
9	568	1383.379025082879	5.797117584615
9	584	1403.497426858789	4.467782711995
9	589	1409.055707660029	6.692801726982
9	590	1412.697432809209	8.118083188911
9	628	1494.031937836039	10.409513547497
9	629	1497.349562286593	7.410138260917
9	638	1511.138690288204	8.292576854837
9	639	1512.75023311686	3.760115529968
9	642	1519.83397790889	4.729855100641
9	662	1559.557223593982	0.794154690352
9	678	1592.064333387371	1.719175205526
9	687	1610.703567358978	4.942577560869
9	720	1739.601854798179	5.061355722049
9	726	1761.398642090359	7.133624935112
9	729	1765.138617070136	3.493708965128
9	746	1823.035777731731	22.657621281684
9	756	1833.061176922821	4.86705850398
9	762	1865.074119726971	3.216536099042
9	780	1888.119299248452	3.416500851161
9	785	1918.963216503034	2.427562920362
9	802	1961.770118030529	13.647396357351
9	826	1992.524700280002	4.436281252441
9	847	2068.321618575424	10.978595880494
9	867	2134.508099181477	23.760252577015
9	868	2137.334623416305	15.747500339382
9	881	2166.165470461178	1.484513177496
9	885	2178.370146866658	6.375706645555
9	888	2182.279302574747	1.154892966642
9	903	2196.421021437773	2.422737308241
9	924	2228.851398555042	0.654015352927
9	936	2267.030871681632	4.522645261332
9	943	2280.735626496313	5.942867444061
9	951	2310.248328679798	3.265316587938
9	954	2325.624549567744	2.785252339329
9	959	2343.899659318061	8.033926029193
9	972	2369.308582249574	2.492164604594
9	1003	2483.910917174453	3.469446642328
10	219	588.183587634031	1
10	228	600.539994800195	2
10	469	1138.680972658333	3
10	526	1288.678940749462	4
10	661	1558.76306890363	5
10	784	1916.535653582672	6
10	900	2193.998284129532	7
10	958	2335.865733288868	8
10	1002	2480.441470532125	9
11	1008	2500	0.0992
12	1008	2500	0.0348

