version 2
run analysis_2kr_easy_game_mode-85-20230307-21:31:23-4583
attr configname analysis_2kr_easy_game_mode
attr datetime 20230307-21:31:23
attr experiment analysis_2kr_easy_game_mode
attr inifile omnetpp.ini
attr iterationvars "$0=25, $1=5, $2=10, $3=1, $4=100"
attr iterationvarsf 25,5,10,1,100-
attr measurement "$0=25, $1=5, $2=10, $3=1, $4=100"
attr network Network
attr processid 4583
attr repetition 0
attr replication #0
attr resultdir results
attr runnumber 85
attr seedset 0
param *.boss.arrival_mean 25
param *.boss.service_mean 5
param *.minion.arrival_mean 10
param *.minion.service_mean 1
param *.player.recover_rate_x 100
param **.minion.arrival_distribution 0
param **.minion.service_distribution 0
param **.boss.arrival_distribution 0
param **.boss.service_distribution 0

vector 0 Network.player minion_jobs_number_stat:vector ETV
attr source signal_minion_jobs_number
vector 1 Network.player minion_jobs_queue_number_stat:vector ETV
attr source signal_minion_jobs_queue_number
vector 2 Network.player minion_waiting_time_stat:vector ETV
attr source signal_minion_waiting_time
vector 3 Network.player minion_defeated_stat:vector ETV
attr source signal_minion_defeated
vector 4 Network.player minion_response_time_stat:vector ETV
attr source signal_minion_response_time
vector 5 Network.player boss_jobs_number_stat:vector ETV
attr source signal_boss_jobs_number
vector 6 Network.player boss_jobs_queue_number_stat:vector ETV
attr source signal_boss_jobs_queue_number
vector 7 Network.player boss_waiting_time_stat:vector ETV
attr source signal_boss_waiting_time
vector 8 Network.player boss_defeated_stat:vector ETV
attr source signal_boss_defeated
vector 9 Network.player boss_response_time_stat:vector ETV
attr source signal_boss_response_time
vector 10 Network.player minion_recovered_stat:vector ETV
attr source signal_minion_recovered
vector 11 Network.player minion_throughput:vector ETV
attr source signal_minion_throughput
vector 12 Network.player boss_throughput:vector ETV
attr source signal_boss_throughput
0	161	356.599406890352	1
0	167	388.101106177111	1
0	173	403.158948763485	1
0	176	404.671257300135	1
0	179	425.074399879554	1
0	185	445.483322038671	1
0	191	483.935540730089	1
0	198	490.35263245687	2
0	205	506.405028027485	1
0	209	522.545048776411	1
0	215	528.734343372678	1
0	218	536.083987584576	1
0	226	551.249347324478	1
0	230	562.60873674158	1
0	233	563.867480835961	1
0	236	576.619757858197	1
0	242	586.834076601689	1
0	245	595.55728855211	1
0	247	597.10458535711	2
0	251	604.812931941783	1
0	259	633.757136721654	1
0	263	647.970783522591	1
0	266	655.34905644015	1
0	269	656.468518046476	1
0	272	661.824175248755	1
0	275	668.241122269066	1
0	278	671.313925790591	1
0	281	673.375958610896	1
0	287	688.258506868413	1
0	292	701.611408714652	1
0	296	707.702232946483	1
0	298	710.142717853848	2
0	305	718.54606490997	1
0	308	719.998845182892	1
0	310	720.188530874903	2
0	314	724.10623898167	1
0	319	733.720048372328	1
0	321	735.341413266788	2
0	323	744.811380038538	3
0	329	747.325799359286	1
0	332	756.921279132968	1
0	335	761.806849626048	1
0	347	790.585999838825	1
0	350	813.875133580967	1
0	353	825.326523127968	1
0	356	831.303983896152	1
0	359	835.759168846664	1
0	362	845.254114681631	1
0	365	850.999438749043	1
0	371	874.262949365986	1
0	376	886.224027360557	1
0	379	887.269639618309	2
0	382	887.890792522973	2
0	400	922.892929367519	1
0	412	933.882054043028	1
0	416	944.470395357904	1
0	421	955.576369814776	1
0	425	957.450630474955	1
0	428	959.812697535782	1
0	431	964.246737821988	1
0	434	965.627024706273	1
0	439	979.517451604183	1
0	443	983.30707124701	1
0	446	992.667686844724	1
0	451	997.18870744697	1
0	455	1001.119833020011	2
0	466	1009.564110955288	1
0	468	1009.955942519419	2
0	473	1015.729185627484	1
0	476	1025.78789567915	1
0	485	1070.332864140911	1
0	497	1102.262330561447	1
0	499	1103.338681643008	2
0	503	1113.91694577653	3
0	507	1116.259960964286	4
0	513	1126.340153418487	5
0	515	1128.099288872743	6
0	530	1181.700292375175	1
0	535	1192.287719526116	1
0	539	1201.006878062373	1
0	542	1203.927683395045	1
0	547	1209.278330165878	1
0	550	1215.55774597579	2
0	554	1221.995555991815	1
0	557	1224.798326076605	1
0	560	1234.566966817312	1
0	563	1236.298241378774	1
0	566	1240.423253677999	1
0	569	1241.592807775924	1
0	575	1252.824490791257	1
0	580	1263.505212762752	1
0	584	1267.320771196494	1
0	587	1268.807893889015	1
0	590	1283.87424722174	1
0	593	1286.063053186813	1
0	602	1315.934952105333	1
0	605	1320.535091682736	1
0	611	1331.397785491519	1
0	614	1348.601102068685	1
0	616	1348.737747852994	2
0	619	1349.759196668243	2
0	623	1359.510216009806	1
0	629	1377.70840520265	1
0	632	1388.906548860189	1
0	635	1389.916896613279	1
0	638	1425.652780336723	1
0	641	1463.143094932568	1
0	646	1484.19630794049	1
0	649	1490.519673904448	2
0	653	1497.64550983778	1
0	668	1535.26478268282	1
0	671	1535.838051947058	1
0	674	1545.122836916072	1
0	680	1551.122305782482	1
0	683	1564.564758504005	1
0	685	1564.766659785467	2
0	688	1565.16642277605	2
0	692	1570.99520666472	1
0	695	1574.319309074357	1
0	701	1613.23501030281	1
0	704	1614.515577955922	1
0	707	1618.96977257512	1
0	710	1622.481533468933	1
0	713	1629.037996312569	1
0	716	1630.301882676822	1
0	719	1641.970617942308	1
0	722	1645.797627430926	1
0	725	1667.039999400943	1
0	728	1672.388843158512	1
0	736	1697.427960989364	1
0	738	1698.090935004186	2
0	742	1700.534889485004	2
0	746	1712.326784755656	1
0	754	1720.655219916318	1
0	758	1729.016195236021	1
0	761	1749.048600461093	1
0	764	1752.132748862071	1
0	767	1759.245228234243	1
0	770	1766.652817738713	1
0	776	1791.508641308481	1
0	778	1792.495144392664	2
0	782	1817.898189472251	1
0	785	1826.477145882993	1
0	787	1827.344850706389	2
0	791	1853.837409993153	1
0	794	1857.090814148443	1
0	797	1860.926416289429	1
0	799	1861.02042379607	2
0	803	1872.028882896978	1
0	806	1890.502159406996	1
0	809	1891.915466542604	1
0	814	1902.333273084399	1
0	821	1914.932611185489	1
0	827	1933.34543590036	1
0	830	1936.761977570621	1
0	835	1939.837154808245	1
0	837	1941.860659193917	2
0	842	1946.932660426483	1
0	848	1955.763950846076	1
0	853	1963.81192484409	1
0	855	1964.015049432046	2
0	857	1965.817571951894	3
0	863	1983.474982676025	1
0	866	1988.09229163647	1
0	868	1988.139357041393	2
0	871	1989.722772103698	2
0	875	2001.049113523423	1
0	881	2009.479943844907	1
0	884	2012.627160453453	1
0	890	2024.792246987819	1
0	896	2038.079825725322	1
0	899	2041.483293107674	1
0	905	2074.234724884822	1
0	908	2079.913766419625	1
0	913	2082.773976144706	1
0	917	2096.88422023765	1
0	923	2105.46814991594	1
0	929	2110.511587981818	1
0	932	2119.477496689677	1
0	935	2142.114832448286	1
0	938	2150.60704056393	1
0	941	2160.793627864118	1
0	944	2163.317827793029	1
0	949	2185.53289677777	1
0	953	2216.055713346613	1
0	959	2227.451792981942	1
0	962	2233.378033256464	1
0	965	2239.341827199759	1
0	971	2258.076425998331	1
0	980	2296.506491830768	1
0	983	2308.528877503233	1
0	985	2309.764143976854	2
0	989	2313.294345309596	1
0	992	2327.862530895238	1
0	995	2344.671752940697	1
0	998	2349.978977906862	1
0	1001	2355.029165384409	1
0	1007	2366.281985552846	1
0	1013	2387.576979513526	1
0	1016	2390.451084274226	1
0	1019	2399.15644253749	1
0	1022	2402.913830961558	1
0	1027	2424.26213546139	1
0	1031	2457.905839991901	1
0	1037	2469.699669328347	1
0	1040	2478.578283432714	1
0	1046	2491.497376120721	1
1	161	356.599406890352	0
1	162	357.417414201732	0
1	167	388.101106177111	0
1	168	388.664451408453	0
1	173	403.158948763485	0
1	174	403.310221681157	0
1	176	404.671257300135	0
1	177	407.470235911418	0
1	179	425.074399879554	0
1	180	425.295173096439	0
1	185	445.483322038671	0
1	186	446.990154787664	0
1	191	483.935540730089	0
1	198	490.35263245687	1
1	200	494.327161400748	1
1	201	495.585838611923	0
1	205	506.405028027485	0
1	207	510.580925077045	0
1	209	522.545048776411	0
1	213	526.00118667102	0
1	215	528.734343372678	0
1	216	529.110381995093	0
1	218	536.083987584576	0
1	219	536.181380823701	0
1	226	551.249347324478	0
1	228	557.943743873383	0
1	230	562.60873674158	0
1	231	563.338864446715	0
1	233	563.867480835961	0
1	234	565.95809775892	0
1	236	576.619757858197	0
1	237	578.622388335273	0
1	242	586.834076601689	0
1	243	589.084132470903	0
1	245	595.55728855211	0
1	247	597.10458535711	1
1	248	597.324239770702	1
1	249	597.413119299293	0
1	251	604.812931941783	0
1	252	606.582558352405	0
1	259	633.757136721654	0
1	261	641.138553371961	0
1	263	647.970783522591	0
1	264	648.289681071073	0
1	266	655.34905644015	0
1	267	655.535181729108	0
1	269	656.468518046476	0
1	270	656.529588664639	0
1	272	661.824175248755	0
1	273	663.929078233385	0
1	275	668.241122269066	0
1	276	669.3513863	0
1	278	671.313925790591	0
1	279	671.417451142747	0
1	281	673.375958610896	0
1	282	674.275061692308	0
1	287	688.258506868413	0
1	288	688.8051455605	0
1	292	701.611408714652	0
1	294	705.09663112506	0
1	296	707.702232946483	0
1	298	710.142717853848	1
1	299	710.869691868936	1
1	300	711.400359514997	0
1	305	718.54606490997	0
1	306	719.307844932525	0
1	308	719.998845182892	0
1	310	720.188530874903	1
1	311	720.218932027608	1
1	312	721.396188618527	0
1	314	724.10623898167	0
1	315	724.448207798143	0
1	319	733.720048372328	0
1	321	735.341413266788	1
1	323	744.811380038538	2
1	325	745.403850395418	2
1	326	745.557141599775	1
1	327	746.717100468096	0
1	329	747.325799359286	0
1	330	748.855107517974	0
1	332	756.921279132968	0
1	333	758.720822861967	0
1	335	761.806849626048	0
1	336	762.338794780503	0
1	347	790.585999838825	0
1	348	790.604457416824	0
1	350	813.875133580967	0
1	351	813.909902381029	0
1	353	825.326523127968	0
1	354	826.713394905325	0
1	356	831.303983896152	0
1	357	832.282229777745	0
1	359	835.759168846664	0
1	360	840.256479515017	0
1	362	845.254114681631	0
1	363	846.334795871643	0
1	365	850.999438749043	0
1	366	852.378422510186	0
1	371	874.262949365986	0
1	372	874.617477043359	0
1	376	886.224027360557	0
1	379	887.269639618309	1
1	380	887.597489525823	1
1	382	887.890792522973	1
1	383	888.188322928529	1
1	384	889.745544800157	0
1	400	922.892929367519	0
1	402	923.504363706618	0
1	412	933.882054043028	0
1	414	936.640084881554	0
1	416	944.470395357904	0
1	417	944.546590000963	0
1	421	955.576369814776	0
1	423	957.32367611644	0
1	425	957.450630474955	0
1	426	958.084073032845	0
1	428	959.812697535782	0
1	429	962.205158152306	0
1	431	964.246737821988	0
1	432	964.347854310678	0
1	434	965.627024706273	0
1	435	965.974618357787	0
1	439	979.517451604183	0
1	441	982.261824057372	0
1	443	983.30707124701	0
1	444	983.646433134927	0
1	446	992.667686844724	0
1	447	992.794941376707	0
1	451	997.18870744697	0
1	455	1001.119833020011	1
1	458	1003.676696643589	1
1	459	1004.420714856149	0
1	466	1009.564110955288	0
1	468	1009.955942519419	1
1	470	1009.978924278791	1
1	471	1010.066251711514	0
1	473	1015.729185627484	0
1	474	1016.864987548608	0
1	476	1025.78789567915	0
1	477	1028.275141073871	0
1	485	1070.332864140911	0
1	486	1070.570649501109	0
1	497	1102.262330561447	0
1	499	1103.338681643008	1
1	503	1113.91694577653	2
1	507	1116.259960964286	3
1	513	1126.340153418487	4
1	515	1128.099288872743	5
1	517	1129.353460715415	5
1	518	1130.445263550499	4
1	519	1130.800411248237	3
1	520	1131.476845196775	2
1	521	1132.354851047079	1
1	522	1132.409690140803	0
1	530	1181.700292375175	0
1	531	1182.534800441385	0
1	535	1192.287719526116	0
1	537	1198.191958740659	0
1	539	1201.006878062373	0
1	540	1201.958636187591	0
1	542	1203.927683395045	0
1	543	1204.086360973403	0
1	547	1209.278330165878	0
1	550	1215.55774597579	1
1	551	1218.040743412993	1
1	552	1218.930649153663	0
1	554	1221.995555991815	0
1	555	1222.297984908287	0
1	557	1224.798326076605	0
1	558	1226.001493743672	0
1	560	1234.566966817312	0
1	561	1234.829651180891	0
1	563	1236.298241378774	0
1	564	1236.406199075791	0
1	566	1240.423253677999	0
1	567	1241.185640530946	0
1	569	1241.592807775924	0
1	570	1242.127338809308	0
1	575	1252.824490791257	0
1	576	1255.818986501506	0
1	580	1263.505212762752	0
1	582	1266.097153624671	0
1	584	1267.320771196494	0
1	585	1268.000133020185	0
1	587	1268.807893889015	0
1	588	1269.342635340235	0
1	590	1283.87424722174	0
1	591	1284.652082317241	0
1	593	1286.063053186813	0
1	594	1286.114297491696	0
1	602	1315.934952105333	0
1	603	1317.385188289704	0
1	605	1320.535091682736	0
1	606	1321.302739177092	0
1	611	1331.397785491519	0
1	612	1331.444191511298	0
1	614	1348.601102068685	0
1	616	1348.737747852994	1
1	617	1349.691135210203	1
1	619	1349.759196668243	1
1	620	1349.84191870565	1
1	621	1350.565296475606	0
1	623	1359.510216009806	0
1	624	1361.082375378608	0
1	629	1377.70840520265	0
1	630	1380.601486281573	0
1	632	1388.906548860189	0
1	633	1388.936803305236	0
1	635	1389.916896613279	0
1	636	1390.800127491401	0
1	638	1425.652780336723	0
1	639	1427.79943466361	0
1	641	1463.143094932568	0
1	642	1465.480291272686	0
1	646	1484.19630794049	0
1	649	1490.519673904448	1
1	650	1491.021925214051	1
1	651	1491.169816014321	0
1	653	1497.64550983778	0
1	654	1498.239681170665	0
1	668	1535.26478268282	0
1	669	1535.414764465219	0
1	671	1535.838051947058	0
1	672	1538.064934833022	0
1	674	1545.122836916072	0
1	678	1548.455501165191	0
1	680	1551.122305782482	0
1	681	1551.596452936559	0
1	683	1564.564758504005	0
1	685	1564.766659785467	1
1	686	1565.07171966096	1
1	688	1565.16642277605	1
1	689	1565.844829724182	1
1	690	1566.0255775526	0
1	692	1570.99520666472	0
1	693	1572.051618678291	0
1	695	1574.319309074357	0
1	696	1576.94359612449	0
1	701	1613.23501030281	0
1	702	1613.683269698257	0
1	704	1614.515577955922	0
1	705	1614.942929625811	0
1	707	1618.96977257512	0
1	708	1619.816090893673	0
1	710	1622.481533468933	0
1	711	1623.871081527891	0
1	713	1629.037996312569	0
1	714	1630.053655765284	0
1	716	1630.301882676822	0
1	717	1631.596502504319	0
1	719	1641.970617942308	0
1	720	1642.105653186055	0
1	722	1645.797627430926	0
1	723	1647.945828369223	0
1	725	1667.039999400943	0
1	726	1668.211842566861	0
1	728	1672.388843158512	0
1	729	1673.36613788184	0
1	736	1697.427960989364	0
1	738	1698.090935004186	1
1	740	1700.279427089425	1
1	742	1700.534889485004	1
1	743	1701.6694983228	1
1	744	1702.106359817284	0
1	746	1712.326784755656	0
1	750	1715.997950898856	0
1	754	1720.655219916318	0
1	756	1726.888250611656	0
1	758	1729.016195236021	0
1	759	1729.330807210075	0
1	761	1749.048600461093	0
1	762	1749.489483002339	0
1	764	1752.132748862071	0
1	765	1754.395019757112	0
1	767	1759.245228234243	0
1	768	1760.642738661806	0
1	770	1766.652817738713	0
1	771	1767.211593462608	0
1	776	1791.508641308481	0
1	778	1792.495144392664	1
1	779	1793.640149740241	1
1	780	1796.987997344499	0
1	782	1817.898189472251	0
1	783	1817.909927285969	0
1	785	1826.477145882993	0
1	787	1827.344850706389	1
1	788	1827.566129174504	1
1	789	1828.255501627162	0
1	791	1853.837409993153	0
1	792	1854.809466426503	0
1	794	1857.090814148443	0
1	795	1857.167470607861	0
1	797	1860.926416289429	0
1	799	1861.02042379607	1
1	800	1861.048296924912	1
1	801	1862.594532242133	0
1	803	1872.028882896978	0
1	804	1875.014452186243	0
1	806	1890.502159406996	0
1	807	1890.568371142592	0
1	809	1891.915466542604	0
1	810	1892.51314379823	0
1	814	1902.333273084399	0
1	816	1903.783787757511	0
1	821	1914.932611185489	0
1	822	1915.796284817097	0
1	827	1933.34543590036	0
1	828	1936.189940868265	0
1	830	1936.761977570621	0
1	831	1937.286457329469	0
1	835	1939.837154808245	0
1	837	1941.860659193917	1
1	839	1943.030970340603	1
1	840	1943.301502944045	0
1	842	1946.932660426483	0
1	846	1953.71770807666	0
1	848	1955.763950846076	0
1	849	1958.100915361217	0
1	853	1963.81192484409	0
1	855	1964.015049432046	1
1	857	1965.817571951894	2
1	859	1972.250437923307	2
1	860	1973.103001763683	1
1	861	1973.461622170967	0
1	863	1983.474982676025	0
1	864	1983.477857128073	0
1	866	1988.09229163647	0
1	868	1988.139357041393	1
1	869	1989.57394840947	1
1	871	1989.722772103698	1
1	872	1990.534047142777	1
1	873	1990.700018876287	0
1	875	2001.049113523423	0
1	876	2001.444595977613	0
1	881	2009.479943844907	0
1	882	2010.344197147667	0
1	884	2012.627160453453	0
1	885	2013.375943196977	0
1	890	2024.792246987819	0
1	891	2024.801295800599	0
1	896	2038.079825725322	0
1	897	2040.250874747955	0
1	899	2041.483293107674	0
1	900	2042.717871255103	0
1	905	2074.234724884822	0
1	906	2074.676755061739	0
1	908	2079.913766419625	0
1	909	2080.549854489768	0
1	913	2082.773976144706	0
1	915	2091.559622406814	0
1	917	2096.88422023765	0
1	918	2098.33065776107	0
1	923	2105.46814991594	0
1	924	2106.444615681402	0
1	929	2110.511587981818	0
1	930	2111.141558853676	0
1	932	2119.477496689677	0
1	933	2119.493444422295	0
1	935	2142.114832448286	0
1	936	2142.428175703481	0
1	938	2150.60704056393	0
1	939	2153.258293235543	0
1	941	2160.793627864118	0
1	942	2162.575591011066	0
1	944	2163.317827793029	0
1	945	2164.491908256019	0
1	949	2185.53289677777	0
1	951	2188.689280034218	0
1	953	2216.055713346613	0
1	954	2221.978716412145	0
1	959	2227.451792981942	0
1	960	2227.524451307378	0
1	962	2233.378033256464	0
1	963	2233.567186710387	0
1	965	2239.341827199759	0
1	966	2239.981386299633	0
1	971	2258.076425998331	0
1	972	2258.223923898621	0
1	980	2296.506491830768	0
1	981	2297.864256373614	0
1	983	2308.528877503233	0
1	985	2309.764143976854	1
1	986	2311.225920479715	1
1	987	2311.439059340357	0
1	989	2313.294345309596	0
1	990	2314.487767839926	0
1	992	2327.862530895238	0
1	993	2328.48673335286	0
1	995	2344.671752940697	0
1	996	2344.740031967282	0
1	998	2349.978977906862	0
1	999	2350.240813956243	0
1	1001	2355.029165384409	0
1	1002	2356.437554248685	0
1	1007	2366.281985552846	0
1	1008	2366.991765367024	0
1	1013	2387.576979513526	0
1	1014	2388.978900103478	0
1	1016	2390.451084274226	0
1	1017	2390.68499597991	0
1	1019	2399.15644253749	0
1	1020	2401.720711156678	0
1	1022	2402.913830961558	0
1	1023	2402.964392151093	0
1	1027	2424.26213546139	0
1	1029	2427.796788016937	0
1	1031	2457.905839991901	0
1	1032	2458.637440880677	0
1	1037	2469.699669328347	0
1	1038	2469.832367881956	0
1	1040	2478.578283432714	0
1	1041	2478.767361793749	0
1	1046	2491.497376120721	0
1	1047	2491.517456521285	0
2	161	356.599406890352	0
2	167	388.101106177111	0
2	173	403.158948763485	0
2	176	404.671257300135	0
2	179	425.074399879554	0
2	185	445.483322038671	0
2	191	483.935540730089	0
2	194	488.06442311329	3.018107581039
2	199	493.896720101036	5.236897715818
2	200	494.327161400748	3.974528943878
2	206	507.130697989759	0.725669962274
2	209	522.545048776411	0
2	212	525.565664009573	1.632026382437
2	215	528.734343372678	0
2	218	536.083987584576	0
2	227	556.765040370839	5.515693046361
2	230	562.60873674158	0
2	233	563.867480835961	0
2	236	576.619757858197	0
2	242	586.834076601689	0
2	245	595.55728855211	0
2	248	597.324239770702	0.219654413592
2	251	604.812931941783	0
2	260	641.098715492806	7.341578771152
2	263	647.970783522591	0
2	266	655.34905644015	0
2	269	656.468518046476	0
2	272	661.824175248755	0
2	275	668.241122269066	0
2	278	671.313925790591	0
2	281	673.375958610896	0
2	287	688.258506868413	0
2	293	703.982943497293	2.371534782641
2	296	707.702232946483	0
2	299	710.869691868936	0.726974015088
2	305	718.54606490997	0
2	308	719.998845182892	0
2	311	720.218932027608	0.030401152705
2	314	724.10623898167	0
2	324	745.024760921013	11.304712548685
2	325	745.403850395418	10.06243712863
2	326	745.557141599775	0.745761561237
2	329	747.325799359286	0
2	332	756.921279132968	0
2	335	761.806849626048	0
2	347	790.585999838825	0
2	350	813.875133580967	0
2	353	825.326523127968	0
2	356	831.303983896152	0
2	359	835.759168846664	0
2	362	845.254114681631	0
2	365	850.999438749043	0
2	371	874.262949365986	0
2	377	887.268368612761	1.044341252204
2	380	887.597489525823	0.327849907514
2	383	888.188322928529	0.297530405556
2	401	923.253174851086	0.360245483567
2	413	936.531133468462	2.649079425434
2	416	944.470395357904	0
2	422	956.729661755456	1.15329194068
2	425	957.450630474955	0
2	428	959.812697535782	0
2	431	964.246737821988	0
2	434	965.627024706273	0
2	440	979.924956257454	0.407504653271
2	443	983.30707124701	0
2	446	992.667686844724	0
2	457	1003.537401737625	6.348694290655
2	458	1003.676696643589	2.556863623578
2	469	1009.959367323735	0.395256368447
2	470	1009.978924278791	0.022981759372
2	473	1015.729185627484	0
2	476	1025.78789567915	0
2	485	1070.332864140911	0
2	497	1102.262330561447	0
2	516	1129.044831907074	25.706150264066
2	517	1129.353460715415	25.305682051222
2	518	1130.445263550499	16.528317773969
2	519	1130.800411248237	14.540450283951
2	520	1131.476845196775	5.136691778288
2	521	1132.354851047079	4.255562174336
2	530	1181.700292375175	0
2	536	1197.338366697675	5.050647171559
2	539	1201.006878062373	0
2	542	1203.927683395045	0
2	548	1214.904928993425	5.626598827547
2	551	1218.040743412993	2.482997437203
2	554	1221.995555991815	0
2	557	1224.798326076605	0
2	560	1234.566966817312	0
2	563	1236.298241378774	0
2	566	1240.423253677999	0
2	569	1241.592807775924	0
2	575	1252.824490791257	0
2	581	1264.911674885925	1.406462123173
2	584	1267.320771196494	0
2	587	1268.807893889015	0
2	590	1283.87424722174	0
2	593	1286.063053186813	0
2	602	1315.934952105333	0
2	605	1320.535091682736	0
2	611	1331.397785491519	0
2	614	1348.601102068685	0
2	617	1349.691135210203	0.953387357209
2	620	1349.84191870565	0.082722037407
2	623	1359.510216009806	0
2	629	1377.70840520265	0
2	632	1388.906548860189	0
2	635	1389.916896613279	0
2	638	1425.652780336723	0
2	641	1463.143094932568	0
2	647	1490.243681494893	6.047373554403
2	650	1491.021925214051	0.502251309603
2	653	1497.64550983778	0
2	668	1535.26478268282	0
2	671	1535.838051947058	0
2	674	1545.122836916072	0
2	677	1547.262121836387	1.274812890961
2	680	1551.122305782482	0
2	683	1564.564758504005	0
2	686	1565.07171966096	0.305059875493
2	689	1565.844829724182	0.678406948132
2	692	1570.99520666472	0
2	695	1574.319309074357	0
2	701	1613.23501030281	0
2	704	1614.515577955922	0
2	707	1618.96977257512	0
2	710	1622.481533468933	0
2	713	1629.037996312569	0
2	716	1630.301882676822	0
2	719	1641.970617942308	0
2	722	1645.797627430926	0
2	725	1667.039999400943	0
2	728	1672.388843158512	0
2	739	1699.236014676456	1.808053687092
2	740	1700.279427089425	2.188492085239
2	743	1701.6694983228	1.134608837796
2	746	1712.326784755656	0
2	749	1715.593035417942	3.164403659842
2	755	1725.447571626178	4.79235170986
2	758	1729.016195236021	0
2	761	1749.048600461093	0
2	764	1752.132748862071	0
2	767	1759.245228234243	0
2	770	1766.652817738713	0
2	776	1791.508641308481	0
2	779	1793.640149740241	1.145005347577
2	782	1817.898189472251	0
2	785	1826.477145882993	0
2	788	1827.566129174504	0.221278468115
2	791	1853.837409993153	0
2	794	1857.090814148443	0
2	797	1860.926416289429	0
2	800	1861.048296924912	0.027873128842
2	803	1872.028882896978	0
2	806	1890.502159406996	0
2	809	1891.915466542604	0
2	815	1903.344801496217	1.011528411818
2	821	1914.932611185489	0
2	827	1933.34543590036	0
2	830	1936.761977570621	0
2	838	1942.553251763331	2.716096955086
2	839	1943.030970340603	1.170311146686
2	842	1946.932660426483	0
2	845	1952.279814042047	5.301250861361
2	848	1955.763950846076	0
2	858	1970.773803033426	6.961878189336
2	859	1972.250437923307	8.235388491261
2	860	1973.103001763683	7.285429811789
2	863	1983.474982676025	0
2	866	1988.09229163647	0
2	869	1989.57394840947	1.434591368077
2	872	1990.534047142777	0.811275039079
2	875	2001.049113523423	0
2	881	2009.479943844907	0
2	884	2012.627160453453	0
2	890	2024.792246987819	0
2	896	2038.079825725322	0
2	899	2041.483293107674	0
2	905	2074.234724884822	0
2	908	2079.913766419625	0
2	914	2089.167821922983	6.393845778277
2	917	2096.88422023765	0
2	923	2105.46814991594	0
2	929	2110.511587981818	0
2	932	2119.477496689677	0
2	935	2142.114832448286	0
2	938	2150.60704056393	0
2	941	2160.793627864118	0
2	944	2163.317827793029	0
2	950	2187.887823686872	2.354926909102
2	953	2216.055713346613	0
2	959	2227.451792981942	0
2	962	2233.378033256464	0
2	965	2239.341827199759	0
2	971	2258.076425998331	0
2	980	2296.506491830768	0
2	983	2308.528877503233	0
2	986	2311.225920479715	1.461776502861
2	989	2313.294345309596	0
2	992	2327.862530895238	0
2	995	2344.671752940697	0
2	998	2349.978977906862	0
2	1001	2355.029165384409	0
2	1007	2366.281985552846	0
2	1013	2387.576979513526	0
2	1016	2390.451084274226	0
2	1019	2399.15644253749	0
2	1022	2402.913830961558	0
2	1028	2426.553642007888	2.291506546498
2	1031	2457.905839991901	0
2	1037	2469.699669328347	0
2	1040	2478.578283432714	0
2	1046	2491.497376120721	0
3	162	357.417414201732	35
3	168	388.664451408453	36
3	174	403.310221681157	37
3	177	407.470235911418	38
3	180	425.295173096439	39
3	186	446.990154787664	40
3	200	494.327161400748	41
3	201	495.585838611923	42
3	207	510.580925077045	43
3	213	526.00118667102	44
3	216	529.110381995093	45
3	219	536.181380823701	46
3	228	557.943743873383	47
3	231	563.338864446715	48
3	234	565.95809775892	49
3	237	578.622388335273	50
3	243	589.084132470903	51
3	248	597.324239770702	52
3	249	597.413119299293	53
3	252	606.582558352405	54
3	261	641.138553371961	55
3	264	648.289681071073	56
3	267	655.535181729108	57
3	270	656.529588664639	58
3	273	663.929078233385	59
3	276	669.3513863	60
3	279	671.417451142747	61
3	282	674.275061692308	62
3	288	688.8051455605	63
3	294	705.09663112506	64
3	299	710.869691868936	65
3	300	711.400359514997	66
3	306	719.307844932525	67
3	311	720.218932027608	68
3	312	721.396188618527	69
3	315	724.448207798143	70
3	325	745.403850395418	71
3	326	745.557141599775	72
3	327	746.717100468096	73
3	330	748.855107517974	74
3	333	758.720822861967	75
3	336	762.338794780503	76
3	348	790.604457416824	77
3	351	813.909902381029	78
3	354	826.713394905325	79
3	357	832.282229777745	80
3	360	840.256479515017	81
3	363	846.334795871643	82
3	366	852.378422510186	83
3	372	874.617477043359	84
3	380	887.597489525823	85
3	383	888.188322928529	86
3	384	889.745544800157	87
3	402	923.504363706618	88
3	414	936.640084881554	89
3	417	944.546590000963	90
3	423	957.32367611644	91
3	426	958.084073032845	92
3	429	962.205158152306	93
3	432	964.347854310678	94
3	435	965.974618357787	95
3	441	982.261824057372	96
3	444	983.646433134927	97
3	447	992.794941376707	98
3	458	1003.676696643589	99
3	459	1004.420714856149	100
3	470	1009.978924278791	101
3	471	1010.066251711514	102
3	474	1016.864987548608	103
3	477	1028.275141073871	104
3	486	1070.570649501109	105
3	517	1129.353460715415	106
3	518	1130.445263550499	107
3	519	1130.800411248237	108
3	520	1131.476845196775	109
3	521	1132.354851047079	110
3	522	1132.409690140803	111
3	531	1182.534800441385	112
3	537	1198.191958740659	113
3	540	1201.958636187591	114
3	543	1204.086360973403	115
3	551	1218.040743412993	116
3	552	1218.930649153663	117
3	555	1222.297984908287	118
3	558	1226.001493743672	119
3	561	1234.829651180891	120
3	564	1236.406199075791	121
3	567	1241.185640530946	122
3	570	1242.127338809308	123
3	576	1255.818986501506	124
3	582	1266.097153624671	125
3	585	1268.000133020185	126
3	588	1269.342635340235	127
3	591	1284.652082317241	128
3	594	1286.114297491696	129
3	603	1317.385188289704	130
3	606	1321.302739177092	131
3	612	1331.444191511298	132
3	617	1349.691135210203	133
3	620	1349.84191870565	134
3	621	1350.565296475606	135
3	624	1361.082375378608	136
3	630	1380.601486281573	137
3	633	1388.936803305236	138
3	636	1390.800127491401	139
3	639	1427.79943466361	140
3	642	1465.480291272686	141
3	650	1491.021925214051	142
3	651	1491.169816014321	143
3	654	1498.239681170665	144
3	669	1535.414764465219	145
3	672	1538.064934833022	146
3	678	1548.455501165191	147
3	681	1551.596452936559	148
3	686	1565.07171966096	149
3	689	1565.844829724182	150
3	690	1566.0255775526	151
3	693	1572.051618678291	152
3	696	1576.94359612449	153
3	702	1613.683269698257	154
3	705	1614.942929625811	155
3	708	1619.816090893673	156
3	711	1623.871081527891	157
3	714	1630.053655765284	158
3	717	1631.596502504319	159
3	720	1642.105653186055	160
3	723	1647.945828369223	161
3	726	1668.211842566861	162
3	729	1673.36613788184	163
3	740	1700.279427089425	164
3	743	1701.6694983228	165
3	744	1702.106359817284	166
3	750	1715.997950898856	167
3	756	1726.888250611656	168
3	759	1729.330807210075	169
3	762	1749.489483002339	170
3	765	1754.395019757112	171
3	768	1760.642738661806	172
3	771	1767.211593462608	173
3	779	1793.640149740241	174
3	780	1796.987997344499	175
3	783	1817.909927285969	176
3	788	1827.566129174504	177
3	789	1828.255501627162	178
3	792	1854.809466426503	179
3	795	1857.167470607861	180
3	800	1861.048296924912	181
3	801	1862.594532242133	182
3	804	1875.014452186243	183
3	807	1890.568371142592	184
3	810	1892.51314379823	185
3	816	1903.783787757511	186
3	822	1915.796284817097	187
3	828	1936.189940868265	188
3	831	1937.286457329469	189
3	839	1943.030970340603	190
3	840	1943.301502944045	191
3	846	1953.71770807666	192
3	849	1958.100915361217	193
3	859	1972.250437923307	194
3	860	1973.103001763683	195
3	861	1973.461622170967	196
3	864	1983.477857128073	197
3	869	1989.57394840947	198
3	872	1990.534047142777	199
3	873	1990.700018876287	200
3	876	2001.444595977613	201
3	882	2010.344197147667	202
3	885	2013.375943196977	203
3	891	2024.801295800599	204
3	897	2040.250874747955	205
3	900	2042.717871255103	206
3	906	2074.676755061739	207
3	909	2080.549854489768	208
3	915	2091.559622406814	209
3	918	2098.33065776107	210
3	924	2106.444615681402	211
3	930	2111.141558853676	212
3	933	2119.493444422295	213
3	936	2142.428175703481	214
3	939	2153.258293235543	215
3	942	2162.575591011066	216
3	945	2164.491908256019	217
3	951	2188.689280034218	218
3	954	2221.978716412145	219
3	960	2227.524451307378	220
3	963	2233.567186710387	221
3	966	2239.981386299633	222
3	972	2258.223923898621	223
3	981	2297.864256373614	224
3	986	2311.225920479715	225
3	987	2311.439059340357	226
3	990	2314.487767839926	227
3	993	2328.48673335286	228
3	996	2344.740031967282	229
3	999	2350.240813956243	230
3	1002	2356.437554248685	231
3	1008	2366.991765367024	232
3	1014	2388.978900103478	233
3	1017	2390.68499597991	234
3	1020	2401.720711156678	235
3	1023	2402.964392151093	236
3	1029	2427.796788016937	237
3	1032	2458.637440880677	238
3	1038	2469.832367881956	239
3	1041	2478.767361793749	240
3	1047	2491.517456521285	241
4	162	357.417414201732	0.81800731138
4	168	388.664451408453	0.563345231342
4	174	403.310221681157	0.151272917672
4	177	407.470235911418	2.798978611283
4	180	425.295173096439	0.220773216885
4	186	446.990154787664	1.506832748993
4	200	494.327161400748	5.66733901553
4	201	495.585838611923	5.233206155053
4	207	510.580925077045	4.17589704956
4	213	526.00118667102	2.067549043884
4	216	529.110381995093	0.376038622415
4	219	536.181380823701	0.097393239125
4	228	557.943743873383	6.694396548905
4	231	563.338864446715	0.730127705135
4	234	565.95809775892	2.090616922959
4	237	578.622388335273	2.002630477076
4	243	589.084132470903	2.250055869214
4	248	597.324239770702	1.766951218592
4	249	597.413119299293	0.308533942183
4	252	606.582558352405	1.769626410622
4	261	641.138553371961	7.381416650307
4	264	648.289681071073	0.318897548482
4	267	655.535181729108	0.186125288958
4	270	656.529588664639	0.061070618163
4	273	663.929078233385	2.10490298463
4	276	669.3513863	1.110264030934
4	279	671.417451142747	0.103525352156
4	282	674.275061692308	0.899103081412
4	288	688.8051455605	0.546638692087
4	294	705.09663112506	3.485222410408
4	299	710.869691868936	3.167458922453
4	300	711.400359514997	1.257641661149
4	306	719.307844932525	0.761780022555
4	311	720.218932027608	0.220086844716
4	312	721.396188618527	1.207657743624
4	315	724.448207798143	0.341968816473
4	325	745.403850395418	11.68380202309
4	326	745.557141599775	10.215728332987
4	327	746.717100468096	1.905720429558
4	330	748.855107517974	1.529308158688
4	333	758.720822861967	1.799543728999
4	336	762.338794780503	0.531945154455
4	348	790.604457416824	0.018457577999
4	351	813.909902381029	0.034768800062
4	354	826.713394905325	1.386871777357
4	357	832.282229777745	0.978245881593
4	360	840.256479515017	4.497310668353
4	363	846.334795871643	1.080681190012
4	366	852.378422510186	1.378983761143
4	372	874.617477043359	0.354527677373
4	380	887.597489525823	1.373462165266
4	383	888.188322928529	0.91868331022
4	384	889.745544800157	1.854752277184
4	402	923.504363706618	0.611434339099
4	414	936.640084881554	2.758030838526
4	417	944.546590000963	0.076194643059
4	423	957.32367611644	1.747306301664
4	426	958.084073032845	0.63344255789
4	429	962.205158152306	2.392460616524
4	432	964.347854310678	0.10111648869
4	435	965.974618357787	0.347593651514
4	441	982.261824057372	2.744372453189
4	444	983.646433134927	0.339361887917
4	447	992.794941376707	0.127254531983
4	458	1003.676696643589	6.487989196619
4	459	1004.420714856149	3.300881836138
4	470	1009.978924278791	0.414813323503
4	471	1010.066251711514	0.110309192095
4	474	1016.864987548608	1.135801921124
4	477	1028.275141073871	2.487245394721
4	486	1070.570649501109	0.237785360198
4	517	1129.353460715415	26.014779072407
4	518	1130.445263550499	26.397484886306
4	519	1130.800411248237	16.883465471707
4	520	1131.476845196775	15.216884232489
4	521	1132.354851047079	6.014697628592
4	522	1132.409690140803	4.31040126806
4	531	1182.534800441385	0.83450806621
4	537	1198.191958740659	5.904239214543
4	540	1201.958636187591	0.951758125218
4	543	1204.086360973403	0.158677578358
4	551	1218.040743412993	8.762413247115
4	552	1218.930649153663	3.372903177873
4	555	1222.297984908287	0.302428916472
4	558	1226.001493743672	1.203167667067
4	561	1234.829651180891	0.262684363579
4	564	1236.406199075791	0.107957697017
4	567	1241.185640530946	0.762386852947
4	570	1242.127338809308	0.534531033384
4	576	1255.818986501506	2.994495710249
4	582	1266.097153624671	2.591940861919
4	585	1268.000133020185	0.679361823691
4	588	1269.342635340235	0.53474145122
4	591	1284.652082317241	0.777835095501
4	594	1286.114297491696	0.051244304883
4	603	1317.385188289704	1.450236184371
4	606	1321.302739177092	0.767647494356
4	612	1331.444191511298	0.046406019779
4	617	1349.691135210203	1.090033141518
4	620	1349.84191870565	1.104170852656
4	621	1350.565296475606	0.806099807363
4	624	1361.082375378608	1.572159368802
4	630	1380.601486281573	2.893081078923
4	633	1388.936803305236	0.030254445047
4	636	1390.800127491401	0.883230878122
4	639	1427.79943466361	2.146654326887
4	642	1465.480291272686	2.337196340118
4	650	1491.021925214051	6.825617273561
4	651	1491.169816014321	0.650142109873
4	654	1498.239681170665	0.594171332885
4	669	1535.414764465219	0.149981782399
4	672	1538.064934833022	2.226882885964
4	678	1548.455501165191	2.468192219765
4	681	1551.596452936559	0.474147154077
4	686	1565.07171966096	0.506961156955
4	689	1565.844829724182	1.078169938715
4	690	1566.0255775526	0.85915477655
4	693	1572.051618678291	1.056412013571
4	696	1576.94359612449	2.624287050133
4	702	1613.683269698257	0.448259395447
4	705	1614.942929625811	0.427351669889
4	708	1619.816090893673	0.846318318553
4	711	1623.871081527891	1.389548058958
4	714	1630.053655765284	1.015659452715
4	717	1631.596502504319	1.294619827497
4	720	1642.105653186055	0.135035243747
4	723	1647.945828369223	2.148200938297
4	726	1668.211842566861	1.171843165918
4	729	1673.36613788184	0.977294723328
4	740	1700.279427089425	2.851466100061
4	743	1701.6694983228	3.578563318614
4	744	1702.106359817284	1.57147033228
4	750	1715.997950898856	3.569319140756
4	756	1726.888250611656	6.233030695338
4	759	1729.330807210075	0.314611974054
4	762	1749.489483002339	0.440882541246
4	765	1754.395019757112	2.262270895041
4	768	1760.642738661806	1.397510427563
4	771	1767.211593462608	0.558775723895
4	779	1793.640149740241	2.13150843176
4	780	1796.987997344499	4.492852951835
4	783	1817.909927285969	0.011737813718
4	788	1827.566129174504	1.088983291511
4	789	1828.255501627162	0.910650920773
4	792	1854.809466426503	0.97205643335
4	795	1857.167470607861	0.076656459418
4	800	1861.048296924912	0.121880635483
4	801	1862.594532242133	1.574108446063
4	804	1875.014452186243	2.985569289265
4	807	1890.568371142592	0.066211735596
4	810	1892.51314379823	0.597677255626
4	816	1903.783787757511	1.450514673112
4	822	1915.796284817097	0.863673631608
4	828	1936.189940868265	2.844504967905
4	831	1937.286457329469	0.524479758848
4	839	1943.030970340603	3.193815532358
4	840	1943.301502944045	1.440843750128
4	846	1953.71770807666	6.739144895974
4	849	1958.100915361217	2.336964515141
4	859	1972.250437923307	8.438513079217
4	860	1973.103001763683	9.087952331637
4	861	1973.461622170967	7.644050219073
4	864	1983.477857128073	0.002874452048
4	869	1989.57394840947	1.481656773
4	872	1990.534047142777	2.394690101384
4	873	1990.700018876287	0.977246772589
4	876	2001.444595977613	0.39548245419
4	882	2010.344197147667	0.86425330276
4	885	2013.375943196977	0.748782743524
4	891	2024.801295800599	0.00904881278
4	897	2040.250874747955	2.171049022633
4	900	2042.717871255103	1.234578147429
4	906	2074.676755061739	0.442030176917
4	909	2080.549854489768	0.636088070143
4	915	2091.559622406814	8.785646262108
4	918	2098.33065776107	1.44643752342
4	924	2106.444615681402	0.976465765462
4	930	2111.141558853676	0.629970871858
4	933	2119.493444422295	0.015947732618
4	936	2142.428175703481	0.313343255195
4	939	2153.258293235543	2.651252671613
4	942	2162.575591011066	1.781963146948
4	945	2164.491908256019	1.17408046299
4	951	2188.689280034218	3.156383256448
4	954	2221.978716412145	5.923003065532
4	960	2227.524451307378	0.072658325436
4	963	2233.567186710387	0.189153453923
4	966	2239.981386299633	0.639559099874
4	972	2258.223923898621	0.14749790029
4	981	2297.864256373614	1.357764542846
4	986	2311.225920479715	2.697042976482
4	987	2311.439059340357	1.674915363503
4	990	2314.487767839926	1.19342253033
4	993	2328.48673335286	0.624202457622
4	996	2344.740031967282	0.068279026585
4	999	2350.240813956243	0.261836049381
4	1002	2356.437554248685	1.408388864276
4	1008	2366.991765367024	0.709779814178
4	1014	2388.978900103478	1.401920589952
4	1017	2390.68499597991	0.233911705684
4	1020	2401.720711156678	2.564268619188
4	1023	2402.964392151093	0.050561189535
4	1029	2427.796788016937	3.534652555547
4	1032	2458.637440880677	0.731600888776
4	1038	2469.832367881956	0.132698553609
4	1041	2478.767361793749	0.189078361035
4	1047	2491.517456521285	0.020080400564
5	164	370.603771219516	1
5	170	394.868077673049	1
5	182	437.49295502607	1
5	188	456.322927738819	1
5	193	485.046315532251	1
5	196	488.659822385218	1
5	203	505.916663594185	1
5	211	523.933637627136	1
5	221	546.029043387715	1
5	224	551.126046311744	1
5	239	582.928254164919	1
5	254	621.395186484024	1
5	257	628.872124735185	1
5	284	676.971610514442	1
5	290	696.724481249524	1
5	302	713.766650832127	1
5	317	726.843653962809	1
5	338	773.705038630802	1
5	341	778.574548514208	1
5	343	780.649456651858	2
5	368	868.008938660007	1
5	374	885.60130839013	1
5	386	894.411920989781	1
5	388	896.099801431139	2
5	392	904.587130001746	1
5	395	918.557884405028	1
5	398	921.64580768241	1
5	404	924.183642524682	1
5	407	929.197625094939	1
5	410	932.597699685602	1
5	419	949.642485626088	1
5	437	972.347158792077	1
5	449	993.201401715008	1
5	453	999.606374551222	2
5	461	1005.876797296833	1
5	464	1008.704494209079	1
5	479	1045.175171811606	1
5	481	1051.396522024245	2
5	488	1072.924313611612	1
5	491	1083.687206075135	1
5	493	1088.27996853132	2
5	501	1104.047778664193	1
5	505	1115.498523488581	2
5	509	1121.131647552772	3
5	524	1136.941115658641	1
5	527	1162.510657702905	1
5	533	1189.062810513555	1
5	545	1205.558997629982	1
5	572	1244.945750650241	1
5	578	1262.537646821182	1
5	596	1289.734040194923	1
5	599	1301.964421116412	1
5	608	1325.699604037716	1
5	626	1365.152621999303	1
5	644	1482.508113685987	1
5	656	1504.19587686062	1
5	658	1507.37707904525	2
5	661	1511.80441830576	2
5	664	1515.825214798535	2
5	676	1545.987308945426	1
5	698	1593.798401005372	1
5	731	1677.28996495809	1
5	734	1695.099534041843	1
5	748	1712.4286317581	1
5	752	1718.552815948064	1
5	773	1773.625848570111	1
5	812	1898.641581290292	1
5	818	1909.090665580181	1
5	824	1918.559935932189	1
5	833	1939.493697544728	1
5	844	1946.978563180686	1
5	851	1960.924134022694	1
5	878	2002.33413389894	1
5	887	2016.684804875417	1
5	893	2027.596139460602	1
5	902	2065.061357545698	1
5	911	2080.831751670568	1
5	920	2100.007202237812	1
5	926	2108.018300581576	1
5	947	2184.856442199698	1
5	956	2224.868444655778	1
5	968	2244.51142103081	1
5	974	2286.580247510418	1
5	976	2288.721779842195	2
5	1004	2362.678079464971	1
5	1010	2374.084242636429	1
5	1025	2417.35809212268	1
5	1034	2464.928245471707	1
5	1043	2483.0255774281	1
5	1049	2496.059055200273	1
6	164	370.603771219516	0
6	165	376.53809870059	0
6	170	394.868077673049	0
6	171	395.019735671748	0
6	182	437.49295502607	0
6	183	438.278389149801	0
6	188	456.322927738819	0
6	189	459.374622066794	0
6	193	485.046315532251	0
6	194	488.06442311329	0
6	196	488.659822385218	0
6	199	493.896720101036	0
6	203	505.916663594185	0
6	206	507.130697989759	0
6	211	523.933637627136	0
6	212	525.565664009573	0
6	221	546.029043387715	0
6	222	548.213087587825	0
6	224	551.126046311744	0
6	227	556.765040370839	0
6	239	582.928254164919	0
6	240	586.320886308839	0
6	254	621.395186484024	0
6	255	625.86371025374	0
6	257	628.872124735185	0
6	260	641.098715492806	0
6	284	676.971610514442	0
6	285	677.092981166625	0
6	290	696.724481249524	0
6	293	703.982943497293	0
6	302	713.766650832127	0
6	303	717.858548760174	0
6	317	726.843653962809	0
6	324	745.024760921013	0
6	338	773.705038630802	0
6	339	775.205515597513	0
6	341	778.574548514208	0
6	343	780.649456651858	1
6	344	781.148387453085	1
6	345	783.829969611024	0
6	368	868.008938660007	0
6	369	872.032371820831	0
6	374	885.60130839013	0
6	377	887.268368612761	0
6	386	894.411920989781	0
6	388	896.099801431139	1
6	389	896.240936435102	1
6	390	902.147720843212	0
6	392	904.587130001746	0
6	393	909.004069724291	0
6	395	918.557884405028	0
6	396	921.461029618025	0
6	398	921.64580768241	0
6	401	923.253174851086	0
6	404	924.183642524682	0
6	405	925.036799734862	0
6	407	929.197625094939	0
6	408	932.228875324194	0
6	410	932.597699685602	0
6	413	936.531133468462	0
6	419	949.642485626088	0
6	422	956.729661755456	0
6	437	972.347158792077	0
6	440	979.924956257454	0
6	449	993.201401715008	0
6	453	999.606374551222	1
6	456	1001.708365355139	1
6	457	1003.537401737625	0
6	461	1005.876797296833	0
6	462	1007.366033726574	0
6	464	1008.704494209079	0
6	469	1009.959367323735	0
6	479	1045.175171811606	0
6	481	1051.396522024245	1
6	482	1056.352847313282	1
6	483	1058.807727473469	0
6	488	1072.924313611612	0
6	489	1079.261042973006	0
6	491	1083.687206075135	0
6	493	1088.27996853132	1
6	494	1097.461630139301	1
6	495	1097.565779873645	0
6	501	1104.047778664193	0
6	505	1115.498523488581	1
6	509	1121.131647552772	2
6	510	1122.695333483261	2
6	511	1123.465271371296	1
6	516	1129.044831907074	0
6	524	1136.941115658641	0
6	525	1138.908597092527	0
6	527	1162.510657702905	0
6	528	1174.167335092707	0
6	533	1189.062810513555	0
6	536	1197.338366697675	0
6	545	1205.558997629982	0
6	548	1214.904928993425	0
6	572	1244.945750650241	0
6	573	1247.491477132901	0
6	578	1262.537646821182	0
6	581	1264.911674885925	0
6	596	1289.734040194923	0
6	597	1292.498372362177	0
6	599	1301.964421116412	0
6	600	1302.448170757711	0
6	608	1325.699604037716	0
6	609	1328.369381750511	0
6	626	1365.152621999303	0
6	627	1370.450698727368	0
6	644	1482.508113685987	0
6	647	1490.243681494893	0
6	656	1504.19587686062	0
6	658	1507.37707904525	1
6	659	1508.27630285533	1
6	661	1511.80441830576	1
6	662	1514.527534130802	1
6	664	1515.825214798535	1
6	665	1516.771209324605	1
6	666	1516.888154177066	0
6	676	1545.987308945426	0
6	677	1547.262121836387	0
6	698	1593.798401005372	0
6	699	1595.695686700952	0
6	731	1677.28996495809	0
6	732	1679.898723078935	0
6	734	1695.099534041843	0
6	739	1699.236014676456	0
6	748	1712.4286317581	0
6	749	1715.593035417942	0
6	752	1718.552815948064	0
6	755	1725.447571626178	0
6	773	1773.625848570111	0
6	774	1775.194169281846	0
6	812	1898.641581290292	0
6	815	1903.344801496217	0
6	818	1909.090665580181	0
6	819	1910.815758256127	0
6	824	1918.559935932189	0
6	825	1919.696663573977	0
6	833	1939.493697544728	0
6	838	1942.553251763331	0
6	844	1946.978563180686	0
6	845	1952.279814042047	0
6	851	1960.924134022694	0
6	858	1970.773803033426	0
6	878	2002.33413389894	0
6	879	2007.767843000421	0
6	887	2016.684804875417	0
6	888	2021.097306702893	0
6	893	2027.596139460602	0
6	894	2037.83864727473	0
6	902	2065.061357545698	0
6	903	2066.72815799165	0
6	911	2080.831751670568	0
6	914	2089.167821922983	0
6	920	2100.007202237812	0
6	921	2101.635697187161	0
6	926	2108.018300581576	0
6	927	2110.361321451423	0
6	947	2184.856442199698	0
6	950	2187.887823686872	0
6	956	2224.868444655778	0
6	957	2225.259334175829	0
6	968	2244.51142103081	0
6	969	2245.661068274069	0
6	974	2286.580247510418	0
6	976	2288.721779842195	1
6	977	2293.727895718621	1
6	978	2294.852237873274	0
6	1004	2362.678079464971	0
6	1005	2363.007548937191	0
6	1010	2374.084242636429	0
6	1011	2377.692336560482	0
6	1025	2417.35809212268	0
6	1028	2426.553642007888	0
6	1034	2464.928245471707	0
6	1035	2465.384598741817	0
6	1043	2483.0255774281	0
6	1044	2488.924153609839	0
6	1049	2496.059055200273	0
6	1050	2499.363283228894	0
7	164	370.603771219516	0
7	170	394.868077673049	0
7	182	437.49295502607	0
7	188	456.322927738819	0
7	193	485.046315532251	0
7	196	488.659822385218	0
7	203	505.916663594185	0
7	211	523.933637627136	0
7	221	546.029043387715	0
7	224	551.126046311744	0
7	239	582.928254164919	0
7	254	621.395186484024	0
7	257	628.872124735185	0
7	284	676.971610514442	0
7	290	696.724481249524	0
7	302	713.766650832127	0
7	317	726.843653962809	0
7	338	773.705038630802	0
7	341	778.574548514208	0
7	344	781.148387453085	0.498930801227
7	368	868.008938660007	0
7	374	885.60130839013	0
7	386	894.411920989781	0
7	389	896.240936435102	0.141135003963
7	392	904.587130001746	0
7	395	918.557884405028	0
7	398	921.64580768241	0
7	404	924.183642524682	0
7	407	929.197625094939	0
7	410	932.597699685602	0
7	419	949.642485626088	0
7	437	972.347158792077	0
7	449	993.201401715008	0
7	456	1001.708365355139	2.101990803917
7	461	1005.876797296833	0
7	464	1008.704494209079	0
7	479	1045.175171811606	0
7	482	1056.352847313282	4.956325289037
7	488	1072.924313611612	0
7	491	1083.687206075135	0
7	494	1097.461630139301	9.181661607981
7	501	1104.047778664193	0
7	510	1122.695333483261	7.19680999468
7	511	1123.465271371296	2.333623818524
7	524	1136.941115658641	0
7	527	1162.510657702905	0
7	533	1189.062810513555	0
7	545	1205.558997629982	0
7	572	1244.945750650241	0
7	578	1262.537646821182	0
7	596	1289.734040194923	0
7	599	1301.964421116412	0
7	608	1325.699604037716	0
7	626	1365.152621999303	0
7	644	1482.508113685987	0
7	656	1504.19587686062	0
7	659	1508.27630285533	0.89922381008
7	662	1514.527534130802	2.723115825042
7	665	1516.771209324605	0.94599452607
7	676	1545.987308945426	0
7	698	1593.798401005372	0
7	731	1677.28996495809	0
7	734	1695.099534041843	0
7	748	1712.4286317581	0
7	752	1718.552815948064	0
7	773	1773.625848570111	0
7	812	1898.641581290292	0
7	818	1909.090665580181	0
7	824	1918.559935932189	0
7	833	1939.493697544728	0
7	844	1946.978563180686	0
7	851	1960.924134022694	0
7	878	2002.33413389894	0
7	887	2016.684804875417	0
7	893	2027.596139460602	0
7	902	2065.061357545698	0
7	911	2080.831751670568	0
7	920	2100.007202237812	0
7	926	2108.018300581576	0
7	947	2184.856442199698	0
7	956	2224.868444655778	0
7	968	2244.51142103081	0
7	974	2286.580247510418	0
7	977	2293.727895718621	5.006115876426
7	1004	2362.678079464971	0
7	1010	2374.084242636429	0
7	1025	2417.35809212268	0
7	1034	2464.928245471707	0
7	1043	2483.0255774281	0
7	1049	2496.059055200273	0
8	165	376.53809870059	20
8	171	395.019735671748	21
8	183	438.278389149801	22
8	189	459.374622066794	23
8	194	488.06442311329	24
8	199	493.896720101036	25
8	206	507.130697989759	26
8	212	525.565664009573	27
8	222	548.213087587825	28
8	227	556.765040370839	29
8	240	586.320886308839	30
8	255	625.86371025374	31
8	260	641.098715492806	32
8	285	677.092981166625	33
8	293	703.982943497293	34
8	303	717.858548760174	35
8	324	745.024760921013	36
8	339	775.205515597513	37
8	344	781.148387453085	38
8	345	783.829969611024	39
8	369	872.032371820831	40
8	377	887.268368612761	41
8	389	896.240936435102	42
8	390	902.147720843212	43
8	393	909.004069724291	44
8	396	921.461029618025	45
8	401	923.253174851086	46
8	405	925.036799734862	47
8	408	932.228875324194	48
8	413	936.531133468462	49
8	422	956.729661755456	50
8	440	979.924956257454	51
8	456	1001.708365355139	52
8	457	1003.537401737625	53
8	462	1007.366033726574	54
8	469	1009.959367323735	55
8	482	1056.352847313282	56
8	483	1058.807727473469	57
8	489	1079.261042973006	58
8	494	1097.461630139301	59
8	495	1097.565779873645	60
8	510	1122.695333483261	61
8	511	1123.465271371296	62
8	516	1129.044831907074	63
8	525	1138.908597092527	64
8	528	1174.167335092707	65
8	536	1197.338366697675	66
8	548	1214.904928993425	67
8	573	1247.491477132901	68
8	581	1264.911674885925	69
8	597	1292.498372362177	70
8	600	1302.448170757711	71
8	609	1328.369381750511	72
8	627	1370.450698727368	73
8	647	1490.243681494893	74
8	659	1508.27630285533	75
8	662	1514.527534130802	76
8	665	1516.771209324605	77
8	666	1516.888154177066	78
8	677	1547.262121836387	79
8	699	1595.695686700952	80
8	732	1679.898723078935	81
8	739	1699.236014676456	82
8	749	1715.593035417942	83
8	755	1725.447571626178	84
8	774	1775.194169281846	85
8	815	1903.344801496217	86
8	819	1910.815758256127	87
8	825	1919.696663573977	88
8	838	1942.553251763331	89
8	845	1952.279814042047	90
8	858	1970.773803033426	91
8	879	2007.767843000421	92
8	888	2021.097306702893	93
8	894	2037.83864727473	94
8	903	2066.72815799165	95
8	914	2089.167821922983	96
8	921	2101.635697187161	97
8	927	2110.361321451423	98
8	950	2187.887823686872	99
8	957	2225.259334175829	100
8	969	2245.661068274069	101
8	977	2293.727895718621	102
8	978	2294.852237873274	103
8	1005	2363.007548937191	104
8	1011	2377.692336560482	105
8	1028	2426.553642007888	106
8	1035	2465.384598741817	107
8	1044	2488.924153609839	108
8	1050	2499.363283228894	109
9	165	376.53809870059	5.934327481074
9	171	395.019735671748	0.151657998699
9	183	438.278389149801	0.785434123731
9	189	459.374622066794	3.051694327975
9	194	488.06442311329	3.018107581039
9	199	493.896720101036	5.236897715818
9	206	507.130697989759	1.214034395574
9	212	525.565664009573	1.632026382437
9	222	548.213087587825	2.18404420011
9	227	556.765040370839	5.638994059095
9	240	586.320886308839	3.39263214392
9	255	625.86371025374	4.468523769716
9	260	641.098715492806	12.226590757621
9	285	677.092981166625	0.121370652183
9	293	703.982943497293	7.258462247769
9	303	717.858548760174	4.091897928047
9	324	745.024760921013	18.181106958204
9	339	775.205515597513	1.500476966711
9	344	781.148387453085	2.573838938877
9	345	783.829969611024	3.180512959166
9	369	872.032371820831	4.023433160824
9	377	887.268368612761	1.667060222631
9	389	896.240936435102	1.829015445321
9	390	902.147720843212	6.047919412073
9	393	909.004069724291	4.416939722545
9	396	921.461029618025	2.903145212997
9	401	923.253174851086	1.607367168676
9	405	925.036799734862	0.85315721018
9	408	932.228875324194	3.031250229255
9	413	936.531133468462	3.93343378286
9	422	956.729661755456	7.087176129368
9	440	979.924956257454	7.577797465377
9	456	1001.708365355139	8.506963640131
9	457	1003.537401737625	3.931027186403
9	462	1007.366033726574	1.489236429741
9	469	1009.959367323735	1.254873114656
9	482	1056.352847313282	11.177675501676
9	483	1058.807727473469	7.411205449224
9	489	1079.261042973006	6.336729361394
9	494	1097.461630139301	13.774424064166
9	495	1097.565779873645	9.285811342325
9	510	1122.695333483261	18.647554819068
9	511	1123.465271371296	7.966747882715
9	516	1129.044831907074	7.913184354302
9	525	1138.908597092527	1.967481433886
9	528	1174.167335092707	11.656677389802
9	536	1197.338366697675	8.27555618412
9	548	1214.904928993425	9.345931363443
9	573	1247.491477132901	2.54572648266
9	581	1264.911674885925	2.374028064743
9	597	1292.498372362177	2.764332167254
9	600	1302.448170757711	0.483749641299
9	609	1328.369381750511	2.669777712795
9	627	1370.450698727368	5.298076728065
9	647	1490.243681494893	7.735567808906
9	659	1508.27630285533	4.08042599471
9	662	1514.527534130802	7.150455085552
9	665	1516.771209324605	4.966791018845
9	666	1516.888154177066	1.062939378531
9	677	1547.262121836387	1.274812890961
9	699	1595.695686700952	1.89728569558
9	732	1679.898723078935	2.608758120845
9	739	1699.236014676456	4.136480634613
9	749	1715.593035417942	3.164403659842
9	755	1725.447571626178	6.894755678114
9	774	1775.194169281846	1.568320711735
9	815	1903.344801496217	4.703220205925
9	819	1910.815758256127	1.725092675946
9	825	1919.696663573977	1.136727641788
9	838	1942.553251763331	3.059554218603
9	845	1952.279814042047	5.301250861361
9	858	1970.773803033426	9.849669010732
9	879	2007.767843000421	5.433709101481
9	888	2021.097306702893	4.412501827476
9	894	2037.83864727473	10.242507814128
9	903	2066.72815799165	1.666800445952
9	914	2089.167821922983	8.336070252415
9	921	2101.635697187161	1.628494949349
9	927	2110.361321451423	2.343020869847
9	950	2187.887823686872	3.031381487174
9	957	2225.259334175829	0.390889520051
9	969	2245.661068274069	1.149647243259
9	977	2293.727895718621	7.147648208203
9	978	2294.852237873274	6.130458031079
9	1005	2363.007548937191	0.32946947222
9	1011	2377.692336560482	3.608093924053
9	1028	2426.553642007888	9.195549885208
9	1035	2465.384598741817	0.45635327011
9	1044	2488.924153609839	5.898576181739
9	1050	2499.363283228894	3.304228028621
10	193	485.046315532251	4
10	196	488.659822385218	5
10	211	523.933637627136	6
10	501	1104.047778664193	7
10	676	1545.987308945426	8
10	748	1712.4286317581	9
10	844	1946.978563180686	10
11	1051	2500	0.0964
12	1051	2500	0.0436

