version 2
run factors_calibration_range_test-147-20230302-19:09:25-12441
attr configname factors_calibration_range_test
attr datetime 20230302-19:09:25
attr experiment factors_calibration_range_test
attr inifile omnetpp.ini
attr iterationvars "$0=15, $1=3"
attr iterationvarsf 15,3-
attr measurement "$0=15, $1=3"
attr network Network
attr processid 12441
attr repetition 7
attr replication #7
attr resultdir results
attr runnumber 147
attr seedset 7
param *.boss.arrival_mean 20
param *.boss.service_mean 15
param *.minion.arrival_mean 5
param *.minion.service_mean 3
param **.minion.arrival_distribution 0
param **.minion.service_distribution 0
param **.boss.arrival_distribution 0
param **.boss.service_distribution 0

scalar Network.player boss_throughput:mean 0.0488
attr source signal_boss_throughput
scalar Network.player boss_throughput:last 0.0488
attr source signal_boss_throughput
scalar Network.player boss_defeated_stat:count 110
attr source signal_boss_defeated
scalar Network.player boss_defeated_stat:mean 67.5
attr source signal_boss_defeated
scalar Network.player boss_waiting_time_stat:mean 16.51302836447
attr source signal_boss_waiting_time
scalar Network.player boss_response_time_stat:mean 29.450257970906
attr source signal_boss_response_time
scalar Network.player minion_throughput:mean 0.1052
attr source signal_minion_throughput
scalar Network.player minion_throughput:last 0.1052
attr source signal_minion_throughput
scalar Network.player minion_recovered_stat:count 35
attr source signal_minion_recovered
scalar Network.player minion_recovered_stat:mean 20
attr source signal_minion_recovered
scalar Network.player minion_defeated_stat:count 218
attr source signal_minion_defeated
scalar Network.player minion_defeated_stat:mean 154.5
attr source signal_minion_defeated
scalar Network.player minion_waiting_time_stat:mean 555.0301914786
attr source signal_minion_waiting_time
scalar Network.player minion_response_time_stat:mean 555.84062709441
attr source signal_minion_response_time

