file 99866 1677780556                                           
version 2
run factors_calibration_range_test-60-20230302-19:09:16-11995
attr configname factors_calibration_range_test
attr datetime 20230302-19:09:16
attr experiment factors_calibration_range_test
attr inifile omnetpp.ini
attr iterationvars "$0=10, $1=1"
attr iterationvarsf 10,1-
attr measurement "$0=10, $1=1"
attr network Network
attr processid 11995
attr repetition 0
attr replication #0
attr resultdir results
attr runnumber 60
attr seedset 0
param *.boss.arrival_mean 20
param *.boss.service_mean 10
param *.minion.arrival_mean 5
param *.minion.service_mean 1
param **.minion.arrival_distribution 0
param **.minion.service_distribution 0
param **.boss.arrival_distribution 0
param **.boss.service_distribution 0

vector 0 Network.player minion_jobs_number_stat:vector ETV
attr source signal_minion_jobs_number
vector 1 Network.player minion_jobs_queue_number_stat:vector ETV
attr source signal_minion_jobs_queue_number
vector 2 Network.player boss_defeated_stat:vector ETV
attr source signal_boss_defeated
vector 3 Network.player boss_jobs_queue_number_stat:vector ETV
attr source signal_boss_jobs_queue_number
vector 4 Network.player boss_response_time_stat:vector ETV
attr source signal_boss_response_time
vector 5 Network.player minion_waiting_time_stat:vector ETV
attr source signal_minion_waiting_time
vector 6 Network.player minion_defeated_stat:vector ETV
attr source signal_minion_defeated
vector 7 Network.player minion_response_time_stat:vector ETV
attr source signal_minion_response_time
vector 8 Network.player boss_jobs_number_stat:vector ETV
attr source signal_boss_jobs_number
vector 9 Network.player boss_waiting_time_stat:vector ETV
attr source signal_boss_waiting_time
vector 10 Network.player minion_recovered_stat:vector ETV
attr source signal_minion_recovered
vector 11 Network.player minion_throughput:vector ETV
attr source signal_minion_throughput
vector 12 Network.player boss_throughput:vector ETV
attr source signal_boss_throughput
0	1966 11303 256 1855 350.805704357327 2493.91951573098 430 1 50 2722 64748
1	13269 22657 256 1860 350.805704357327 2496.274307732237 860 0 49 4584 119468
2	35926 2879 257 1853 351.56523226832 2492.783118720262 106 22 127 7897 687569
3	38805 5461 257 1853 351.56523226832 2492.783118720262 211 0 4 154 330
4	44266 4158 257 1853 351.56523226832 2492.783118720262 106 0.242741304366 57.892741799604 1445.2798746197 36329.383420156
5	48424 15698 257 1859 351.56523226832 2496.218890922025 450 0 212.02548153019 10461.908801132 1133627.2694219
6	64122 12114 258 1860 352.678919896087 2496.274307732237 430 64 493 119755 39977315
7	76236 16995 258 1860 352.678919896087 2496.274307732237 430 0.012635474433 213.32010135769 10081.544493419 1053538.0049187
8	93231 2716 278 1845 365.058342191057 2480.218280446483 105 1 5 182 424
9	95947 3323 278 1848 365.058342191057 2484.278232401928 105 0 48.732145940093 524.10430701522 13303.8684578
10	99270 555 322 1807 419.146910101711 2434.432498188945 20 4 23 270 4310
11	99825 20 1861 1861 2500 2500 1 0.1972 0.1972 0.1972 0.03888784
12	99845 20 1861 1861 2500 2500 1 0.0508 0.0508 0.0508 0.00258064

