file 92377 1677780559                                           
version 2
run factors_calibration_range_test-84-20230302-19:09:18-12118
attr configname factors_calibration_range_test
attr datetime 20230302-19:09:18
attr experiment factors_calibration_range_test
attr inifile omnetpp.ini
attr iterationvars "$0=10, $1=3"
attr iterationvarsf 10,3-
attr measurement "$0=10, $1=3"
attr network Network
attr processid 12118
attr repetition 4
attr replication #4
attr resultdir results
attr runnumber 84
attr seedset 4
param *.boss.arrival_mean 20
param *.boss.service_mean 10
param *.minion.arrival_mean 5
param *.minion.service_mean 3
param **.minion.arrival_distribution 0
param **.minion.service_distribution 0
param **.boss.arrival_distribution 0
param **.boss.service_distribution 0

vector 0 Network.player minion_jobs_number_stat:vector ETV
attr source signal_minion_jobs_number
vector 1 Network.player minion_jobs_queue_number_stat:vector ETV
attr source signal_minion_jobs_queue_number
vector 2 Network.player boss_defeated_stat:vector ETV
attr source signal_boss_defeated
vector 3 Network.player boss_jobs_queue_number_stat:vector ETV
attr source signal_boss_jobs_queue_number
vector 4 Network.player boss_response_time_stat:vector ETV
attr source signal_boss_response_time
vector 5 Network.player minion_waiting_time_stat:vector ETV
attr source signal_minion_waiting_time
vector 6 Network.player boss_jobs_number_stat:vector ETV
attr source signal_boss_jobs_number
vector 7 Network.player minion_recovered_stat:vector ETV
attr source signal_minion_recovered
vector 8 Network.player boss_waiting_time_stat:vector ETV
attr source signal_boss_waiting_time
vector 9 Network.player minion_defeated_stat:vector ETV
attr source signal_minion_defeated
vector 10 Network.player minion_response_time_stat:vector ETV
attr source signal_minion_response_time
vector 11 Network.player minion_throughput:vector ETV
attr source signal_minion_throughput
vector 12 Network.player boss_throughput:vector ETV
attr source signal_boss_throughput
0	1966 11816 303 1805 350.639056474814 2491.884321730436 434 5 120 22675 1498613
1	13782 20539 303 1806 350.639056474814 2496.340387631918 755 4 119 37702 2380362
2	34321 2894 306 1798 356.171455800069 2484.982933445995 106 15 120 7155 582205
3	37215 5529 306 1808 356.171455800069 2497.177872175454 212 0 7 166 554
4	42744 4194 306 1798 356.171455800069 2484.982933445995 106 0.081816337657 79.816653871028 1886.6501614359 63677.122340093
5	46938 15399 306 1806 356.171455800069 2496.340387631918 385 12.555479476682 478.19142040343 79507.968554306 19837602.829297
6	62337 2762 308 1808 356.5813254123 2497.177872175454 106 1 8 189 549
7	65099 1725 308 1808 356.5813254123 2497.177872175454 64 12 75 2784 142944
8	66824 3331 308 1808 356.5813254123 2497.177872175454 106 0 66.545196184565 796.91301624345 27593.954902481
9	70155 9017 310 1806 358.010550690679 2496.340387631918 321 84 404 78324 21867376
10	79172 13165 310 1806 358.010550690679 2496.340387631918 321 16.876949186678 478.61074074422 68032.960572618 17068717.964011
11	92337 20 1809 1809 2500 2500 1 0.1616 0.1616 0.1616 0.02611456
12	92357 19 1809 1809 2500 2500 1 0.048 0.048 0.048 0.002304

