version 2
run factors_calibration_range_test-178-20230302-19:09:28-12599
attr configname factors_calibration_range_test
attr datetime 20230302-19:09:28
attr experiment factors_calibration_range_test
attr inifile omnetpp.ini
attr iterationvars "$0=15, $1=5"
attr iterationvarsf 15,5-
attr measurement "$0=15, $1=5"
attr network Network
attr processid 12599
attr repetition 18
attr replication #18
attr resultdir results
attr runnumber 178
attr seedset 18
param *.boss.arrival_mean 20
param *.boss.service_mean 15
param *.minion.arrival_mean 5
param *.minion.service_mean 5
param **.minion.arrival_distribution 0
param **.minion.service_distribution 0
param **.boss.arrival_distribution 0
param **.boss.service_distribution 0

vector 0 Network.player minion_jobs_number_stat:vector ETV
attr source signal_minion_jobs_number
vector 1 Network.player minion_jobs_queue_number_stat:vector ETV
attr source signal_minion_jobs_queue_number
vector 2 Network.player boss_jobs_number_stat:vector ETV
attr source signal_boss_jobs_number
vector 3 Network.player boss_jobs_queue_number_stat:vector ETV
attr source signal_boss_jobs_queue_number
vector 4 Network.player boss_defeated_stat:vector ETV
attr source signal_boss_defeated
vector 5 Network.player boss_response_time_stat:vector ETV
attr source signal_boss_response_time
vector 6 Network.player boss_waiting_time_stat:vector ETV
attr source signal_boss_waiting_time
vector 7 Network.player minion_waiting_time_stat:vector ETV
attr source signal_minion_waiting_time
vector 8 Network.player minion_defeated_stat:vector ETV
attr source signal_minion_defeated
vector 9 Network.player minion_response_time_stat:vector ETV
attr source signal_minion_response_time
vector 10 Network.player minion_recovered_stat:vector ETV
attr source signal_minion_recovered
vector 11 Network.player minion_throughput:vector ETV
attr source signal_minion_throughput
vector 12 Network.player boss_throughput:vector ETV
attr source signal_boss_throughput
0	214	350.438370970454	54
0	216	350.642838621503	55
0	222	358.983702291733	56
0	226	361.223363437039	57
0	232	369.805173673884	58
0	234	375.442931552544	59
0	236	384.62351002673	60
0	238	393.40344230898	61
0	240	398.017216022038	62
0	242	400.885098069646	63
0	244	401.321680868624	64
0	246	401.733171232385	65
0	250	410.994969302696	65
0	253	411.485999829962	65
0	255	412.846063746814	66
0	257	418.740524404605	67
0	259	418.764355679632	68
0	264	426.683725548425	68
0	266	432.403959357334	69
0	268	434.349734101083	70
0	274	446.107738281133	68
0	276	448.477095613184	69
0	282	454.391892393232	66
0	284	460.99170419821	67
0	286	461.53874583782	68
0	288	463.156936109883	69
0	290	464.183263045951	70
0	294	465.569393209788	71
0	296	475.887909982362	72
0	298	477.469200912891	73
0	301	480.078957586723	74
0	303	480.97081887941	75
0	306	486.977686984987	75
0	308	487.219485389526	76
0	310	488.104243937894	77
0	314	497.137738401364	78
0	316	499.483925427743	79
0	325	510.71121161048	80
0	327	512.809309938132	81
0	331	517.36605459624	82
0	335	519.39130281797	83
0	338	521.579950145233	84
0	343	532.230043304394	85
0	345	532.632701874404	86
0	353	546.943457405003	87
0	355	547.898442364028	88
0	357	550.220940973618	89
0	359	551.20551231144	90
0	361	555.124423989662	91
0	363	557.831018227737	92
0	365	563.995932218051	93
0	368	575.201747454116	94
0	372	578.849092707381	95
0	374	580.363336358447	96
0	376	589.99377512239	97
0	379	595.20309668994	98
0	381	596.03009375268	99
0	385	607.271103989799	100
0	388	615.29380477303	101
0	390	619.53718775412	102
0	398	628.536152645159	103
0	400	629.077216730913	104
0	402	629.231958050877	105
0	404	634.042070297817	106
0	406	634.779956285685	107
0	409	639.671978100194	108
0	411	640.719467220416	109
0	416	646.695576072643	110
0	418	647.049155557173	111
0	422	653.188542364862	112
0	424	654.39512778827	113
0	426	656.153121577587	114
0	432	662.77606367357	115
0	434	664.738139099941	116
0	436	665.988865975575	117
0	438	667.594570103058	118
0	440	672.736746588657	119
0	443	676.918711025539	120
0	445	677.951941105091	121
0	447	678.360933015713	122
0	451	680.738063783448	122
0	454	683.705618368099	122
0	457	699.848094715476	122
0	462	708.539264050097	120
0	466	710.145391030959	119
0	471	719.129727727911	117
0	474	722.39610089374	117
0	476	724.935807451834	118
0	480	730.03046311024	117
0	482	732.29614196153	118
0	487	738.101355999016	118
0	489	739.034758224106	119
0	492	742.820144868278	120
0	494	743.521854877642	121
0	496	756.141599924715	122
0	499	757.246090937875	122
0	504	762.874579071917	120
0	508	766.288601004287	121
0	510	769.002618306355	122
0	512	775.717913758303	123
0	514	780.586427733235	124
0	516	781.343991451836	125
0	520	788.32231305454	125
0	522	788.985760220662	126
0	524	789.112488331186	127
0	526	790.122827630769	128
0	528	792.465410037665	129
0	530	799.403419748809	130
0	534	804.71278302401	129
0	537	812.03339933932	129
0	539	813.754469078153	130
0	544	822.402266913154	128
0	547	828.470882735158	128
0	556	833.720285514096	127
0	558	848.459481859555	128
0	562	859.556303630975	129
0	564	865.15745991301	130
0	568	873.65444782169	131
0	570	874.023676576725	132
0	572	879.250708609988	133
0	574	879.810181471933	134
0	576	880.564605182816	135
0	578	881.906868634754	136
0	580	885.092891423853	137
0	582	889.343888404356	138
0	584	890.631745221851	139
0	586	891.823755651598	140
0	588	895.960171860531	141
0	592	904.963526713163	142
0	594	912.060663095327	143
0	596	914.399586855774	144
0	598	918.388256276218	145
0	600	931.500985733293	146
0	607	938.610566511283	147
0	610	943.480012054082	148
0	613	947.481714421575	149
0	615	949.233166007822	150
0	617	952.500552237267	151
0	620	959.141366054662	152
0	624	965.290826624653	153
0	626	967.913394967161	154
0	632	971.439678866308	153
0	634	975.845759778632	154
0	636	975.922922370217	155
0	639	977.970878145958	156
0	644	990.707574951803	156
0	649	995.966135720598	157
0	654	1018.41011983181	158
0	661	1027.697817018228	157
0	663	1033.168454028398	158
0	665	1034.286367872954	159
0	667	1036.814700877794	160
0	669	1045.186844963634	161
0	671	1045.755265893073	162
0	673	1047.254892408318	163
0	675	1051.55444303793	164
0	677	1054.772259809284	165
0	679	1060.685461087304	166
0	681	1060.932641145678	167
0	683	1070.380467753874	168
0	685	1074.2042510071	169
0	687	1075.442725681429	170
0	689	1076.576350511678	171
0	691	1078.413092624592	172
0	693	1079.442568635653	173
0	695	1083.822517097918	174
0	700	1090.410070264321	173
0	703	1095.30862406719	173
0	705	1104.315502699065	174
0	707	1106.663793570102	175
0	711	1114.94372384302	176
0	717	1130.474691756525	174
0	726	1149.639307587517	170
0	728	1162.909638092188	171
0	733	1177.084888146388	170
0	736	1181.570235208295	170
0	738	1186.371220692107	171
0	740	1188.178511623571	172
0	746	1193.964623463354	169
0	748	1194.184311382448	170
0	754	1199.662229472342	171
0	756	1208.380521819641	172
0	761	1210.341961685188	173
0	765	1216.741950884792	174
0	767	1218.032060813639	175
0	769	1224.555112625777	176
0	771	1226.419719932998	177
0	778	1242.714919080704	178
0	780	1255.886867914594	179
0	784	1270.571751236558	180
0	789	1285.136279244796	181
0	791	1287.176829650071	182
0	793	1289.27408225315	183
0	795	1291.072257679665	184
0	799	1294.384876895898	185
0	809	1300.400610740606	186
0	811	1300.450870596046	187
0	813	1311.60249752494	188
0	818	1322.355336683955	189
0	822	1323.748904169029	190
0	826	1330.421488729734	191
0	828	1334.613192387418	192
0	830	1337.669663478201	193
0	832	1337.802910942075	194
0	836	1340.178074466228	195
0	838	1344.16559794522	196
0	840	1346.12910720723	197
0	842	1357.885296125866	198
0	845	1359.501422291071	199
0	847	1361.155118062744	200
0	850	1364.018772166405	201
0	852	1368.663904935575	202
0	854	1370.440357705904	203
0	856	1373.289063595537	204
0	858	1374.600350386499	205
0	863	1389.354235311924	206
0	867	1406.477615500656	207
0	869	1407.574556656085	208
0	871	1407.665869461924	209
0	873	1411.903082167836	210
0	877	1412.787607367231	211
0	879	1415.701955626485	212
0	881	1420.946506360322	213
0	883	1421.37045702979	214
0	885	1425.606096957359	215
0	892	1436.293565854361	216
0	894	1438.128722361352	217
0	896	1439.105193429831	218
0	898	1439.620165190835	219
0	900	1450.943602038333	220
0	902	1451.780973884576	221
0	904	1453.043095231589	222
0	908	1454.976883756372	223
0	912	1457.130410933114	224
0	916	1472.715361421171	225
0	918	1475.274528472033	226
0	924	1480.350121055625	227
0	929	1502.203541601014	228
0	931	1507.625933250746	229
0	933	1508.148362205835	230
0	935	1511.021069534701	231
0	940	1517.827666894111	232
0	942	1518.941043417104	233
0	948	1536.179634001157	234
0	951	1543.103242210756	235
0	954	1552.683118716109	236
0	956	1557.302054254893	237
0	958	1562.319170824888	238
0	960	1571.553339150968	239
0	962	1574.994873104033	240
0	964	1578.326648964859	241
0	966	1578.821533121325	242
0	968	1578.937117291916	243
0	970	1579.62657384462	244
0	972	1582.459418681194	245
0	974	1582.503297555526	246
0	976	1599.248306438839	247
0	978	1599.55980169426	248
0	980	1602.891366069082	249
0	982	1609.04232912779	250
0	986	1623.053121880699	251
0	990	1627.896439283697	252
0	992	1629.360888480526	253
0	995	1643.615787553867	254
0	1001	1649.789318601824	255
0	1005	1662.991249808983	256
0	1007	1663.027838932697	257
0	1009	1665.196685389992	258
0	1012	1671.28250455192	259
0	1014	1673.449722317679	260
0	1025	1685.236716970728	261
0	1027	1687.035519224913	262
0	1029	1693.054749881759	263
0	1031	1697.555747007451	264
0	1035	1705.072437193936	265
0	1039	1707.047779434917	266
0	1041	1708.950227221736	267
0	1043	1709.911523723986	268
0	1045	1710.905630002128	269
0	1047	1711.394399255207	270
0	1049	1716.154351402186	271
0	1051	1729.421893313842	272
0	1054	1737.065448212002	273
0	1056	1737.408130444805	274
0	1061	1748.895371407346	275
0	1063	1756.993506618148	276
0	1066	1763.070504376129	277
0	1068	1764.474387661009	278
0	1072	1776.49867773985	279
0	1076	1782.363013654961	280
0	1079	1792.739500437788	281
0	1081	1794.028516256993	282
0	1085	1806.875442277277	283
0	1087	1809.544598794231	284
0	1090	1814.308069449418	285
0	1093	1819.998554221315	286
0	1095	1821.607074281687	287
0	1101	1830.33709028522	288
0	1103	1831.162755405891	289
0	1105	1831.487107824401	290
0	1107	1836.366710860238	291
0	1109	1836.775444799938	292
0	1111	1836.860613499545	293
0	1113	1837.070360107001	294
0	1115	1838.219759184615	295
0	1117	1839.589025029719	296
0	1119	1845.136135180089	297
0	1123	1847.891381049273	298
0	1127	1855.343035033952	299
0	1130	1868.397758871944	300
0	1132	1872.033486731262	301
0	1134	1874.857222962228	302
0	1136	1874.987123781616	303
0	1138	1881.480107162831	304
0	1140	1882.326185220106	305
0	1145	1888.602127544342	306
0	1147	1894.25393162364	307
0	1149	1900.375573146568	308
0	1151	1913.892187717209	309
0	1153	1914.000252424742	310
0	1155	1918.452960904038	311
0	1157	1919.631409816595	312
0	1161	1938.546490028726	313
0	1163	1939.309915134634	314
0	1167	1956.403347979834	315
0	1173	1968.854167531338	316
0	1176	1977.412579172769	317
0	1179	1987.379905979581	318
0	1181	1987.693314619686	319
0	1183	1995.021795944311	320
0	1185	1997.060881697559	321
0	1187	1997.45216712725	322
0	1189	1999.238597385716	323
0	1191	2015.952983035395	324
0	1193	2017.568798703787	325
0	1195	2017.883092351941	326
0	1197	2019.74875123412	327
0	1201	2029.164213491529	328
0	1205	2033.096214223252	329
0	1207	2044.177575405824	330
0	1211	2048.499462153057	331
0	1214	2054.100385327484	332
0	1218	2056.17675499239	333
0	1220	2062.602469407062	334
0	1222	2070.119604991669	335
0	1229	2091.047155295245	336
0	1232	2091.541334123318	337
0	1236	2098.276608322664	338
0	1238	2102.780739190009	339
0	1240	2103.570212601034	340
0	1242	2103.971352958196	341
0	1246	2107.03429960764	342
0	1249	2109.36528681576	343
0	1251	2116.053254363906	344
0	1253	2122.534541028257	345
0	1255	2129.702864184103	346
0	1258	2134.928185250973	347
0	1260	2136.556881166097	348
0	1262	2141.958837182178	349
0	1264	2143.133966574147	350
0	1270	2159.82245456784	349
0	1284	2187.799775520967	345
0	1286	2188.442017121447	346
0	1288	2191.618881567412	347
0	1290	2194.651602954631	348
0	1294	2202.113100684068	347
0	1299	2210.565766657693	347
0	1301	2214.500141794916	348
0	1307	2225.612368247346	346
0	1311	2238.066067076675	345
0	1313	2240.495049860286	346
0	1316	2243.751101288714	346
0	1318	2246.016794894508	347
0	1322	2249.152763192635	348
0	1324	2249.983838140959	349
0	1327	2257.424541565527	350
0	1329	2259.180102086361	351
0	1331	2261.30958149794	352
0	1335	2263.037106028836	351
0	1337	2266.602536616285	352
0	1340	2270.880993148165	352
0	1342	2273.7263703662	353
0	1345	2279.494892580215	353
0	1348	2282.376944982463	353
0	1350	2286.186871893492	354
0	1352	2288.381221167735	355
0	1354	2290.848599564212	356
0	1356	2291.021331825857	357
0	1358	2291.790642749032	358
0	1361	2299.675453008412	358
0	1364	2302.428329239465	358
0	1368	2309.932513645929	359
0	1370	2311.713050835999	360
0	1372	2317.673108944238	361
0	1374	2320.001153961344	362
0	1378	2329.84424590586	362
0	1380	2329.899674719793	363
0	1382	2330.106329309444	364
0	1384	2334.062722064554	365
0	1387	2335.514504998163	365
0	1390	2336.351911912341	365
0	1392	2337.134716051451	366
0	1394	2337.589238845668	367
0	1397	2344.365688699119	367
0	1399	2347.258971551839	368
0	1403	2351.722922394079	369
0	1405	2352.887057151579	370
0	1409	2358.431375701582	370
0	1411	2362.585695647512	371
0	1420	2379.537949053661	368
0	1422	2382.138920876641	369
0	1424	2382.159655152111	370
0	1427	2397.174939038785	370
0	1429	2398.076500497032	371
0	1435	2411.146966857366	368
0	1439	2419.448288949055	367
0	1443	2426.219669602236	368
0	1445	2433.592884721701	369
0	1447	2439.953889803524	370
0	1451	2444.221110574288	370
0	1453	2445.467882407707	371
0	1459	2456.187643914437	371
0	1461	2464.882330688121	372
0	1463	2465.239588465331	373
0	1468	2485.29974121366	373
0	1470	2485.41199830609	374
0	1473	2488.939380441052	375
0	1476	2489.54042286726	375
0	1485	2495.962498298425	375
0	1487	2499.779611681098	376
1	214	350.438370970454	53
1	216	350.642838621503	54
1	222	358.983702291733	55
1	226	361.223363437039	56
1	232	369.805173673884	57
1	234	375.442931552544	58
1	236	384.62351002673	59
1	238	393.40344230898	60
1	240	398.017216022038	61
1	242	400.885098069646	62
1	244	401.321680868624	63
1	246	401.733171232385	64
1	248	409.940519633295	64
1	250	410.994969302696	64
1	251	411.322152042051	64
1	253	411.485999829962	64
1	255	412.846063746814	65
1	257	418.740524404605	66
1	259	418.764355679632	67
1	260	421.548614605002	67
1	264	426.683725548425	67
1	266	432.403959357334	68
1	268	434.349734101083	69
1	270	436.674274457459	69
1	271	437.54135212966	68
1	272	444.795271775498	67
1	274	446.107738281133	67
1	276	448.477095613184	68
1	277	449.236992312487	68
1	278	449.79632626258	67
1	279	451.315190899942	66
1	280	454.252439524114	65
1	282	454.391892393232	65
1	284	460.99170419821	66
1	286	461.53874583782	67
1	288	463.156936109883	68
1	290	464.183263045951	69
1	294	465.569393209788	70
1	296	475.887909982362	71
1	298	477.469200912891	72
1	301	480.078957586723	73
1	303	480.97081887941	74
1	304	481.247881258779	74
1	306	486.977686984987	74
1	308	487.219485389526	75
1	310	488.104243937894	76
1	314	497.137738401364	77
1	316	499.483925427743	78
1	325	510.71121161048	79
1	327	512.809309938132	80
1	331	517.36605459624	81
1	335	519.39130281797	82
1	338	521.579950145233	83
1	343	532.230043304394	84
1	345	532.632701874404	85
1	353	546.943457405003	86
1	355	547.898442364028	87
1	357	550.220940973618	88
1	359	551.20551231144	89
1	361	555.124423989662	90
1	363	557.831018227737	91
1	365	563.995932218051	92
1	368	575.201747454116	93
1	372	578.849092707381	94
1	374	580.363336358447	95
1	376	589.99377512239	96
1	379	595.20309668994	97
1	381	596.03009375268	98
1	385	607.271103989799	99
1	388	615.29380477303	100
1	390	619.53718775412	101
1	398	628.536152645159	102
1	400	629.077216730913	103
1	402	629.231958050877	104
1	404	634.042070297817	105
1	406	634.779956285685	106
1	409	639.671978100194	107
1	411	640.719467220416	108
1	416	646.695576072643	109
1	418	647.049155557173	110
1	422	653.188542364862	111
1	424	654.39512778827	112
1	426	656.153121577587	113
1	432	662.77606367357	114
1	434	664.738139099941	115
1	436	665.988865975575	116
1	438	667.594570103058	117
1	440	672.736746588657	118
1	443	676.918711025539	119
1	445	677.951941105091	120
1	447	678.360933015713	121
1	449	680.18911115714	121
1	451	680.738063783448	121
1	452	680.743617576119	121
1	454	683.705618368099	121
1	455	688.67861243091	121
1	457	699.848094715476	121
1	458	706.326229636437	121
1	459	706.955635931328	120
1	460	707.177628690763	119
1	462	708.539264050097	119
1	463	708.624239173924	119
1	464	708.79742337416	118
1	466	710.145391030959	118
1	467	711.170853721365	118
1	468	714.973498366923	117
1	469	719.117803186986	116
1	471	719.129727727911	116
1	472	719.256995503425	116
1	474	722.39610089374	116
1	476	724.935807451834	117
1	477	725.272404696281	117
1	478	727.331055710515	116
1	480	730.03046311024	116
1	482	732.29614196153	117
1	483	732.674204907007	117
1	487	738.101355999016	117
1	489	739.034758224106	118
1	492	742.820144868278	119
1	494	743.521854877642	120
1	496	756.141599924715	121
1	497	756.670304999765	121
1	499	757.246090937875	121
1	500	758.234825887743	121
1	501	759.728733989939	120
1	502	761.939224559374	119
1	504	762.874579071917	119
1	508	766.288601004287	120
1	510	769.002618306355	121
1	512	775.717913758303	122
1	514	780.586427733235	123
1	516	781.343991451836	124
1	518	785.619220960658	124
1	520	788.32231305454	124
1	522	788.985760220662	125
1	524	789.112488331186	126
1	526	790.122827630769	127
1	528	792.465410037665	128
1	530	799.403419748809	129
1	531	800.322181209579	129
1	532	804.092194103485	128
1	534	804.71278302401	128
1	535	805.50673667801	128
1	537	812.03339933932	128
1	539	813.754469078153	129
1	540	814.077549364795	129
1	541	816.355724656707	128
1	542	821.680041370773	127
1	544	822.402266913154	127
1	545	827.224217190096	127
1	547	828.470882735158	127
1	548	830.654365588435	127
1	549	830.939500670254	126
1	556	833.720285514096	126
1	558	848.459481859555	127
1	562	859.556303630975	128
1	564	865.15745991301	129
1	568	873.65444782169	130
1	570	874.023676576725	131
1	572	879.250708609988	132
1	574	879.810181471933	133
1	576	880.564605182816	134
1	578	881.906868634754	135
1	580	885.092891423853	136
1	582	889.343888404356	137
1	584	890.631745221851	138
1	586	891.823755651598	139
1	588	895.960171860531	140
1	592	904.963526713163	141
1	594	912.060663095327	142
1	596	914.399586855774	143
1	598	918.388256276218	144
1	600	931.500985733293	145
1	607	938.610566511283	146
1	610	943.480012054082	147
1	613	947.481714421575	148
1	615	949.233166007822	149
1	617	952.500552237267	150
1	620	959.141366054662	151
1	624	965.290826624653	152
1	626	967.913394967161	153
1	627	970.901145741117	153
1	628	971.185680957425	152
1	632	971.439678866308	152
1	634	975.845759778632	153
1	636	975.922922370217	154
1	639	977.970878145958	155
1	640	981.893533343516	155
1	644	990.707574951803	155
1	649	995.966135720598	156
1	654	1018.41011983181	157
1	656	1023.339457484759	157
1	657	1023.986824675787	156
1	661	1027.697817018228	156
1	663	1033.168454028398	157
1	665	1034.286367872954	158
1	667	1036.814700877794	159
1	669	1045.186844963634	160
1	671	1045.755265893073	161
1	673	1047.254892408318	162
1	675	1051.55444303793	163
1	677	1054.772259809284	164
1	679	1060.685461087304	165
1	681	1060.932641145678	166
1	683	1070.380467753874	167
1	685	1074.2042510071	168
1	687	1075.442725681429	169
1	689	1076.576350511678	170
1	691	1078.413092624592	171
1	693	1079.442568635653	172
1	695	1083.822517097918	173
1	697	1086.05422051033	173
1	698	1087.495202584855	172
1	700	1090.410070264321	172
1	701	1091.03587798197	172
1	703	1095.30862406719	172
1	705	1104.315502699065	173
1	707	1106.663793570102	174
1	711	1114.94372384302	175
1	713	1123.461599332268	175
1	714	1128.757793356268	174
1	715	1129.182382179071	173
1	717	1130.474691756525	173
1	718	1133.016340614845	173
1	719	1135.22445204255	172
1	720	1136.123235609591	171
1	721	1142.729442066881	170
1	722	1143.011413714143	169
1	726	1149.639307587517	169
1	728	1162.909638092188	170
1	730	1172.756825323846	170
1	731	1173.384873001118	169
1	733	1177.084888146388	169
1	734	1178.195307996885	169
1	736	1181.570235208295	169
1	738	1186.371220692107	170
1	740	1188.178511623571	171
1	741	1189.6768424473	171
1	742	1189.891948674237	170
1	743	1191.200322328727	169
1	744	1193.12022252928	168
1	746	1193.964623463354	168
1	748	1194.184311382448	169
1	754	1199.662229472342	170
1	756	1208.380521819641	171
1	761	1210.341961685188	172
1	765	1216.741950884792	173
1	767	1218.032060813639	174
1	769	1224.555112625777	175
1	771	1226.419719932998	176
1	778	1242.714919080704	177
1	780	1255.886867914594	178
1	784	1270.571751236558	179
1	789	1285.136279244796	180
1	791	1287.176829650071	181
1	793	1289.27408225315	182
1	795	1291.072257679665	183
1	799	1294.384876895898	184
1	809	1300.400610740606	185
1	811	1300.450870596046	186
1	813	1311.60249752494	187
1	818	1322.355336683955	188
1	822	1323.748904169029	189
1	826	1330.421488729734	190
1	828	1334.613192387418	191
1	830	1337.669663478201	192
1	832	1337.802910942075	193
1	836	1340.178074466228	194
1	838	1344.16559794522	195
1	840	1346.12910720723	196
1	842	1357.885296125866	197
1	845	1359.501422291071	198
1	847	1361.155118062744	199
1	850	1364.018772166405	200
1	852	1368.663904935575	201
1	854	1370.440357705904	202
1	856	1373.289063595537	203
1	858	1374.600350386499	204
1	863	1389.354235311924	205
1	867	1406.477615500656	206
1	869	1407.574556656085	207
1	871	1407.665869461924	208
1	873	1411.903082167836	209
1	877	1412.787607367231	210
1	879	1415.701955626485	211
1	881	1420.946506360322	212
1	883	1421.37045702979	213
1	885	1425.606096957359	214
1	892	1436.293565854361	215
1	894	1438.128722361352	216
1	896	1439.105193429831	217
1	898	1439.620165190835	218
1	900	1450.943602038333	219
1	902	1451.780973884576	220
1	904	1453.043095231589	221
1	908	1454.976883756372	222
1	912	1457.130410933114	223
1	916	1472.715361421171	224
1	918	1475.274528472033	225
1	924	1480.350121055625	226
1	929	1502.203541601014	227
1	931	1507.625933250746	228
1	933	1508.148362205835	229
1	935	1511.021069534701	230
1	940	1517.827666894111	231
1	942	1518.941043417104	232
1	948	1536.179634001157	233
1	951	1543.103242210756	234
1	954	1552.683118716109	235
1	956	1557.302054254893	236
1	958	1562.319170824888	237
1	960	1571.553339150968	238
1	962	1574.994873104033	239
1	964	1578.326648964859	240
1	966	1578.821533121325	241
1	968	1578.937117291916	242
1	970	1579.62657384462	243
1	972	1582.459418681194	244
1	974	1582.503297555526	245
1	976	1599.248306438839	246
1	978	1599.55980169426	247
1	980	1602.891366069082	248
1	982	1609.04232912779	249
1	986	1623.053121880699	250
1	990	1627.896439283697	251
1	992	1629.360888480526	252
1	995	1643.615787553867	253
1	1001	1649.789318601824	254
1	1005	1662.991249808983	255
1	1007	1663.027838932697	256
1	1009	1665.196685389992	257
1	1012	1671.28250455192	258
1	1014	1673.449722317679	259
1	1025	1685.236716970728	260
1	1027	1687.035519224913	261
1	1029	1693.054749881759	262
1	1031	1697.555747007451	263
1	1035	1705.072437193936	264
1	1039	1707.047779434917	265
1	1041	1708.950227221736	266
1	1043	1709.911523723986	267
1	1045	1710.905630002128	268
1	1047	1711.394399255207	269
1	1049	1716.154351402186	270
1	1051	1729.421893313842	271
1	1054	1737.065448212002	272
1	1056	1737.408130444805	273
1	1061	1748.895371407346	274
1	1063	1756.993506618148	275
1	1066	1763.070504376129	276
1	1068	1764.474387661009	277
1	1072	1776.49867773985	278
1	1076	1782.363013654961	279
1	1079	1792.739500437788	280
1	1081	1794.028516256993	281
1	1085	1806.875442277277	282
1	1087	1809.544598794231	283
1	1090	1814.308069449418	284
1	1093	1819.998554221315	285
1	1095	1821.607074281687	286
1	1101	1830.33709028522	287
1	1103	1831.162755405891	288
1	1105	1831.487107824401	289
1	1107	1836.366710860238	290
1	1109	1836.775444799938	291
1	1111	1836.860613499545	292
1	1113	1837.070360107001	293
1	1115	1838.219759184615	294
1	1117	1839.589025029719	295
1	1119	1845.136135180089	296
1	1123	1847.891381049273	297
1	1127	1855.343035033952	298
1	1130	1868.397758871944	299
1	1132	1872.033486731262	300
1	1134	1874.857222962228	301
1	1136	1874.987123781616	302
1	1138	1881.480107162831	303
1	1140	1882.326185220106	304
1	1145	1888.602127544342	305
1	1147	1894.25393162364	306
1	1149	1900.375573146568	307
1	1151	1913.892187717209	308
1	1153	1914.000252424742	309
1	1155	1918.452960904038	310
1	1157	1919.631409816595	311
1	1161	1938.546490028726	312
1	1163	1939.309915134634	313
1	1167	1956.403347979834	314
1	1173	1968.854167531338	315
1	1176	1977.412579172769	316
1	1179	1987.379905979581	317
1	1181	1987.693314619686	318
1	1183	1995.021795944311	319
1	1185	1997.060881697559	320
1	1187	1997.45216712725	321
1	1189	1999.238597385716	322
1	1191	2015.952983035395	323
1	1193	2017.568798703787	324
1	1195	2017.883092351941	325
1	1197	2019.74875123412	326
1	1201	2029.164213491529	327
1	1205	2033.096214223252	328
1	1207	2044.177575405824	329
1	1211	2048.499462153057	330
1	1214	2054.100385327484	331
1	1218	2056.17675499239	332
1	1220	2062.602469407062	333
1	1222	2070.119604991669	334
1	1229	2091.047155295245	335
1	1232	2091.541334123318	336
1	1236	2098.276608322664	337
1	1238	2102.780739190009	338
1	1240	2103.570212601034	339
1	1242	2103.971352958196	340
1	1246	2107.03429960764	341
1	1249	2109.36528681576	342
1	1251	2116.053254363906	343
1	1253	2122.534541028257	344
1	1255	2129.702864184103	345
1	1258	2134.928185250973	346
1	1260	2136.556881166097	347
1	1262	2141.958837182178	348
1	1264	2143.133966574147	349
1	1265	2147.280394374279	349
1	1266	2151.96131970006	348
1	1270	2159.82245456784	348
1	1272	2160.663526771441	348
1	1273	2161.251789488055	347
1	1274	2162.023387514683	346
1	1275	2163.56774667851	345
1	1276	2163.610304177587	344
1	1284	2187.799775520967	344
1	1286	2188.442017121447	345
1	1288	2191.618881567412	346
1	1290	2194.651602954631	347
1	1291	2197.313481578901	347
1	1292	2200.07115525057	346
1	1294	2202.113100684068	346
1	1295	2204.449986951206	346
1	1299	2210.565766657693	346
1	1301	2214.500141794916	347
1	1303	2217.95212150789	347
1	1304	2223.988797522697	346
1	1305	2224.251547853712	345
1	1307	2225.612368247346	345
1	1308	2229.085058874891	345
1	1309	2233.493582316728	344
1	1311	2238.066067076675	344
1	1313	2240.495049860286	345
1	1314	2242.707771319292	345
1	1316	2243.751101288714	345
1	1318	2246.016794894508	346
1	1322	2249.152763192635	347
1	1324	2249.983838140959	348
1	1327	2257.424541565527	349
1	1329	2259.180102086361	350
1	1331	2261.30958149794	351
1	1332	2262.557867801648	351
1	1333	2262.585723993364	350
1	1335	2263.037106028836	350
1	1337	2266.602536616285	351
1	1338	2268.153496663261	351
1	1340	2270.880993148165	351
1	1342	2273.7263703662	352
1	1343	2273.985055532995	352
1	1345	2279.494892580215	352
1	1346	2281.723093803412	352
1	1348	2282.376944982463	352
1	1350	2286.186871893492	353
1	1352	2288.381221167735	354
1	1354	2290.848599564212	355
1	1356	2291.021331825857	356
1	1358	2291.790642749032	357
1	1359	2293.135372705913	357
1	1361	2299.675453008412	357
1	1362	2301.16444112008	357
1	1364	2302.428329239465	357
1	1368	2309.932513645929	358
1	1370	2311.713050835999	359
1	1372	2317.673108944238	360
1	1374	2320.001153961344	361
1	1376	2329.800063764882	361
1	1378	2329.84424590586	361
1	1380	2329.899674719793	362
1	1382	2330.106329309444	363
1	1384	2334.062722064554	364
1	1385	2335.262061537044	364
1	1387	2335.514504998163	364
1	1388	2335.655103669624	364
1	1390	2336.351911912341	364
1	1392	2337.134716051451	365
1	1394	2337.589238845668	366
1	1395	2343.937637485622	366
1	1397	2344.365688699119	366
1	1399	2347.258971551839	367
1	1403	2351.722922394079	368
1	1405	2352.887057151579	369
1	1407	2353.964059287316	369
1	1409	2358.431375701582	369
1	1411	2362.585695647512	370
1	1412	2363.582241177544	370
1	1413	2365.052132153238	369
1	1417	2378.63201373953	368
1	1418	2379.488361785576	367
1	1420	2379.537949053661	367
1	1422	2382.138920876641	368
1	1424	2382.159655152111	369
1	1425	2392.636200432631	369
1	1427	2397.174939038785	369
1	1429	2398.076500497032	370
1	1430	2404.096186999854	370
1	1431	2407.590858005227	369
1	1432	2409.60993380992	368
1	1433	2410.698098804989	367
1	1435	2411.146966857366	367
1	1436	2412.6173212535	367
1	1437	2418.21494343567	366
1	1439	2419.448288949055	366
1	1443	2426.219669602236	367
1	1445	2433.592884721701	368
1	1447	2439.953889803524	369
1	1449	2443.706702897542	369
1	1451	2444.221110574288	369
1	1453	2445.467882407707	370
1	1454	2447.013456995768	370
1	1459	2456.187643914437	370
1	1461	2464.882330688121	371
1	1463	2465.239588465331	372
1	1464	2465.843574449892	372
1	1468	2485.29974121366	372
1	1470	2485.41199830609	373
1	1473	2488.939380441052	374
1	1474	2489.331534940454	374
1	1476	2489.54042286726	374
1	1477	2490.12055487236	374
1	1485	2495.962498298425	374
1	1487	2499.779611681098	375
2	218	352.65760743913	3
2	224	359.293699558628	2
2	228	361.689670555923	3
2	262	423.510220605586	1
2	292	464.310329824607	1
2	312	490.311357624162	1
2	318	503.252965294132	2
2	321	507.787385408353	2
2	323	509.460907223688	3
2	329	515.59083765368	4
2	333	518.812306809382	5
2	340	528.789657893763	5
2	347	536.621619676878	5
2	349	539.876371230947	6
2	351	540.011977590143	7
2	370	576.409290106954	7
2	383	601.646983798841	7
2	392	620.5673933378	7
2	394	621.913209437982	8
2	414	646.35204339536	5
2	428	657.379640067769	4
2	485	733.174320689637	1
2	506	765.857088538859	1
2	551	831.36383180455	1
2	553	831.962629369746	2
2	560	850.840600045191	2
2	566	865.76178541671	3
2	590	901.223484359462	4
2	602	932.184322298713	5
2	605	937.929585530627	5
2	630	971.342649776712	1
2	642	983.072545625181	1
2	646	991.427067730116	2
2	651	1015.605515033844	2
2	659	1025.81114179477	1
2	709	1109.798972014767	1
2	724	1149.457133924026	1
2	750	1196.526696454582	1
2	752	1196.569454728748	2
2	759	1210.285144495441	2
2	763	1213.98675580795	3
2	774	1231.630065478987	3
2	776	1241.308179746611	4
2	782	1263.189796643971	5
2	787	1281.513172219529	5
2	797	1292.096612948606	6
2	801	1294.89263798076	7
2	803	1295.723033753267	8
2	805	1296.428746356222	9
2	807	1297.941004178685	10
2	816	1322.14802534089	10
2	820	1323.120498050406	11
2	834	1338.292960251381	10
2	861	1384.918681491055	8
2	875	1412.519964056525	7
2	888	1429.644800299848	7
2	890	1432.943823798201	8
2	906	1454.825693868242	9
2	910	1456.237201907714	10
2	914	1463.501273298819	11
2	920	1476.895200702336	12
2	922	1478.65248867971	13
2	926	1493.942844496456	14
2	937	1513.068384497825	14
2	946	1530.316331484607	12
2	988	1626.275814319071	9
2	997	1648.090529582688	9
2	999	1648.406833864499	10
2	1003	1660.09057612624	11
2	1016	1673.738745992098	11
2	1018	1676.701949053993	12
2	1020	1677.810560318481	13
2	1022	1682.363952277894	14
2	1033	1701.700788650236	14
2	1037	1706.668184001908	15
2	1059	1748.582026119455	14
2	1074	1779.095334613409	12
2	1083	1801.263659048677	12
2	1097	1825.874136888878	11
2	1099	1830.294960282079	12
2	1121	1845.141402175686	13
2	1143	1885.574877957284	10
2	1170	1962.87460879635	6
2	1199	2024.60862566707	4
2	1203	2030.819784934859	5
2	1216	2055.285658945094	3
2	1226	2081.351597619549	2
2	1234	2096.782173260599	1
2	1244	2106.087901989699	2
2	1268	2154.144294006872	1
2	1278	2167.364661838233	1
2	1280	2176.992351096176	2
2	1297	2206.891406240519	1
2	1320	2247.512079356014	1
2	1366	2306.924212961346	1
2	1401	2348.186366084548	1
2	1415	2370.15674638938	1
2	1441	2425.111267728735	1
2	1456	2451.626198357569	1
2	1466	2469.476608553846	1
2	1479	2490.238705866935	1
2	1481	2494.252370332495	2
2	1483	2494.636027121347	3
3	218	352.65760743913	2
3	219	354.671292933547	2
3	220	358.016318550418	1
3	224	359.293699558628	1
3	228	361.689670555923	2
3	229	365.045454120216	2
3	230	365.884429216106	1
3	247	406.561274534612	0
3	262	423.510220605586	0
3	269	434.732864700549	0
3	292	464.310329824607	0
3	299	479.978209665788	0
3	312	490.311357624162	0
3	318	503.252965294132	1
3	319	504.554545901473	1
3	321	507.787385408353	1
3	323	509.460907223688	2
3	329	515.59083765368	3
3	333	518.812306809382	4
3	336	521.266124114072	4
3	340	528.789657893763	4
3	341	532.221409627881	4
3	347	536.621619676878	4
3	349	539.876371230947	5
3	351	540.011977590143	6
3	366	572.451350031559	6
3	370	576.409290106954	6
3	377	592.556008215849	6
3	383	601.646983798841	6
3	386	609.185406131814	6
3	392	620.5673933378	6
3	394	621.913209437982	7
3	395	623.382815725868	7
3	396	627.344730968985	6
3	407	638.655606757467	5
3	412	643.087981174864	4
3	414	646.35204339536	4
3	419	649.359169914676	4
3	420	653.182395406006	3
3	428	657.379640067769	3
3	429	660.669664459271	3
3	430	661.931816638084	2
3	441	676.174095182492	1
3	448	679.224213513351	0
3	485	733.174320689637	0
3	490	742.604097727188	0
3	506	765.857088538859	0
3	517	785.219090049031	0
3	551	831.36383180455	0
3	553	831.962629369746	1
3	554	833.328569672555	1
3	560	850.840600045191	1
3	566	865.76178541671	2
3	590	901.223484359462	3
3	602	932.184322298713	4
3	603	935.9389422657	4
3	605	937.929585530627	4
3	608	942.782071058305	4
3	611	945.099809208505	3
3	618	958.2874083742	2
3	621	962.02821019368	1
3	622	965.058747125767	0
3	630	971.342649776712	0
3	637	976.238015131621	0
3	642	983.072545625181	0
3	646	991.427067730116	1
3	647	995.123016373478	1
3	651	1015.605515033844	1
3	652	1015.741928201197	1
3	655	1018.461673398646	0
3	659	1025.81114179477	0
3	696	1084.857403435934	0
3	709	1109.798972014767	0
3	712	1120.224569892528	0
3	724	1149.457133924026	0
3	729	1172.032970879311	0
3	750	1196.526696454582	0
3	752	1196.569454728748	1
3	757	1210.247023145112	1
3	759	1210.285144495441	1
3	763	1213.98675580795	2
3	772	1228.065701295144	2
3	774	1231.630065478987	2
3	776	1241.308179746611	3
3	782	1263.189796643971	4
3	785	1273.91536774671	4
3	787	1281.513172219529	4
3	797	1292.096612948606	5
3	801	1294.89263798076	6
3	803	1295.723033753267	7
3	805	1296.428746356222	8
3	807	1297.941004178685	9
3	814	1318.394851619524	9
3	816	1322.14802534089	9
3	820	1323.120498050406	10
3	823	1326.219487032056	10
3	824	1327.435169401044	9
3	834	1338.292960251381	9
3	843	1359.013587596571	9
3	848	1362.550661951397	8
3	859	1379.453814772919	7
3	861	1384.918681491055	7
3	864	1395.87964233303	7
3	865	1403.441948108146	6
3	875	1412.519964056525	6
3	886	1427.536738816316	6
3	888	1429.644800299848	6
3	890	1432.943823798201	7
3	906	1454.825693868242	8
3	910	1456.237201907714	9
3	914	1463.501273298819	10
3	920	1476.895200702336	11
3	922	1478.65248867971	12
3	926	1493.942844496456	13
3	927	1501.47671413061	13
3	937	1513.068384497825	13
3	938	1516.732552103779	13
3	943	1522.612225177654	12
3	944	1523.120215598897	11
3	946	1530.316331484607	11
3	949	1543.022165286814	11
3	952	1548.058302960505	10
3	983	1610.680731020073	9
3	984	1612.016284273502	8
3	988	1626.275814319071	8
3	993	1637.564925608739	8
3	997	1648.090529582688	8
3	999	1648.406833864499	9
3	1003	1660.09057612624	10
3	1010	1668.789023643926	10
3	1016	1673.738745992098	10
3	1018	1676.701949053993	11
3	1020	1677.810560318481	12
3	1022	1682.363952277894	13
3	1023	1683.142576217086	13
3	1033	1701.700788650236	13
3	1037	1706.668184001908	14
3	1052	1729.566325065974	14
3	1057	1738.437142376762	13
3	1059	1748.582026119455	13
3	1064	1757.989214759307	13
3	1069	1775.580352901598	12
3	1070	1775.964220828363	11
3	1074	1779.095334613409	11
3	1077	1790.125930741992	11
3	1083	1801.263659048677	11
3	1088	1811.260819869268	11
3	1091	1815.205335738777	10
3	1097	1825.874136888878	10
3	1099	1830.294960282079	11
3	1121	1845.141402175686	12
3	1124	1848.562846794591	12
3	1125	1853.771010381902	11
3	1128	1858.393572024159	10
3	1141	1883.216313054275	9
3	1143	1885.574877957284	9
3	1158	1923.401023337148	9
3	1159	1936.482814565204	8
3	1164	1944.335696731049	7
3	1165	1954.320332771548	6
3	1168	1962.366812209685	5
3	1170	1962.87460879635	5
3	1171	1968.665764211229	5
3	1174	1971.973985104335	4
3	1177	1983.454361731278	3
3	1199	2024.60862566707	3
3	1203	2030.819784934859	4
3	1208	2047.124937605509	4
3	1209	2047.329312925443	3
3	1212	2052.967061497019	2
3	1216	2055.285658945094	2
3	1223	2073.980281322419	2
3	1224	2076.939238396537	1
3	1226	2081.351597619549	1
3	1227	2091.018374461828	1
3	1230	2091.191797834508	0
3	1234	2096.782173260599	0
3	1244	2106.087901989699	1
3	1247	2108.488937069538	1
3	1256	2132.754464515433	0
3	1268	2154.144294006872	0
3	1271	2160.262037897555	0
3	1278	2167.364661838233	0
3	1280	2176.992351096176	1
3	1281	2177.878697763278	1
3	1282	2186.089768719289	0
3	1297	2206.891406240519	0
3	1302	2216.361708660083	0
3	1320	2247.512079356014	0
3	1325	2257.021839164617	0
3	1366	2306.924212961346	0
3	1375	2329.598604570733	0
3	1401	2348.186366084548	0
3	1406	2353.081635220669	0
3	1415	2370.15674638938	0
3	1416	2375.157312760517	0
3	1441	2425.111267728735	0
3	1448	2441.796463763299	0
3	1456	2451.626198357569	0
3	1457	2453.346665097714	0
3	1466	2469.476608553846	0
3	1471	2488.095539567881	0
3	1479	2490.238705866935	0
3	1481	2494.252370332495	1
3	1483	2494.636027121347	2
4	219	354.671292933547	15
4	220	358.016318550418	16
4	229	365.045454120216	17
4	230	365.884429216106	18
4	247	406.561274534612	19
4	269	434.732864700549	20
4	299	479.978209665788	21
4	319	504.554545901473	22
4	336	521.266124114072	23
4	341	532.221409627881	24
4	366	572.451350031559	25
4	377	592.556008215849	26
4	386	609.185406131814	27
4	395	623.382815725868	28
4	396	627.344730968985	29
4	407	638.655606757467	30
4	412	643.087981174864	31
4	419	649.359169914676	32
4	420	653.182395406006	33
4	429	660.669664459271	34
4	430	661.931816638084	35
4	441	676.174095182492	36
4	448	679.224213513351	37
4	490	742.604097727188	38
4	517	785.219090049031	39
4	554	833.328569672555	40
4	603	935.9389422657	41
4	608	942.782071058305	42
4	611	945.099809208505	43
4	618	958.2874083742	44
4	621	962.02821019368	45
4	622	965.058747125767	46
4	637	976.238015131621	47
4	647	995.123016373478	48
4	652	1015.741928201197	49
4	655	1018.461673398646	50
4	696	1084.857403435934	51
4	712	1120.224569892528	52
4	729	1172.032970879311	53
4	757	1210.247023145112	54
4	772	1228.065701295144	55
4	785	1273.91536774671	56
4	814	1318.394851619524	57
4	823	1326.219487032056	58
4	824	1327.435169401044	59
4	843	1359.013587596571	60
4	848	1362.550661951397	61
4	859	1379.453814772919	62
4	864	1395.87964233303	63
4	865	1403.441948108146	64
4	886	1427.536738816316	65
4	927	1501.47671413061	66
4	938	1516.732552103779	67
4	943	1522.612225177654	68
4	944	1523.120215598897	69
4	949	1543.022165286814	70
4	952	1548.058302960505	71
4	983	1610.680731020073	72
4	984	1612.016284273502	73
4	993	1637.564925608739	74
4	1010	1668.789023643926	75
4	1023	1683.142576217086	76
4	1052	1729.566325065974	77
4	1057	1738.437142376762	78
4	1064	1757.989214759307	79
4	1069	1775.580352901598	80
4	1070	1775.964220828363	81
4	1077	1790.125930741992	82
4	1088	1811.260819869268	83
4	1091	1815.205335738777	84
4	1124	1848.562846794591	85
4	1125	1853.771010381902	86
4	1128	1858.393572024159	87
4	1141	1883.216313054275	88
4	1158	1923.401023337148	89
4	1159	1936.482814565204	90
4	1164	1944.335696731049	91
4	1165	1954.320332771548	92
4	1168	1962.366812209685	93
4	1171	1968.665764211229	94
4	1174	1971.973985104335	95
4	1177	1983.454361731278	96
4	1208	2047.124937605509	97
4	1209	2047.329312925443	98
4	1212	2052.967061497019	99
4	1223	2073.980281322419	100
4	1224	2076.939238396537	101
4	1227	2091.018374461828	102
4	1230	2091.191797834508	103
4	1247	2108.488937069538	104
4	1256	2132.754464515433	105
4	1271	2160.262037897555	106
4	1281	2177.878697763278	107
4	1282	2186.089768719289	108
4	1302	2216.361708660083	109
4	1325	2257.021839164617	110
4	1375	2329.598604570733	111
4	1406	2353.081635220669	112
4	1416	2375.157312760517	113
4	1448	2441.796463763299	114
4	1457	2453.346665097714	115
4	1471	2488.095539567881	116
5	219	354.671292933547	29.034219498511
5	220	358.016318550418	30.150106770431
5	229	365.045454120216	12.387846681086
5	230	365.884429216106	6.590729657478
5	247	406.561274534612	44.871603978689
5	269	434.732864700549	11.222644094963
5	299	479.978209665788	15.667879841181
5	319	504.554545901473	14.243188277311
5	336	521.266124114072	18.01315881994
5	341	532.221409627881	24.434024219528
5	366	572.451350031559	62.990442807871
5	377	592.556008215849	76.965170562169
5	386	609.185406131814	90.373099322432
5	395	623.382815725868	94.593157832105
5	396	627.344730968985	90.723111292107
5	407	638.655606757467	98.77923552652
5	412	643.087981174864	103.07600358472
5	419	649.359169914676	72.949879807722
5	420	653.182395406006	51.535411607165
5	429	660.669664459271	40.102271121471
5	430	661.931816638084	40.018607200102
5	441	676.174095182492	29.822051787132
5	448	679.224213513351	21.844573445582
5	490	742.604097727188	9.429777037551
5	517	785.219090049031	19.362001510172
5	554	833.328569672555	1.964737868005
5	603	935.9389422657	103.97631289595
5	608	942.782071058305	91.941471013114
5	611	945.099809208505	79.338023791795
5	618	958.2874083742	57.063924014738
5	621	962.02821019368	29.843887894967
5	622	965.058747125767	27.12916159514
5	637	976.238015131621	4.895365354909
5	647	995.123016373478	12.050470748297
5	652	1015.741928201197	24.314860471081
5	655	1018.461673398646	2.856158364802
5	696	1084.857403435934	59.046261641164
5	712	1120.224569892528	10.425597877761
5	729	1172.032970879311	22.575836955285
5	757	1210.247023145112	13.72032669053
5	772	1228.065701295144	31.496246566396
5	785	1273.91536774671	63.630223251269
5	814	1318.394851619524	104.40809581157
5	823	1326.219487032056	94.589421553069
5	824	1327.435169401044	86.126989654433
5	843	1359.013587596571	95.8237909526
5	848	1362.550661951397	81.037489731868
5	859	1379.453814772919	87.357201824313
5	864	1395.87964233303	100.98700435227
5	865	1403.441948108146	107.71891435488
5	886	1427.536738816316	131.10799246009
5	927	1501.47671413061	203.53570995192
5	938	1516.732552103779	194.58452676289
5	943	1522.612225177654	199.49172712725
5	944	1523.120215598897	184.82725534752
5	949	1543.022165286814	158.10348379576
5	952	1548.058302960505	135.53833890398
5	983	1610.680731020073	181.03593072022
5	984	1612.016284273502	179.0724604753
5	993	1637.564925608739	182.7392317405
5	1010	1668.789023643926	212.55182173621
5	1023	1683.142576217086	219.64130291827
5	1052	1729.566325065974	252.67112436364
5	1057	1738.437142376762	259.78465369705
5	1064	1757.989214759307	264.04637026285
5	1069	1775.580352901598	262.51196840377
5	1070	1775.964220828363	245.64788934376
5	1077	1790.125930741992	163.85011642292
5	1088	1811.260819869268	163.17029028658
5	1091	1815.205335738777	166.79850187428
5	1124	1848.562846794591	188.47227066835
5	1125	1853.771010381902	180.0322643898
5	1128	1858.393572024159	181.69162297017
5	1141	1883.216313054275	205.40575273579
5	1158	1923.401023337148	241.03707105925
5	1159	1936.482814565204	234.78202591497
5	1164	1944.335696731049	237.66751272914
5	1165	1954.320332771548	205.73830665209
5	1168	1962.366812209685	183.27147759628
5	1171	1968.665764211229	167.40210516255
5	1174	1971.973985104335	146.09984821546
5	1177	1983.454361731278	153.1594014492
5	1208	2047.124937605509	201.98353542982
5	1209	2047.329312925443	161.75443496816
5	1212	2052.967061497019	90.092452700669
5	1223	2073.980281322419	49.371655655349
5	1224	2076.939238396537	46.119453461678
5	1227	2091.018374461828	35.732715516734
5	1230	2091.191797834508	9.840200214959
5	1247	2108.488937069538	11.706763808939
5	1256	2132.754464515433	26.666562525734
5	1271	2160.262037897555	6.117743890683
5	1281	2177.878697763278	10.514035925045
5	1282	2186.089768719289	9.097417623113
5	1302	2216.361708660083	9.470302419564
5	1325	2257.021839164617	9.509759808603
5	1375	2329.598604570733	22.674391609387
5	1406	2353.081635220669	4.895269136121
5	1416	2375.157312760517	5.000566371137
5	1448	2441.796463763299	16.685196034564
5	1457	2453.346665097714	1.720466740145
5	1471	2488.095539567881	18.618931014035
6	219	354.671292933547	26.80508115356
6	220	358.016318550418	5.358711111288
6	229	365.045454120216	5.751754561588
6	230	365.884429216106	4.194758660183
6	262	423.510220605586	0
6	292	464.310329824607	0
6	312	490.311357624162	0
6	319	504.554545901473	1.301580607341
6	336	521.266124114072	13.478738705719
6	341	532.221409627881	22.760502404193
6	366	572.451350031559	56.860512377879
6	377	592.556008215849	73.743701406467
6	386	609.185406131814	80.395748238051
6	395	623.382815725868	86.76119604899
6	396	627.344730968985	87.468359738038
6	407	638.655606757467	98.643629167324
6	412	643.087981174864	66.67869106791
6	419	649.359169914676	47.712186115835
6	420	653.182395406006	32.615002068206
6	429	660.669664459271	38.756455021289
6	430	661.931816638084	15.579773242724
6	441	676.174095182492	18.794455114723
6	485	733.174320689637	0
6	506	765.857088538859	0
6	551	831.36383180455	0
6	554	833.328569672555	1.365940302809
6	603	935.9389422657	85.098342220509
6	608	942.782071058305	77.020285641595
6	611	945.099809208505	43.876324849043
6	618	958.2874083742	26.103086075487
6	621	962.02821019368	24.098624663053
6	630	971.342649776712	0
6	642	983.072545625181	0
6	647	995.123016373478	3.695948643362
6	652	1015.741928201197	0.136413167353
6	659	1025.81114179477	0
6	709	1109.798972014767	0
6	724	1149.457133924026	0
6	750	1196.526696454582	0
6	757	1210.247023145112	13.677568416364
6	772	1228.065701295144	17.780556799703
6	785	1273.91536774671	59.92861193876
6	814	1318.394851619524	86.764786140537
6	823	1326.219487032056	84.911307285445
6	824	1327.435169401044	64.245372757073
6	843	1359.013587596571	77.500415377042
6	848	1362.550661951397	70.454049002791
6	859	1379.453814772919	84.561176792159
6	864	1395.87964233303	100.15660857976
6	865	1403.441948108146	107.01320175192
6	886	1427.536738816316	129.59573463763
6	927	1501.47671413061	179.32868878972
6	938	1516.732552103779	193.61205405337
6	943	1522.612225177654	184.31926492627
6	944	1523.120215598897	138.20153410784
6	949	1543.022165286814	130.50220123029
6	952	1548.058302960505	118.41350266066
6	983	1610.680731020073	177.73690722187
6	984	1612.016284273502	157.19059040526
6	993	1637.564925608739	181.32772370103
6	1010	1668.789023643926	205.28775034511
6	1023	1683.142576217086	206.24737551475
6	1052	1729.566325065974	250.91383638626
6	1057	1738.437142376762	244.49429788031
6	1064	1757.989214759307	244.92083026148
6	1069	1775.580352901598	245.26402141699
6	1070	1775.964220828363	149.68840650929
6	1077	1790.125930741992	142.0354011593
6	1088	1811.260819869268	162.85398600477
6	1091	1815.205335738777	155.11475961254
6	1124	1848.562846794591	174.82410080249
6	1125	1853.771010381902	177.06906132791
6	1128	1858.393572024159	180.58301170568
6	1141	1883.216313054275	200.85236077638
6	1158	1923.401023337148	221.70023468691
6	1159	1936.482814565204	229.8146305633
6	1164	1944.335696731049	195.75367061159
6	1165	1954.320332771548	175.22499815814
6	1168	1962.366812209685	161.10315316101
6	1171	1968.665764211229	142.79162732235
6	1174	1971.973985104335	141.67902482226
6	1177	1983.454361731278	138.31295955559
6	1208	2047.124937605509	161.55005964822
6	1209	2047.329312925443	84.454704129093
6	1212	2052.967061497019	28.358435829949
6	1223	2073.980281322419	43.16049638756
6	1224	2076.939238396537	21.653579451443
6	1227	2091.018374461828	9.666776842279
6	1234	2096.782173260599	0
6	1247	2108.488937069538	2.401035079839
6	1268	2154.144294006872	0
6	1278	2167.364661838233	0
6	1281	2177.878697763278	0.886346667102
6	1297	2206.891406240519	0
6	1320	2247.512079356014	0
6	1366	2306.924212961346	0
6	1401	2348.186366084548	0
6	1415	2370.15674638938	0
6	1441	2425.111267728735	0
6	1456	2451.626198357569	0
6	1466	2469.476608553846	0
6	1479	2490.238705866935	0
7	247	406.561274534612	251.34692225294
7	248	409.940519633295	252.03467044791
7	251	411.322152042051	251.72025145342
7	260	421.548614605002	260.52514400407
7	269	434.732864700549	273.59777267288
7	270	436.674274457459	272.95041931474
7	271	437.54135212966	270.6379791246
7	272	444.795271775498	272.86274834883
7	277	449.236992312487	276.0897643259
7	278	449.79632626258	272.26659258005
7	279	451.315190899942	265.92476588812
7	280	454.252439524114	261.24331930833
7	299	479.978209665788	281.13602156827
7	304	481.247881258779	277.60878596609
7	448	679.224213513351	475.26649348552
7	449	680.18911115714	471.29021929791
7	452	680.743617576119	470.91472458512
7	455	688.67861243091	476.54058078859
7	458	706.326229636437	483.47655630142
7	459	706.955635931328	483.18408403422
7	460	707.177628690763	476.91927619819
7	463	708.624239173924	471.52712890585
7	464	708.79742337416	468.24958178956
7	467	711.170853721365	468.10693806526
7	468	714.973498366923	469.73092818827
7	469	719.117803186986	468.47332741446
7	472	719.256995503425	466.75551735388
7	477	725.272404696281	470.85257297477
7	478	727.331055710515	470.46192018725
7	483	732.674204907007	475.44505865908
7	490	742.604097727188	479.98934808821
7	497	756.670304999765	493.80486239107
7	500	758.234825887743	492.72545191806
7	501	759.728733989939	491.03279725418
7	502	761.939224559374	490.32947415542
7	517	785.219090049031	510.95125771556
7	518	785.619220960658	505.30736773284
7	531	800.322181209579	515.85245085217
7	532	804.092194103485	513.5870371013
7	535	805.50673667801	513.2723620969
7	540	814.077549364795	514.18190943083
7	541	816.355724656707	515.10540261996
7	542	821.680041370773	518.82055352288
7	545	827.224217190096	523.24163199372
7	548	830.654365588435	522.53012727195
7	549	830.939500670254	521.34726209676
7	622	965.058747125767	645.24642268637
7	627	970.901145741117	649.99799479208
7	628	971.185680957425	649.1008278266
7	637	976.238015131621	647.12263210339
7	640	981.893533343516	652.08246520017
7	655	1018.461673398646	685.55936665824
7	656	1023.339457484759	682.25025706461
7	657	1023.986824675787	673.54845370533
7	696	1084.857403435934	734.21456481443
7	697	1086.05422051033	727.0705182186
7	698	1087.495202584855	726.27183914782
7	701	1091.03587798197	721.23070430809
7	712	1120.224569892528	744.78163833998
7	713	1123.461599332268	738.83808930554
7	714	1128.757793356268	735.35435104729
7	715	1129.182382179071	731.16516615703
7	718	1133.016340614845	732.1312425452
7	719	1135.22445204255	733.90277117393
7	720	1136.123235609591	734.39006437721
7	721	1142.729442066881	731.73447276418
7	722	1143.011413714143	731.52541388418
7	729	1172.032970879311	759.1869071325
7	730	1172.756825323846	754.01630091924
7	731	1173.384873001118	754.62051732149
7	734	1178.195307996885	754.6850873913
7	741	1189.6768424473	762.99311689887
7	742	1189.891948674237	757.4879893169
7	743	1191.200322328727	756.85058822764
7	744	1193.12022252928	747.01248424815
7	1230	2091.191797834508	1642.7147022213
7	1256	2132.754464515433	1678.3625721222
7	1265	2147.280394374279	1686.2886901761
7	1266	2151.96131970006	1690.4225738622
7	1271	2160.262037897555	1697.1051017877
7	1272	2160.663526771441	1696.4802637255
7	1273	2161.251789488055	1696.9414596634
7	1274	2162.023387514683	1696.4539943049
7	1275	2163.56774667851	1687.6798366961
7	1276	2163.610304177587	1686.1411032647
7	1282	2186.089768719289	1706.0108111326
7	1291	2197.313481578901	1716.3426626995
7	1292	2200.07115525057	1713.0934682656
7	1295	2204.449986951206	1717.2305015617
7	1302	2216.361708660083	1728.2574647222
7	1303	2217.95212150789	1727.6407638837
7	1304	2223.988797522697	1726.8510591213
7	1305	2224.251547853712	1724.767622426
7	1308	2229.085058874891	1718.3738472644
7	1309	2233.493582316728	1720.6842723786
7	1314	2242.707771319292	1725.3417167231
7	1325	2257.021839164617	1737.6305363466
7	1332	2262.557867801648	1740.9779176564
7	1333	2262.585723993364	1730.355680689
7	1338	2268.153496663261	1735.5207947889
7	1343	2273.985055532995	1727.041598128
7	1346	2281.723093803412	1733.8246514394
7	1359	2293.135372705913	1742.9144317323
7	1362	2301.16444112008	1749.9589288086
7	1375	2329.598604570733	1774.4741805811
7	1376	2329.800063764882	1771.9690455371
7	1385	2335.262061537044	1771.266129319
7	1388	2335.655103669624	1760.4533562155
7	1395	2343.937637485622	1765.0885447782
7	1406	2353.081635220669	1772.7182988622
7	1407	2353.964059287316	1763.9702841649
7	1412	2363.582241177544	1768.3791444876
7	1413	2365.052132153238	1769.0220384006
7	1416	2375.157312760517	1767.8862087707
7	1417	2378.63201373953	1763.3382089665
7	1418	2379.488361785576	1759.9511740315
7	1425	2392.636200432631	1764.1000477875
7	1430	2404.096186999854	1775.0189702689
7	1431	2407.590858005227	1778.3588999543
7	1432	2409.60993380992	1775.5678635121
7	1433	2410.698098804989	1775.9181425193
7	1436	2412.6173212535	1772.9453431533
7	1437	2418.21494343567	1777.4954762153
7	1448	2441.796463763299	1795.1008876907
7	1449	2443.706702897542	1796.6575473404
7	1454	2447.013456995768	1793.8249146309
7	1457	2453.346665097714	1798.9515373094
7	1464	2465.843574449892	1809.6904528723
7	1471	2488.095539567881	1825.3194758943
7	1474	2489.331534940454	1824.5933958405
7	1477	2490.12055487236	1824.1316888968
8	248	409.940519633295	21
8	251	411.322152042051	22
8	260	421.548614605002	23
8	270	436.674274457459	24
8	271	437.54135212966	25
8	272	444.795271775498	26
8	277	449.236992312487	27
8	278	449.79632626258	28
8	279	451.315190899942	29
8	280	454.252439524114	30
8	304	481.247881258779	31
8	449	680.18911115714	32
8	452	680.743617576119	33
8	455	688.67861243091	34
8	458	706.326229636437	35
8	459	706.955635931328	36
8	460	707.177628690763	37
8	463	708.624239173924	38
8	464	708.79742337416	39
8	467	711.170853721365	40
8	468	714.973498366923	41
8	469	719.117803186986	42
8	472	719.256995503425	43
8	477	725.272404696281	44
8	478	727.331055710515	45
8	483	732.674204907007	46
8	497	756.670304999765	47
8	500	758.234825887743	48
8	501	759.728733989939	49
8	502	761.939224559374	50
8	518	785.619220960658	51
8	531	800.322181209579	52
8	532	804.092194103485	53
8	535	805.50673667801	54
8	540	814.077549364795	55
8	541	816.355724656707	56
8	542	821.680041370773	57
8	545	827.224217190096	58
8	548	830.654365588435	59
8	549	830.939500670254	60
8	627	970.901145741117	61
8	628	971.185680957425	62
8	640	981.893533343516	63
8	656	1023.339457484759	64
8	657	1023.986824675787	65
8	697	1086.05422051033	66
8	698	1087.495202584855	67
8	701	1091.03587798197	68
8	713	1123.461599332268	69
8	714	1128.757793356268	70
8	715	1129.182382179071	71
8	718	1133.016340614845	72
8	719	1135.22445204255	73
8	720	1136.123235609591	74
8	721	1142.729442066881	75
8	722	1143.011413714143	76
8	730	1172.756825323846	77
8	731	1173.384873001118	78
8	734	1178.195307996885	79
8	741	1189.6768424473	80
8	742	1189.891948674237	81
8	743	1191.200322328727	82
8	744	1193.12022252928	83
8	1265	2147.280394374279	84
8	1266	2151.96131970006	85
8	1272	2160.663526771441	86
8	1273	2161.251789488055	87
8	1274	2162.023387514683	88
8	1275	2163.56774667851	89
8	1276	2163.610304177587	90
8	1291	2197.313481578901	91
8	1292	2200.07115525057	92
8	1295	2204.449986951206	93
8	1303	2217.95212150789	94
8	1304	2223.988797522697	95
8	1305	2224.251547853712	96
8	1308	2229.085058874891	97
8	1309	2233.493582316728	98
8	1314	2242.707771319292	99
8	1332	2262.557867801648	100
8	1333	2262.585723993364	101
8	1338	2268.153496663261	102
8	1343	2273.985055532995	103
8	1346	2281.723093803412	104
8	1359	2293.135372705913	105
8	1362	2301.16444112008	106
8	1376	2329.800063764882	107
8	1385	2335.262061537044	108
8	1388	2335.655103669624	109
8	1395	2343.937637485622	110
8	1407	2353.964059287316	111
8	1412	2363.582241177544	112
8	1413	2365.052132153238	113
8	1417	2378.63201373953	114
8	1418	2379.488361785576	115
8	1425	2392.636200432631	116
8	1430	2404.096186999854	117
8	1431	2407.590858005227	118
8	1432	2409.60993380992	119
8	1433	2410.698098804989	120
8	1436	2412.6173212535	121
8	1437	2418.21494343567	122
8	1449	2443.706702897542	123
8	1454	2447.013456995768	124
8	1464	2465.843574449892	125
8	1474	2489.331534940454	126
8	1477	2490.12055487236	127
9	248	409.940519633295	254.72616735162
9	251	411.322152042051	253.41630285666
9	260	421.548614605002	261.94671401637
9	270	436.674274457459	275.53918242979
9	271	437.54135212966	273.81749698694
9	272	444.795271775498	277.89189877044
9	277	449.236992312487	277.30446888582
9	278	449.79632626258	276.649098276
9	279	451.315190899942	273.78545721742
9	280	454.252439524114	268.86201451229
9	304	481.247881258779	282.40569316126
9	449	680.18911115714	476.2313911293
9	452	680.743617576119	471.84472571689
9	455	688.67861243091	478.84971943991
9	458	706.326229636437	494.18819799412
9	459	706.955635931328	484.10596259631
9	460	707.177628690763	483.40607679366
9	463	708.624239173924	478.36588668135
9	464	708.79742337416	471.70031310608
9	467	711.170853721365	470.62301213676
9	468	714.973498366923	471.90958271081
9	469	719.117803186986	473.87523300833
9	472	719.256995503425	468.6125197309
9	477	725.272404696281	472.77092654673
9	478	727.331055710515	472.91122398901
9	483	732.674204907007	475.80506938374
9	497	756.670304999765	494.05555536079
9	500	758.234825887743	495.36938327904
9	501	759.728733989939	494.21936002026
9	502	761.939224559374	493.24328782362
9	518	785.619220960658	511.35138862718
9	531	800.322181209579	520.01032798176
9	532	804.092194103485	519.62246374608
9	535	805.50673667801	515.00157967583
9	540	814.077549364795	521.84317478369
9	541	816.355724656707	516.46008472275
9	542	821.680041370773	520.42971933403
9	545	827.224217190096	524.3647293422
9	548	830.654365588435	526.67178039206
9	549	830.939500670254	522.81526235377
9	627	970.901145741117	651.08882130172
9	628	971.185680957425	650.28253000839
9	640	981.893533343516	652.77815031528
9	656	1023.339457484759	690.43715074435
9	657	1023.986824675787	682.89762425563
9	697	1086.05422051033	735.41138188883
9	698	1087.495202584855	728.51150029312
9	701	1091.03587798197	729.81251454493
9	713	1123.461599332268	748.01866777972
9	714	1128.757793356268	744.13428332954
9	715	1129.182382179071	735.77893987009
9	718	1133.016340614845	734.99912459281
9	719	1135.22445204255	734.3393539729
9	720	1136.123235609591	734.80155474097
9	721	1142.729442066881	740.9962708345
9	722	1143.011413714143	732.01644441145
9	730	1172.756825323846	759.91076157703
9	731	1173.384873001118	754.64434859651
9	734	1178.195307996885	759.43095231725
9	741	1189.6768424473	766.16662184171
9	742	1189.891948674237	763.20822312581
9	743	1191.200322328727	758.79636297139
9	744	1193.12022252928	758.7704884282
9	1265	2147.280394374279	1692.888501981
9	1266	2151.96131970006	1690.9696155019
9	1272	2160.663526771441	1697.5065906616
9	1273	2161.251789488055	1697.0685264421
9	1274	2162.023387514683	1697.7130576901
9	1275	2163.56774667851	1697.9983534687
9	1276	2163.610304177587	1687.7223941952
9	1291	2197.313481578901	1717.2345239922
9	1292	2200.07115525057	1719.1003363712
9	1295	2204.449986951206	1717.4722999662
9	1303	2217.95212150789	1729.84787757
9	1304	2223.988797522697	1733.6774398985
9	1305	2224.251547853712	1727.1138094523
9	1308	2229.085058874891	1729.6011334471
9	1309	2233.493582316728	1722.7823707062
9	1314	2242.707771319292	1729.8984613812
9	1332	2262.557867801648	1743.1665649837
9	1333	2262.585723993364	1741.0057738481
9	1338	2268.153496663261	1735.9234533589
9	1343	2273.985055532995	1741.3523536586
9	1346	2281.723093803412	1734.7796363984
9	1359	2293.135372705913	1745.2369303419
9	1362	2301.16444112008	1750.9435001465
9	1376	2329.800063764882	1774.6756397752
9	1385	2335.262061537044	1777.4310433093
9	1388	2335.655103669624	1771.6591714516
9	1395	2343.937637485622	1768.7358900315
9	1407	2353.964059287316	1773.6007229289
9	1412	2363.582241177544	1773.5884660552
9	1413	2365.052132153238	1769.8490354633
9	1417	2378.63201373953	1771.3609097497
9	1418	2379.488361785576	1764.1945570125
9	1425	2392.636200432631	1773.0990126785
9	1430	2404.096186999854	1775.5600343547
9	1431	2407.590858005227	1778.5136412743
9	1432	2409.60993380992	1780.377975759
9	1433	2410.698098804989	1776.6560285072
9	1436	2412.6173212535	1777.8373649678
9	1437	2418.21494343567	1778.5429653355
9	1449	2443.706702897542	1797.0111268249
9	1454	2447.013456995768	1799.9643014386
9	1464	2465.843574449892	1811.4484466616
9	1474	2489.331534940454	1826.5554712669
9	1477	2490.12055487236	1825.3824157724
10	262	423.510220605586	8
10	292	464.310329824607	9
10	312	490.311357624162	10
10	485	733.174320689637	11
10	506	765.857088538859	12
10	551	831.36383180455	13
10	630	971.342649776712	14
10	642	983.072545625181	15
10	659	1025.81114179477	16
10	709	1109.798972014767	17
10	724	1149.457133924026	18
10	750	1196.526696454582	19
10	1234	2096.782173260599	20
10	1268	2154.144294006872	21
10	1278	2167.364661838233	22
10	1297	2206.891406240519	23
10	1320	2247.512079356014	24
10	1366	2306.924212961346	25
10	1401	2348.186366084548	26
10	1415	2370.15674638938	27
10	1441	2425.111267728735	28
10	1456	2451.626198357569	29
10	1466	2469.476608553846	30
10	1479	2490.238705866935	31
11	1488	2500	0.0508
12	1488	2500	0.0464

