file 96666 1677780552                                           
version 2
run factors_calibration_range_test-18-20230302-19:09:12-11780
attr configname factors_calibration_range_test
attr datetime 20230302-19:09:12
attr experiment factors_calibration_range_test
attr inifile omnetpp.ini
attr iterationvars "$0=5, $1=1"
attr iterationvarsf 5,1-
attr measurement "$0=5, $1=1"
attr network Network
attr processid 11780
attr repetition 18
attr replication #18
attr resultdir results
attr runnumber 18
attr seedset 18
param *.boss.arrival_mean 20
param *.boss.service_mean 5
param *.minion.arrival_mean 5
param *.minion.service_mean 1
param **.minion.arrival_distribution 0
param **.minion.service_distribution 0
param **.boss.arrival_distribution 0
param **.boss.service_distribution 0

vector 0 Network.player minion_jobs_number_stat:vector ETV
attr source signal_minion_jobs_number
vector 1 Network.player minion_jobs_queue_number_stat:vector ETV
attr source signal_minion_jobs_queue_number
vector 2 Network.player minion_waiting_time_stat:vector ETV
attr source signal_minion_waiting_time
vector 3 Network.player minion_defeated_stat:vector ETV
attr source signal_minion_defeated
vector 4 Network.player minion_response_time_stat:vector ETV
attr source signal_minion_response_time
vector 5 Network.player boss_jobs_number_stat:vector ETV
attr source signal_boss_jobs_number
vector 6 Network.player boss_jobs_queue_number_stat:vector ETV
attr source signal_boss_jobs_queue_number
vector 7 Network.player minion_recovered_stat:vector ETV
attr source signal_minion_recovered
vector 8 Network.player boss_waiting_time_stat:vector ETV
attr source signal_boss_waiting_time
vector 9 Network.player boss_defeated_stat:vector ETV
attr source signal_boss_defeated
vector 10 Network.player boss_response_time_stat:vector ETV
attr source signal_boss_response_time
vector 11 Network.player minion_throughput:vector ETV
attr source signal_minion_throughput
vector 12 Network.player boss_throughput:vector ETV
attr source signal_boss_throughput
0	1965 11219 269 1859 350.438370970454 2499.779611681098 430 1 12 839 3067
1	13184 22341 269 1859 350.438370970454 2499.779611681098 856 0 11 812 3624
2	35525 14266 269 1847 350.438370970454 2488.939380441052 442 0 51.511779050888 1784.019086008 45714.365052744
3	49791 11949 272 1845 352.426718524097 2488.206273349294 426 74 499 122049 41409401
4	61740 16664 272 1845 352.426718524097 2488.206273349294 426 0.000594993144 52.687080221706 2171.7816372049 50432.156186833
5	78404 2682 274 1855 352.65760743913 2494.636027121347 103 1 4 155 301
6	81086 5292 274 1855 352.65760743913 2494.636027121347 203 0 3 101 183
7	86378 431 274 1851 352.65760743913 2490.238705866935 16 6 21 216 3256
8	86809 3064 274 1851 352.65760743913 2490.238705866935 101 0 20.370078282327 248.12652259371 2900.026486181
9	89873 2727 275 1839 355.000652629063 2475.682918891858 100 17 116 6650 525550
10	92600 4025 275 1839 355.000652629063 2475.682918891858 100 0.057807790893 40.464292829658 782.53397120074 11899.341390323
11	96625 20 1860 1860 2500 2500 1 0.1996 0.1996 0.1996 0.03984016
12	96645 20 1860 1860 2500 2500 1 0.0464 0.0464 0.0464 0.00215296

