version 2
run factors_calibration_range_test-191-20230302-19:09:29-12666
attr configname factors_calibration_range_test
attr datetime 20230302-19:09:29
attr experiment factors_calibration_range_test
attr inifile omnetpp.ini
attr iterationvars "$0=20, $1=1"
attr iterationvarsf 20,1-
attr measurement "$0=20, $1=1"
attr network Network
attr processid 12666
attr repetition 11
attr replication #11
attr resultdir results
attr runnumber 191
attr seedset 11
param *.boss.arrival_mean 20
param *.boss.service_mean 20
param *.minion.arrival_mean 5
param *.minion.service_mean 1
param **.minion.arrival_distribution 0
param **.minion.service_distribution 0
param **.boss.arrival_distribution 0
param **.boss.service_distribution 0

scalar Network.player boss_throughput:mean 0.0464
attr source signal_boss_throughput
scalar Network.player boss_throughput:last 0.0464
attr source signal_boss_throughput
scalar Network.player boss_defeated_stat:count 107
attr source signal_boss_defeated
scalar Network.player boss_defeated_stat:mean 63
attr source signal_boss_defeated
scalar Network.player boss_waiting_time_stat:mean 167.09379809801
attr source signal_boss_waiting_time
scalar Network.player boss_response_time_stat:mean 183.69956892302
attr source signal_boss_response_time
scalar Network.player minion_throughput:mean 0.0092
attr source signal_minion_throughput
scalar Network.player minion_throughput:last 0.0092
attr source signal_minion_throughput
scalar Network.player minion_recovered_stat:count 1
attr source signal_minion_recovered
scalar Network.player minion_recovered_stat:mean 3
attr source signal_minion_recovered
scalar Network.player minion_defeated_stat:count 13
attr source signal_minion_defeated
scalar Network.player minion_defeated_stat:mean 17
attr source signal_minion_defeated
scalar Network.player minion_waiting_time_stat:mean 611.98086782399
attr source signal_minion_waiting_time
scalar Network.player minion_response_time_stat:mean 615.36048139725
attr source signal_minion_response_time

