version 2
run factors_calibration_range_test-170-20230302-19:09:27-12559
attr configname factors_calibration_range_test
attr datetime 20230302-19:09:27
attr experiment factors_calibration_range_test
attr inifile omnetpp.ini
attr iterationvars "$0=15, $1=5"
attr iterationvarsf 15,5-
attr measurement "$0=15, $1=5"
attr network Network
attr processid 12559
attr repetition 10
attr replication #10
attr resultdir results
attr runnumber 170
attr seedset 10
param *.boss.arrival_mean 20
param *.boss.service_mean 15
param *.minion.arrival_mean 5
param *.minion.service_mean 5
param **.minion.arrival_distribution 0
param **.minion.service_distribution 0
param **.boss.arrival_distribution 0
param **.boss.service_distribution 0

vector 0 Network.player boss_defeated_stat:vector ETV
attr source signal_boss_defeated
vector 1 Network.player boss_jobs_queue_number_stat:vector ETV
attr source signal_boss_jobs_queue_number
vector 2 Network.player boss_response_time_stat:vector ETV
attr source signal_boss_response_time
vector 3 Network.player boss_waiting_time_stat:vector ETV
attr source signal_boss_waiting_time
vector 4 Network.player minion_jobs_number_stat:vector ETV
attr source signal_minion_jobs_number
vector 5 Network.player minion_jobs_queue_number_stat:vector ETV
attr source signal_minion_jobs_queue_number
vector 6 Network.player minion_waiting_time_stat:vector ETV
attr source signal_minion_waiting_time
vector 7 Network.player minion_defeated_stat:vector ETV
attr source signal_minion_defeated
vector 8 Network.player minion_response_time_stat:vector ETV
attr source signal_minion_response_time
vector 9 Network.player boss_jobs_number_stat:vector ETV
attr source signal_boss_jobs_number
vector 10 Network.player minion_recovered_stat:vector ETV
attr source signal_minion_recovered
vector 11 Network.player minion_throughput:vector ETV
attr source signal_minion_throughput
vector 12 Network.player boss_throughput:vector ETV
attr source signal_boss_throughput
0	243	352.503297064277	20
0	246	360.039960253551	21
0	247	362.431364265433	22
0	314	444.120182295748	23
0	318	445.597137617827	24
0	344	485.55938898934	25
0	376	546.41690712183	26
0	377	547.295411797022	27
0	404	593.725893728901	28
0	425	623.947411359465	29
0	445	655.023685116957	30
0	446	658.770406877705	31
0	468	681.859407054731	32
0	469	689.647049157179	33
0	477	705.340072603115	34
0	486	712.873834674021	35
0	489	715.648584102399	36
0	494	719.823737792145	37
0	501	727.888181892382	38
0	520	755.682306732324	39
0	525	771.559009474184	40
0	542	799.910097309194	41
0	547	814.446439046108	42
0	578	867.795843899344	43
0	585	875.552776628585	44
0	590	882.853967603227	45
0	609	913.898228732361	46
0	634	960.244959217846	47
0	641	972.392358730974	48
0	642	981.244676434609	49
0	655	989.647835971082	50
0	660	1006.265264986099	51
0	663	1008.522242886187	52
0	664	1009.813784213528	53
0	669	1013.738918016907	54
0	682	1047.848676059311	55
0	685	1051.142446131571	56
0	700	1065.760093397345	57
0	715	1097.05737848768	58
0	716	1101.620747156754	59
0	723	1119.352899596724	60
0	730	1132.077296428187	61
0	761	1163.007349037157	62
0	774	1174.760075955074	63
0	775	1183.587056783246	64
0	786	1193.269460768824	65
0	801	1219.394100838477	66
0	820	1246.782733749522	67
0	853	1291.287017347814	68
0	897	1413.427376595395	69
0	904	1421.007343721297	70
0	931	1456.905293004506	71
0	954	1488.013485871514	72
0	979	1524.158204164696	73
0	1010	1573.783831872816	74
0	1019	1584.958515036007	75
0	1026	1608.738208136126	76
0	1027	1610.38574836738	77
0	1028	1612.276889480671	78
0	1029	1615.270393252832	79
0	1048	1656.872442582372	80
0	1077	1702.749400398216	81
0	1078	1705.248339097337	82
0	1083	1713.212564737029	83
0	1100	1722.819144144161	84
0	1115	1752.858254153506	85
0	1130	1766.943889833044	86
0	1139	1783.67312457433	87
0	1144	1788.281468733796	88
0	1147	1803.146108882999	89
0	1162	1841.407084429854	90
0	1163	1846.242404030489	91
0	1178	1886.628413273001	92
0	1195	1920.687047597508	93
0	1196	1922.859343165439	94
0	1199	1926.336269304101	95
0	1218	1950.820020852444	96
0	1231	1958.592942480876	97
0	1246	1995.902996484446	98
0	1289	2071.610525169631	99
0	1302	2083.013742276542	100
0	1311	2102.975336166792	101
0	1320	2108.496934555547	102
0	1329	2117.330401989934	103
0	1332	2131.257219538045	104
0	1335	2143.594552940142	105
0	1350	2166.037339105253	106
0	1357	2173.983783490108	107
0	1366	2180.979623467274	108
0	1377	2200.453215930063	109
0	1382	2212.94713820296	110
0	1387	2220.589458192733	111
0	1388	2221.37023260886	112
0	1393	2238.006772004286	113
0	1396	2246.611642694481	114
0	1407	2264.908887672854	115
0	1418	2287.341500262245	116
0	1425	2301.448710117791	117
0	1426	2301.454135527806	118
0	1437	2313.103191173235	119
0	1464	2351.959109783402	120
0	1469	2355.420733321171	121
0	1491	2388.280962933706	122
0	1492	2391.612402055502	123
0	1515	2425.769695310969	124
0	1524	2449.595035467703	125
0	1531	2460.50827654165	126
0	1532	2465.652663323119	127
1	243	352.503297064277	2
1	246	360.039960253551	1
1	247	362.431364265433	0
1	297	419.824288542282	0
1	314	444.120182295748	0
1	317	445.426883461239	0
1	318	445.597137617827	0
1	339	481.155473799364	0
1	344	485.55938898934	0
1	363	536.946986058516	0
1	371	541.720738592907	1
1	373	541.736319955185	2
1	375	545.749899725905	3
1	376	546.41690712183	3
1	377	547.295411797022	2
1	404	593.725893728901	1
1	425	623.947411359465	0
1	432	642.852204457678	0
1	438	646.904432915695	1
1	445	655.023685116957	1
1	446	658.770406877705	0
1	457	666.123998518003	0
1	463	673.379073049835	1
1	468	681.859407054731	1
1	469	689.647049157179	0
1	474	692.296201596188	0
1	477	705.340072603115	0
1	479	707.174758416955	0
1	481	707.316586279335	1
1	486	712.873834674021	1
1	489	715.648584102399	0
1	491	718.627327699064	0
1	493	719.093978241006	1
1	494	719.823737792145	1
1	498	725.978438086876	1
1	501	727.888181892382	1
1	505	740.857761909457	1
1	520	755.682306732324	1
1	522	759.785179545867	1
1	524	769.99705848	2
1	525	771.559009474184	2
1	527	773.001749095169	2
1	529	773.957541426202	3
1	531	780.867851638882	4
1	542	799.910097309194	4
1	547	814.446439046108	3
1	569	853.673845421965	3
1	573	862.799389841877	4
1	578	867.795843899344	4
1	582	868.098797839271	4
1	585	875.552776628585	4
1	587	880.277491819915	4
1	589	882.177038103687	5
1	590	882.853967603227	5
1	608	912.935758198835	5
1	609	913.898228732361	5
1	617	932.202672012874	5
1	621	936.657389288969	6
1	627	946.297682443241	7
1	634	960.244959217846	7
1	636	960.738265453186	7
1	641	972.392358730974	7
1	642	981.244676434609	6
1	655	989.647835971082	5
1	660	1006.265264986099	4
1	663	1008.522242886187	3
1	664	1009.813784213528	2
1	669	1013.738918016907	1
1	679	1042.502595974247	1
1	682	1047.848676059311	1
1	685	1051.142446131571	0
1	697	1060.452690583967	0
1	700	1065.760093397345	0
1	706	1073.028472791389	0
1	708	1073.979749661901	1
1	715	1097.05737848768	1
1	716	1101.620747156754	0
1	722	1113.293494763991	0
1	723	1119.352899596724	0
1	729	1132.000155132253	0
1	730	1132.077296428187	0
1	748	1154.808071207918	0
1	756	1158.547296278815	1
1	761	1163.007349037157	1
1	769	1170.522199205898	1
1	771	1171.867477851254	2
1	773	1172.13455232041	3
1	774	1174.760075955074	3
1	775	1183.587056783246	2
1	786	1193.269460768824	1
1	801	1219.394100838477	0
1	811	1231.608305717097	0
1	820	1246.782733749522	0
1	852	1288.624242739881	0
1	853	1291.287017347814	0
1	882	1356.036850805122	0
1	884	1372.606487445524	1
1	894	1405.653119015198	2
1	897	1413.427376595395	2
1	899	1415.389328740932	2
1	904	1421.007343721297	2
1	908	1422.655085990457	2
1	910	1422.976987813847	3
1	914	1425.03253417898	4
1	916	1430.283059070374	5
1	930	1453.338074498799	6
1	931	1456.905293004506	6
1	933	1458.853815662555	6
1	945	1470.455632448849	7
1	954	1488.013485871514	7
1	962	1493.449335598144	7
1	964	1496.052380205525	8
1	974	1514.884379549808	9
1	979	1524.158204164696	9
1	981	1528.555324124831	9
1	999	1564.373909976404	10
1	1001	1565.073784446035	11
1	1003	1568.88161662372	12
1	1010	1573.783831872816	12
1	1019	1584.958515036007	11
1	1026	1608.738208136126	10
1	1027	1610.38574836738	9
1	1028	1612.276889480671	8
1	1029	1615.270393252832	7
1	1031	1616.890074396541	7
1	1037	1626.810805176556	8
1	1039	1632.799960695581	9
1	1041	1636.823592669957	10
1	1048	1656.872442582372	10
1	1050	1658.548708404319	10
1	1068	1686.708174305305	11
1	1074	1694.179105853179	12
1	1077	1702.749400398216	12
1	1078	1705.248339097337	11
1	1080	1705.252233173425	11
1	1083	1713.212564737029	11
1	1097	1719.93445107556	11
1	1100	1722.819144144161	11
1	1102	1724.59685573388	11
1	1110	1740.42133159935	12
1	1115	1752.858254153506	12
1	1119	1757.194056480443	12
1	1123	1761.281828584842	13
1	1129	1761.918109262225	14
1	1130	1766.943889833044	14
1	1139	1783.67312457433	13
1	1144	1788.281468733796	12
1	1147	1803.146108882999	11
1	1159	1831.77425238343	11
1	1162	1841.407084429854	11
1	1163	1846.242404030489	10
1	1169	1868.713537013691	10
1	1178	1886.628413273001	10
1	1184	1898.558444776125	10
1	1190	1910.506246022932	11
1	1195	1920.687047597508	11
1	1196	1922.859343165439	10
1	1199	1926.336269304101	9
1	1218	1950.820020852444	8
1	1231	1958.592942480876	7
1	1233	1966.608133512492	7
1	1241	1976.663636876505	8
1	1246	1995.902996484446	8
1	1268	2021.706676798273	8
1	1289	2071.610525169631	8
1	1295	2073.959348802285	8
1	1302	2083.013742276542	8
1	1308	2092.180436930985	8
1	1311	2102.975336166792	8
1	1320	2108.496934555547	7
1	1329	2117.330401989934	6
1	1331	2118.166042985004	6
1	1332	2131.257219538045	6
1	1335	2143.594552940142	5
1	1350	2166.037339105253	4
1	1354	2169.154750841632	4
1	1357	2173.983783490108	4
1	1361	2177.061307273094	4
1	1365	2178.914416394662	5
1	1366	2180.979623467274	5
1	1374	2195.814478513715	5
1	1376	2200.177172437229	6
1	1377	2200.453215930063	6
1	1382	2212.94713820296	5
1	1384	2214.891347264506	5
1	1386	2215.816986545285	6
1	1387	2220.589458192733	6
1	1388	2221.37023260886	5
1	1393	2238.006772004286	4
1	1396	2246.611642694481	3
1	1407	2264.908887672854	2
1	1415	2280.78927417951	2
1	1418	2287.341500262245	2
1	1420	2288.659915777357	2
1	1425	2301.448710117791	2
1	1426	2301.454135527806	1
1	1437	2313.103191173235	0
1	1449	2325.886460952761	0
1	1455	2335.729066720743	1
1	1464	2351.959109783402	1
1	1469	2355.420733321171	0
1	1480	2363.241703758442	0
1	1482	2369.572912620892	1
1	1490	2385.090107213244	2
1	1491	2388.280962933706	2
1	1492	2391.612402055502	1
1	1510	2420.381264551342	1
1	1515	2425.769695310969	1
1	1519	2438.055371942036	1
1	1523	2446.879911890008	2
1	1524	2449.595035467703	2
1	1531	2460.50827654165	1
1	1532	2465.652663323119	0
2	243	352.503297064277	4.327444854071
2	246	360.039960253551	11.448121792101
2	247	362.431364265433	12.67822180561
2	314	444.120182295748	24.295893753466
2	318	445.597137617827	0.170254156588
2	344	485.55938898934	4.403915189976
2	376	546.41690712183	9.469921063314
2	377	547.295411797022	5.574673204115
2	404	593.725893728901	51.989573773716
2	425	623.947411359465	78.19751163356
2	445	655.023685116957	12.171480659279
2	446	658.770406877705	11.86597396201
2	468	681.859407054731	15.735408536728
2	469	689.647049157179	16.267976107344
2	477	705.340072603115	13.043871006927
2	486	712.873834674021	5.699076257066
2	489	715.648584102399	8.331997823064
2	494	719.823737792145	1.196410093081
2	501	727.888181892382	8.794203651376
2	520	755.682306732324	29.703868645448
2	525	771.559009474184	30.701247564727
2	542	799.910097309194	40.124917763327
2	547	814.446439046108	44.449380566108
2	578	867.795843899344	94.794094804175
2	585	875.552776628585	101.59523520238
2	590	882.853967603227	101.98611596435
2	609	913.898228732361	60.224383310396
2	634	960.244959217846	97.445569375969
2	641	972.392358730974	104.2935608917
2	642	981.244676434609	100.96718461469
2	655	989.647835971082	107.47079786739
2	660	1006.265264986099	93.329506787264
2	663	1008.522242886187	76.319570873313
2	664	1009.813784213528	73.156394924559
2	669	1013.738918016907	67.441235573666
2	682	1047.848676059311	87.110410606125
2	685	1051.142446131571	8.639850157324
2	700	1065.760093397345	5.307402813378
2	715	1097.05737848768	24.028905696291
2	716	1101.620747156754	27.640997494853
2	723	1119.352899596724	6.059404832733
2	730	1132.077296428187	0.077141295934
2	761	1163.007349037157	8.199277829239
2	774	1174.760075955074	16.212779676259
2	775	1183.587056783246	13.064857577348
2	786	1193.269460768824	21.40198291757
2	801	1219.394100838477	47.259548518067
2	820	1246.782733749522	15.174428032425
2	853	1291.287017347814	2.662774607933
2	897	1413.427376595395	57.390525790273
2	904	1421.007343721297	48.400856275773
2	931	1456.905293004506	51.252173989308
2	954	1488.013485871514	72.624157130582
2	979	1524.158204164696	101.50311817424
2	1010	1573.783831872816	150.80684405897
2	1019	1584.958515036007	159.92598085703
2	1026	1608.738208136126	178.45514906575
2	1027	1610.38574836738	157.04767386858
2	1028	1612.276889480671	153.42307381812
2	1029	1615.270393252832	144.81476080398
2	1048	1656.872442582372	163.42310698423
2	1077	1702.749400398216	206.69702019269
2	1078	1705.248339097337	190.36395954753
2	1083	1713.212564737029	184.6572406122
2	1100	1722.819144144161	158.44523416776
2	1115	1752.858254153506	187.78446970747
2	1130	1766.943889833044	198.06227320932
2	1139	1783.67312457433	166.78305017779
2	1144	1788.281468733796	161.47066355724
2	1147	1803.146108882999	170.34614818742
2	1162	1841.407084429854	204.5834917599
2	1163	1846.242404030489	187.69369562617
2	1178	1886.628413273001	199.9202389677
2	1195	1920.687047597508	226.50794174433
2	1196	1922.859343165439	217.60710999201
2	1199	1926.336269304101	206.40181822854
2	1218	1950.820020852444	226.22316511856
2	1231	1958.592942480876	218.17161088153
2	1246	1995.902996484446	238.708940004
2	1289	2071.610525169631	310.32869658479
2	1302	2083.013742276542	321.09563301432
2	1311	2102.975336166792	271.20108378336
2	1320	2108.496934555547	239.78339754186
2	1329	2117.330401989934	218.77195721381
2	1332	2131.257219538045	220.75097351511
2	1335	2143.594552940142	176.98641942765
2	1350	2166.037339105253	189.37370222875
2	1357	2173.983783490108	152.27710669184
2	1366	2180.979623467274	107.02027466499
2	1377	2200.453215930063	108.27277899908
2	1382	2212.94713820296	94.781095217956
2	1387	2220.589458192733	51.434707351101
2	1388	2221.37023260886	44.308925335766
2	1393	2238.006772004286	59.092355609624
2	1396	2246.611642694481	50.797164180766
2	1407	2264.908887672854	64.731715235625
2	1418	2287.341500262245	72.450152997739
2	1425	2301.448710117791	85.631723572506
2	1426	2301.454135527806	20.664861348296
2	1437	2313.103191173235	24.443275395878
2	1464	2351.959109783402	26.072648830641
2	1469	2355.420733321171	19.691666600428
2	1491	2388.280962933706	25.039259175264
2	1492	2391.612402055502	22.03948943461
2	1515	2425.769695310969	40.679588097725
2	1524	2449.595035467703	29.213770916361
2	1531	2460.50827654165	22.452904599614
2	1532	2465.652663323119	18.772751433111
3	243	352.503297064277	3.911458602827
3	246	360.039960253551	10.286817793728
3	297	419.824288542282	0
3	317	445.426883461239	0
3	339	481.155473799364	0
3	363	536.946986058516	0
3	376	546.41690712183	4.696168528923
3	377	547.295411797022	5.559091841837
3	404	593.725893728901	47.975994002996
3	432	642.852204457678	0
3	445	655.023685116957	8.119252201262
3	457	666.123998518003	0
3	468	681.859407054731	8.480334004896
3	474	692.296201596188	0
3	479	707.174758416955	0
3	486	712.873834674021	5.557248394686
3	491	718.627327699064	0
3	494	719.823737792145	0.729759551139
3	501	727.888181892382	1.909743805506
3	520	755.682306732324	14.824544822867
3	525	771.559009474184	11.773829928317
3	542	799.910097309194	29.913038829194
3	547	814.446439046108	41.444689950939
3	578	867.795843899344	93.838302473142
3	585	875.552776628585	94.684924989703
3	590	882.853967603227	29.180122181262
3	609	913.898228732361	51.098838890484
3	634	960.244959217846	92.146161378575
3	641	972.392358730974	92.114866911059
3	642	981.244676434609	99.067638330922
3	655	989.647835971082	76.712077772247
3	660	1006.265264986099	74.062592973225
3	663	1008.522242886187	71.864853597218
3	664	1009.813784213528	63.516101770287
3	669	1013.738918016907	53.000652563721
3	682	1047.848676059311	5.346080085064
3	697	1060.452690583967	0
3	706	1073.028472791389	0
3	715	1097.05737848768	23.077628825779
3	722	1113.293494763991	0
3	729	1132.000155132253	0
3	748	1154.808071207918	0
3	761	1163.007349037157	4.460052758342
3	774	1174.760075955074	4.237876749176
3	775	1183.587056783246	11.719578931992
3	786	1193.269460768824	21.134908448414
3	811	1231.608305717097	0
3	852	1288.624242739881	0
3	882	1356.036850805122	0
3	897	1413.427376595395	40.820889149871
3	904	1421.007343721297	15.354224706099
3	931	1456.905293004506	41.515964263574
3	954	1488.013485871514	65.358399881057
3	979	1524.158204164696	101.18121635085
3	1010	1573.783831872816	148.75129769384
3	1019	1584.958515036007	154.67545596563
3	1026	1608.738208136126	155.40013363733
3	1027	1610.38574836738	151.53193270483
3	1028	1612.276889480671	141.82125703182
3	1029	1615.270393252832	121.82105765469
3	1048	1656.872442582372	160.82006237685
3	1077	1702.749400398216	187.86502084841
3	1078	1705.248339097337	176.69301497251
3	1083	1713.212564737029	148.83865476062
3	1100	1722.819144144161	157.74535969813
3	1115	1752.858254153506	183.97663752979
3	1130	1766.943889833044	150.0538154365
3	1139	1783.67312457433	156.86231939777
3	1144	1788.281468733796	155.48150803821
3	1147	1803.146108882999	166.32251621304
3	1162	1841.407084429854	182.85837602553
3	1163	1846.242404030489	159.53422972518
3	1178	1886.628413273001	192.44930741982
3	1195	1920.687047597508	215.43481442408
3	1196	1922.859343165439	202.92489208988
3	1199	1926.336269304101	201.73941357022
3	1218	1950.820020852444	210.39868925309
3	1231	1958.592942480876	201.39888600043
3	1246	1995.902996484446	234.6211678996
3	1289	2071.610525169631	309.69241590741
3	1302	2083.013742276542	251.23948989311
3	1311	2102.975336166792	234.2617991531
3	1320	2108.496934555547	209.93848977942
3	1329	2117.330401989934	206.824155967
3	1332	2131.257219538045	164.64908602555
3	1335	2143.594552940142	166.93091606364
3	1350	2166.037339105253	144.33066230698
3	1357	2173.983783490108	100.02443468782
3	1366	2180.979623467274	88.799186536289
3	1377	2200.453215930063	82.287172945059
3	1382	2212.94713820296	43.792387361328
3	1387	2220.589458192733	43.528150919639
3	1388	2221.37023260886	42.455816214198
3	1393	2238.006772004286	42.192293490571
3	1396	2246.611642694481	46.434470257252
3	1407	2264.908887672854	50.017540408348
3	1418	2287.341500262245	71.52451371696
3	1425	2301.448710117791	20.659435938281
3	1426	2301.454135527806	12.794219750449
3	1449	2325.886460952761	0
3	1464	2351.959109783402	16.230043062659
3	1480	2363.241703758442	0
3	1491	2388.280962933706	18.708050312814
3	1492	2391.612402055502	6.522294842258
3	1515	2425.769695310969	5.388430759627
3	1524	2449.595035467703	11.539663525667
3	1531	2460.50827654165	13.628364651642
4	245	359.877028435229	35
4	249	363.857270407593	36
4	251	364.281579325754	37
4	254	365.319660926311	37
4	257	369.025958534247	37
4	259	371.571606162347	38
4	261	373.021933602689	39
4	263	374.394369190389	40
4	266	380.586737892309	40
4	269	380.773455507738	40
4	271	381.079880531017	41
4	273	385.282838041191	42
4	277	389.528194195091	41
4	284	402.332693867396	37
4	288	410.570738559814	36
4	291	411.557235003992	36
4	294	414.916951278951	36
4	299	420.988374686628	36
4	301	422.376979904902	37
4	303	428.742036836914	38
4	305	432.045263028674	39
4	307	432.203046737249	40
4	309	432.2050252578	41
4	311	436.576276297838	42
4	313	440.090260330419	43
4	320	446.07156664809	43
4	323	452.950572068422	43
4	331	464.98216626876	38
4	333	466.508537944349	39
4	341	483.519226185312	36
4	343	485.38338079234	37
4	348	494.414585735391	36
4	354	516.856476619823	33
4	358	531.948551898821	32
4	360	533.602528745562	33
4	365	537.131923510545	33
4	367	538.035211092567	34
4	369	539.116661413876	35
4	379	550.410316527738	36
4	381	550.771260420898	37
4	383	555.671166899554	38
4	385	568.675831033119	39
4	387	571.878904197543	40
4	389	574.361270478973	41
4	391	575.30280014589	42
4	393	577.925485524079	43
4	395	585.882106010401	44
4	397	586.819208996479	45
4	399	591.521993770654	46
4	401	592.231800149339	47
4	403	593.147345428509	48
4	406	596.713896775803	49
4	408	596.976114510693	50
4	410	599.059332374739	51
4	412	602.120671619459	52
4	414	605.173160244338	53
4	416	607.166311975683	54
4	418	607.415420581756	55
4	420	609.974543461092	56
4	422	611.457147900903	57
4	424	611.646635400173	58
4	427	624.344102418476	59
4	434	645.449065061674	57
4	436	645.911581061579	58
4	440	647.288201271762	59
4	442	652.035072340776	60
4	444	652.920457571756	61
4	448	659.878580800197	62
4	450	661.716472937134	63
4	452	664.874311783073	64
4	455	665.34125291763	64
4	459	670.359256002757	65
4	461	672.593720287241	66
4	465	675.392984365326	67
4	467	675.436090425408	68
4	471	691.303511096305	69
4	476	700.458321212536	69
4	483	711.053678301896	70
4	485	712.485807282965	71
4	488	713.114764345461	72
4	496	725.735851851571	73
4	500	726.138917142281	74
4	503	731.482586837148	75
4	507	742.758261624298	76
4	509	743.861269226911	77
4	511	743.922047846676	78
4	513	744.959703459596	79
4	515	751.806747863553	80
4	517	752.151614005173	81
4	519	752.869361991168	82
4	533	785.889905861342	83
4	535	786.689300032721	84
4	537	787.433687371771	85
4	539	790.475050770681	86
4	541	794.706006147569	87
4	544	803.387445770793	88
4	546	813.455526605933	89
4	549	816.023811507263	90
4	551	816.901352466011	91
4	553	822.273772307649	92
4	555	822.599910632916	93
4	557	825.018932598843	94
4	559	825.141502129451	95
4	561	838.60190933569	96
4	563	847.114126723212	97
4	565	847.87642506019	98
4	567	848.464283995232	99
4	571	858.533648907641	100
4	575	862.869011466018	101
4	577	866.266901210652	102
4	580	867.859523712513	103
4	584	868.573541783429	104
4	592	884.466375915172	105
4	594	894.916269317649	106
4	596	900.100962522919	107
4	598	900.698911959686	108
4	600	906.708633949476	109
4	602	910.422976025054	110
4	604	910.554500021038	111
4	606	912.224119398767	112
4	611	925.881687993459	113
4	613	926.881550525634	114
4	615	930.807867182323	115
4	619	936.301410599012	116
4	623	939.678036793444	117
4	625	943.344180841664	118
4	629	951.221009526064	119
4	631	952.930657243365	120
4	633	954.888703997922	121
4	638	961.091347718175	122
4	640	965.079306943132	123
4	644	981.956070661532	124
4	646	986.659488300329	125
4	648	986.680654883784	126
4	650	987.558291060493	127
4	652	988.786483536632	128
4	654	989.53831759565	129
4	657	992.630971645444	130
4	659	994.651727430122	131
4	662	1007.677340966774	132
4	666	1010.274219610745	133
4	668	1012.86290736857	134
4	671	1016.009542244296	135
4	673	1027.751310133305	136
4	675	1030.287751791844	137
4	677	1042.354853189071	138
4	681	1046.469922274418	139
4	684	1049.518544707472	140
4	687	1051.29556880551	141
4	691	1058.184390132212	140
4	693	1058.241300524386	141
4	695	1059.662031820857	142
4	699	1061.837137322629	143
4	703	1069.020341472692	143
4	710	1075.442818989024	143
4	712	1083.683557336102	144
4	714	1093.017446998939	145
4	719	1110.613539965161	145
4	725	1119.444634801327	145
4	727	1127.241534048919	146
4	735	1135.537704958375	144
4	738	1140.385913051683	144
4	740	1141.932042347996	145
4	742	1142.184874920645	146
4	744	1144.221247928441	147
4	746	1148.790123012344	148
4	750	1154.890904931208	149
4	752	1156.386406377437	150
4	754	1156.760661614129	151
4	758	1159.166283726849	152
4	760	1159.434276226088	153
4	763	1163.953365716502	154
4	765	1168.432950216867	155
4	767	1169.901912249615	156
4	777	1185.573883410004	157
4	779	1185.576017189983	158
4	781	1190.443601890852	159
4	783	1191.594492129903	160
4	785	1193.198836879834	161
4	788	1195.559316105219	162
4	790	1200.29565294919	163
4	792	1203.757964175962	164
4	794	1209.065004357998	165
4	796	1211.939413569725	166
4	798	1215.016784686672	167
4	800	1217.772528869416	168
4	805	1228.845729084797	167
4	807	1230.569476995072	168
4	809	1231.146827290447	169
4	813	1236.778763898723	170
4	815	1237.206659477086	171
4	817	1241.657191637689	172
4	819	1243.949119235652	173
4	824	1253.521354418454	172
4	828	1262.187661331848	171
4	830	1262.217015887101	172
4	833	1264.762657876692	172
4	835	1265.194869768594	173
4	838	1271.797660164844	173
4	842	1275.434914325529	172
4	845	1277.577391013852	172
4	847	1279.168855540123	173
4	855	1291.517957756838	171
4	858	1295.347666577783	171
4	860	1304.9837907849	172
4	862	1305.604118428478	173
4	868	1329.245105504179	170
4	872	1337.634732036925	169
4	874	1339.880128332675	170
4	878	1352.470092406396	169
4	880	1354.150631433418	170
4	886	1378.467046024374	171
4	888	1382.964029345481	172
4	890	1384.347803866642	173
4	892	1404.589487443659	174
4	896	1411.206945014882	175
4	901	1419.167594791603	176
4	903	1419.427779406021	177
4	906	1422.147469800272	178
4	912	1423.839823110107	179
4	918	1433.370789378122	180
4	920	1441.887231514478	181
4	922	1444.901032292789	182
4	924	1447.965048863742	183
4	926	1450.081013532155	184
4	928	1452.752876970543	185
4	935	1460.640822766849	186
4	937	1462.19232444644	187
4	939	1462.604229739877	188
4	941	1463.369496307138	189
4	943	1464.531702691265	190
4	947	1470.675845592013	191
4	949	1474.747559630375	192
4	951	1477.423550440574	193
4	953	1487.142732621659	194
4	956	1490.294150504746	195
4	958	1490.890136236073	196
4	960	1493.375780174237	197
4	966	1501.620238563	198
4	968	1503.509813362262	199
4	970	1509.866440707721	200
4	972	1511.911810011117	201
4	976	1518.48293651913	202
4	978	1518.859235565549	203
4	983	1532.868227109375	204
4	985	1538.732213175733	205
4	987	1538.988331423826	206
4	989	1539.645110968323	207
4	991	1540.03233428899	208
4	993	1544.688686216914	209
4	995	1545.066623364695	210
4	997	1554.871834051164	211
4	1005	1570.14764363098	212
4	1007	1570.212928195805	213
4	1009	1570.806865518058	214
4	1012	1576.222147342082	215
4	1014	1580.944885290296	216
4	1016	1582.139110940096	217
4	1018	1583.871624393051	218
4	1021	1588.914029997004	219
4	1023	1594.282011311397	220
4	1025	1595.78197662681	221
4	1033	1621.790483412929	222
4	1035	1622.09124044095	223
4	1043	1636.829491911117	224
4	1045	1638.552038124945	225
4	1047	1641.964896185277	226
4	1052	1661.06325579011	227
4	1054	1664.063256890365	228
4	1056	1666.038894535985	229
4	1058	1667.096109431549	230
4	1060	1667.735770756512	231
4	1062	1672.222896259305	232
4	1064	1675.714828924273	233
4	1066	1683.364384319041	234
4	1070	1687.087732978369	235
4	1072	1689.673955266356	236
4	1076	1700.846731930152	237
4	1082	1706.947712609774	238
4	1085	1714.477174438978	239
4	1087	1715.111850291791	240
4	1089	1715.641520249184	241
4	1091	1716.753151465202	242
4	1093	1718.05736353107	243
4	1095	1718.248641101044	244
4	1099	1721.992278681313	245
4	1104	1726.16529947315	246
4	1106	1733.178012466273	247
4	1108	1733.605515467038	248
4	1112	1741.734798607626	249
4	1114	1745.88964794241	250
4	1117	1757.123505406625	251
4	1121	1761.023099348345	252
4	1125	1761.7317256994	253
4	1127	1761.848631415313	254
4	1132	1769.763396754837	255
4	1134	1775.079816003719	256
4	1136	1781.773064132319	257
4	1138	1782.691816844586	258
4	1141	1784.208861977264	259
4	1143	1785.471606839115	260
4	1146	1792.196409009896	261
4	1149	1807.354865816251	262
4	1151	1814.645489179336	263
4	1153	1815.808804304429	264
4	1155	1821.456517955234	265
4	1157	1828.049423955977	266
4	1161	1840.236214579913	267
4	1165	1861.209468663812	268
4	1167	1864.158968075576	269
4	1171	1871.233545190134	270
4	1173	1873.267799915488	271
4	1175	1873.6077875532	272
4	1177	1880.174042105123	273
4	1180	1891.467251379145	274
4	1182	1891.925625504888	275
4	1186	1901.204958375503	276
4	1188	1907.348419989015	277
4	1192	1910.598849826022	278
4	1194	1913.207090460262	279
4	1198	1926.126516692928	280
4	1201	1930.426809376531	281
4	1203	1932.000897249263	282
4	1205	1933.401409724062	283
4	1207	1941.760430394862	284
4	1209	1943.241172596115	285
4	1211	1946.979358604608	286
4	1213	1948.777497048225	287
4	1215	1949.190273917339	288
4	1217	1949.238713188098	289
4	1220	1951.288179275109	290
4	1222	1952.55526941939	291
4	1224	1953.974557847571	292
4	1226	1956.485784827803	293
4	1228	1958.027157614692	294
4	1230	1958.450176151393	295
4	1235	1966.749341914246	296
4	1237	1966.90484160184	297
4	1239	1976.368472127121	298
4	1243	1984.585459696914	299
4	1245	1994.383705145405	300
4	1248	1996.523630905644	301
4	1250	1997.52268819622	302
4	1252	1997.537083965383	303
4	1254	1998.216002991895	304
4	1256	2008.973356933521	305
4	1258	2009.305359497489	306
4	1260	2011.414447079121	307
4	1262	2016.47846173718	308
4	1264	2019.123579537335	309
4	1266	2020.305037144536	310
4	1270	2041.769107615885	311
4	1272	2043.016942850542	312
4	1274	2044.863753615106	313
4	1276	2047.704902128936	314
4	1278	2056.376647399061	315
4	1280	2057.55894896753	316
4	1282	2061.728861354513	317
4	1284	2063.145894912825	318
4	1286	2067.358257299065	319
4	1288	2071.604760340977	320
4	1291	2072.798101473696	321
4	1293	2073.12041448547	322
4	1297	2075.702843217881	323
4	1299	2076.747118527278	324
4	1301	2082.591267762213	325
4	1304	2085.532392760399	326
4	1306	2090.337443244581	327
4	1310	2093.196037799144	328
4	1313	2105.159580479204	329
4	1315	2107.506305167925	330
4	1317	2107.670449140871	331
4	1319	2107.806079310526	332
4	1322	2108.938228753291	333
4	1324	2110.200318534467	334
4	1326	2113.146273188082	335
4	1328	2115.469302950319	336
4	1334	2141.826583896154	337
4	1337	2146.171895811422	338
4	1339	2146.219212900942	339
4	1341	2148.463446082619	340
4	1343	2148.627616026109	341
4	1345	2149.38484950126	342
4	1347	2154.615391085153	343
4	1349	2158.634140351369	344
4	1352	2168.099879052162	345
4	1356	2169.811405005584	346
4	1359	2175.433481431818	347
4	1363	2178.512369446227	348
4	1368	2181.581556454761	349
4	1370	2189.308569929486	350
4	1372	2190.287152954667	351
4	1379	2207.178571430402	352
4	1381	2210.347526058778	353
4	1390	2228.376215993017	354
4	1392	2229.904182654877	355
4	1395	2238.419092075022	356
4	1398	2247.175388210955	357
4	1400	2247.2314393525	358
4	1402	2253.551329080491	359
4	1404	2253.779758315942	360
4	1406	2260.243153329897	361
4	1409	2272.038978294793	362
4	1411	2275.126356249493	363
4	1413	2279.283807281889	364
4	1417	2285.958472803556	365
4	1422	2293.51368547194	366
4	1424	2300.66859143972	367
4	1428	2305.638623361734	368
4	1430	2306.5641620343	369
4	1432	2306.868691739438	370
4	1434	2309.298605791248	371
4	1436	2312.490118295609	372
4	1440	2316.930726347174	372
4	1442	2318.479630222868	373
4	1447	2323.813601549844	371
4	1451	2328.274531847954	372
4	1453	2332.19826815642	373
4	1457	2337.579833045393	374
4	1459	2340.581556629582	375
4	1461	2344.375388992991	376
4	1463	2348.141505748199	377
4	1466	2353.131081210407	378
4	1468	2353.785590453364	379
4	1471	2355.502000328094	380
4	1474	2357.410645806427	380
4	1477	2361.410566513535	380
4	1484	2370.10165232649	380
4	1486	2383.323135121174	381
4	1488	2384.451015307186	382
4	1494	2394.36104419564	383
4	1496	2397.855033850574	384
4	1498	2404.449303532333	385
4	1500	2406.750106300478	386
4	1502	2408.6109915723	387
4	1504	2418.070769040521	388
4	1506	2419.64963021074	389
4	1508	2420.067291498195	390
4	1512	2425.215000359197	391
4	1514	2425.314292796781	392
4	1517	2435.046581374034	393
4	1521	2443.967179450011	394
4	1526	2452.150802148856	395
4	1528	2456.551629582122	396
4	1530	2458.164167059657	397
4	1534	2467.433197512215	398
4	1538	2472.434056198355	397
4	1542	2478.419666494406	396
4	1544	2481.912878389171	397
4	1547	2486.928952286728	397
4	1550	2491.988161311926	397
4	1553	2496.506638597895	397
5	245	359.877028435229	34
5	249	363.857270407593	35
5	251	364.281579325754	36
5	252	364.826168251432	36
5	254	365.319660926311	36
5	255	368.359028540872	36
5	257	369.025958534247	36
5	259	371.571606162347	37
5	261	373.021933602689	38
5	263	374.394369190389	39
5	264	374.877193004936	39
5	266	380.586737892309	39
5	267	380.632977391043	39
5	269	380.773455507738	39
5	271	381.079880531017	40
5	273	385.282838041191	41
5	274	385.353370745	41
5	275	388.092185149655	40
5	277	389.528194195091	40
5	278	392.287771544565	40
5	279	394.791390775921	39
5	280	397.537981726006	38
5	281	398.859258719641	37
5	282	400.269846909504	36
5	284	402.332693867396	36
5	285	403.183824046552	36
5	286	409.159566698618	35
5	288	410.570738559814	35
5	289	411.493781006877	35
5	291	411.557235003992	35
5	292	412.074533733992	35
5	294	414.916951278951	35
5	295	416.455150962222	35
5	299	420.988374686628	35
5	301	422.376979904902	36
5	303	428.742036836914	37
5	305	432.045263028674	38
5	307	432.203046737249	39
5	309	432.2050252578	40
5	311	436.576276297838	41
5	313	440.090260330419	42
5	315	444.647159155209	42
5	320	446.07156664809	42
5	321	452.358571429755	42
5	323	452.950572068422	42
5	324	457.237391625939	42
5	325	457.671709998689	41
5	326	459.640388485401	40
5	327	460.31504432841	39
5	328	460.719420862312	38
5	329	462.669039837818	37
5	331	464.98216626876	37
5	333	466.508537944349	38
5	334	466.627069741375	38
5	335	471.776149070931	37
5	336	476.311545828416	36
5	337	479.453365110481	35
5	341	483.519226185312	35
5	343	485.38338079234	36
5	345	492.759987209167	36
5	346	494.40946831263	35
5	348	494.414585735391	35
5	349	500.739509182778	35
5	350	501.817636744479	34
5	351	506.181693892632	33
5	352	509.366605157676	32
5	354	516.856476619823	32
5	355	519.668764281566	32
5	356	527.070956224121	31
5	358	531.948551898821	31
5	360	533.602528745562	32
5	361	534.858486685269	32
5	365	537.131923510545	32
5	367	538.035211092567	33
5	369	539.116661413876	34
5	379	550.410316527738	35
5	381	550.771260420898	36
5	383	555.671166899554	37
5	385	568.675831033119	38
5	387	571.878904197543	39
5	389	574.361270478973	40
5	391	575.30280014589	41
5	393	577.925485524079	42
5	395	585.882106010401	43
5	397	586.819208996479	44
5	399	591.521993770654	45
5	401	592.231800149339	46
5	403	593.147345428509	47
5	406	596.713896775803	48
5	408	596.976114510693	49
5	410	599.059332374739	50
5	412	602.120671619459	51
5	414	605.173160244338	52
5	416	607.166311975683	53
5	418	607.415420581756	54
5	420	609.974543461092	55
5	422	611.457147900903	56
5	424	611.646635400173	57
5	427	624.344102418476	58
5	428	625.177474769457	58
5	429	632.488393153428	57
5	430	634.616391372862	56
5	434	645.449065061674	56
5	436	645.911581061579	57
5	440	647.288201271762	58
5	442	652.035072340776	59
5	444	652.920457571756	60
5	448	659.878580800197	61
5	450	661.716472937134	62
5	452	664.874311783073	63
5	453	665.162104466574	63
5	455	665.34125291763	63
5	459	670.359256002757	64
5	461	672.593720287241	65
5	465	675.392984365326	66
5	467	675.436090425408	67
5	471	691.303511096305	68
5	472	691.831196316717	68
5	476	700.458321212536	68
5	483	711.053678301896	69
5	485	712.485807282965	70
5	488	713.114764345461	71
5	496	725.735851851571	72
5	500	726.138917142281	73
5	503	731.482586837148	74
5	507	742.758261624298	75
5	509	743.861269226911	76
5	511	743.922047846676	77
5	513	744.959703459596	78
5	515	751.806747863553	79
5	517	752.151614005173	80
5	519	752.869361991168	81
5	533	785.889905861342	82
5	535	786.689300032721	83
5	537	787.433687371771	84
5	539	790.475050770681	85
5	541	794.706006147569	86
5	544	803.387445770793	87
5	546	813.455526605933	88
5	549	816.023811507263	89
5	551	816.901352466011	90
5	553	822.273772307649	91
5	555	822.599910632916	92
5	557	825.018932598843	93
5	559	825.141502129451	94
5	561	838.60190933569	95
5	563	847.114126723212	96
5	565	847.87642506019	97
5	567	848.464283995232	98
5	571	858.533648907641	99
5	575	862.869011466018	100
5	577	866.266901210652	101
5	580	867.859523712513	102
5	584	868.573541783429	103
5	592	884.466375915172	104
5	594	894.916269317649	105
5	596	900.100962522919	106
5	598	900.698911959686	107
5	600	906.708633949476	108
5	602	910.422976025054	109
5	604	910.554500021038	110
5	606	912.224119398767	111
5	611	925.881687993459	112
5	613	926.881550525634	113
5	615	930.807867182323	114
5	619	936.301410599012	115
5	623	939.678036793444	116
5	625	943.344180841664	117
5	629	951.221009526064	118
5	631	952.930657243365	119
5	633	954.888703997922	120
5	638	961.091347718175	121
5	640	965.079306943132	122
5	644	981.956070661532	123
5	646	986.659488300329	124
5	648	986.680654883784	125
5	650	987.558291060493	126
5	652	988.786483536632	127
5	654	989.53831759565	128
5	657	992.630971645444	129
5	659	994.651727430122	130
5	662	1007.677340966774	131
5	666	1010.274219610745	132
5	668	1012.86290736857	133
5	671	1016.009542244296	134
5	673	1027.751310133305	135
5	675	1030.287751791844	136
5	677	1042.354853189071	137
5	681	1046.469922274418	138
5	684	1049.518544707472	139
5	687	1051.29556880551	140
5	688	1055.263177945656	140
5	689	1056.664378190521	139
5	691	1058.184390132212	139
5	693	1058.241300524386	140
5	695	1059.662031820857	141
5	699	1061.837137322629	142
5	701	1067.421142498488	142
5	703	1069.020341472692	142
5	704	1069.735835067209	142
5	710	1075.442818989024	142
5	712	1083.683557336102	143
5	714	1093.017446998939	144
5	717	1101.903490006964	144
5	719	1110.613539965161	144
5	720	1112.275629972403	144
5	725	1119.444634801327	144
5	727	1127.241534048919	145
5	731	1132.847535734782	145
5	732	1133.297813491053	144
5	733	1134.940832680945	143
5	735	1135.537704958375	143
5	736	1137.61878348089	143
5	738	1140.385913051683	143
5	740	1141.932042347996	144
5	742	1142.184874920645	145
5	744	1144.221247928441	146
5	746	1148.790123012344	147
5	750	1154.890904931208	148
5	752	1156.386406377437	149
5	754	1156.760661614129	150
5	758	1159.166283726849	151
5	760	1159.434276226088	152
5	763	1163.953365716502	153
5	765	1168.432950216867	154
5	767	1169.901912249615	155
5	777	1185.573883410004	156
5	779	1185.576017189983	157
5	781	1190.443601890852	158
5	783	1191.594492129903	159
5	785	1193.198836879834	160
5	788	1195.559316105219	161
5	790	1200.29565294919	162
5	792	1203.757964175962	163
5	794	1209.065004357998	164
5	796	1211.939413569725	165
5	798	1215.016784686672	166
5	800	1217.772528869416	167
5	802	1223.118084004857	167
5	803	1228.231183358125	166
5	805	1228.845729084797	166
5	807	1230.569476995072	167
5	809	1231.146827290447	168
5	813	1236.778763898723	169
5	815	1237.206659477086	170
5	817	1241.657191637689	171
5	819	1243.949119235652	172
5	821	1248.193017604956	172
5	822	1252.805277765829	171
5	824	1253.521354418454	171
5	825	1255.125225847101	171
5	826	1258.629414289074	170
5	828	1262.187661331848	170
5	830	1262.217015887101	171
5	831	1264.514376087239	171
5	833	1264.762657876692	171
5	835	1265.194869768594	172
5	836	1271.712913055281	172
5	838	1271.797660164844	172
5	839	1273.373486195802	172
5	840	1274.280394681992	171
5	842	1275.434914325529	171
5	843	1275.898720017927	171
5	845	1277.577391013852	171
5	847	1279.168855540123	172
5	848	1280.747757315349	172
5	849	1281.597472268689	171
5	850	1284.731122464944	170
5	855	1291.517957756838	170
5	856	1292.216233415801	170
5	858	1295.347666577783	170
5	860	1304.9837907849	171
5	862	1305.604118428478	172
5	863	1306.522980940568	172
5	864	1310.311758789181	171
5	865	1316.029621218767	170
5	866	1323.723904676562	169
5	868	1329.245105504179	169
5	869	1333.662146552347	169
5	870	1335.107608398492	168
5	872	1337.634732036925	168
5	874	1339.880128332675	169
5	875	1347.23174444069	169
5	876	1352.38103240902	168
5	878	1352.470092406396	168
5	880	1354.150631433418	169
5	886	1378.467046024374	170
5	888	1382.964029345481	171
5	890	1384.347803866642	172
5	892	1404.589487443659	173
5	896	1411.206945014882	174
5	901	1419.167594791603	175
5	903	1419.427779406021	176
5	906	1422.147469800272	177
5	912	1423.839823110107	178
5	918	1433.370789378122	179
5	920	1441.887231514478	180
5	922	1444.901032292789	181
5	924	1447.965048863742	182
5	926	1450.081013532155	183
5	928	1452.752876970543	184
5	935	1460.640822766849	185
5	937	1462.19232444644	186
5	939	1462.604229739877	187
5	941	1463.369496307138	188
5	943	1464.531702691265	189
5	947	1470.675845592013	190
5	949	1474.747559630375	191
5	951	1477.423550440574	192
5	953	1487.142732621659	193
5	956	1490.294150504746	194
5	958	1490.890136236073	195
5	960	1493.375780174237	196
5	966	1501.620238563	197
5	968	1503.509813362262	198
5	970	1509.866440707721	199
5	972	1511.911810011117	200
5	976	1518.48293651913	201
5	978	1518.859235565549	202
5	983	1532.868227109375	203
5	985	1538.732213175733	204
5	987	1538.988331423826	205
5	989	1539.645110968323	206
5	991	1540.03233428899	207
5	993	1544.688686216914	208
5	995	1545.066623364695	209
5	997	1554.871834051164	210
5	1005	1570.14764363098	211
5	1007	1570.212928195805	212
5	1009	1570.806865518058	213
5	1012	1576.222147342082	214
5	1014	1580.944885290296	215
5	1016	1582.139110940096	216
5	1018	1583.871624393051	217
5	1021	1588.914029997004	218
5	1023	1594.282011311397	219
5	1025	1595.78197662681	220
5	1033	1621.790483412929	221
5	1035	1622.09124044095	222
5	1043	1636.829491911117	223
5	1045	1638.552038124945	224
5	1047	1641.964896185277	225
5	1052	1661.06325579011	226
5	1054	1664.063256890365	227
5	1056	1666.038894535985	228
5	1058	1667.096109431549	229
5	1060	1667.735770756512	230
5	1062	1672.222896259305	231
5	1064	1675.714828924273	232
5	1066	1683.364384319041	233
5	1070	1687.087732978369	234
5	1072	1689.673955266356	235
5	1076	1700.846731930152	236
5	1082	1706.947712609774	237
5	1085	1714.477174438978	238
5	1087	1715.111850291791	239
5	1089	1715.641520249184	240
5	1091	1716.753151465202	241
5	1093	1718.05736353107	242
5	1095	1718.248641101044	243
5	1099	1721.992278681313	244
5	1104	1726.16529947315	245
5	1106	1733.178012466273	246
5	1108	1733.605515467038	247
5	1112	1741.734798607626	248
5	1114	1745.88964794241	249
5	1117	1757.123505406625	250
5	1121	1761.023099348345	251
5	1125	1761.7317256994	252
5	1127	1761.848631415313	253
5	1132	1769.763396754837	254
5	1134	1775.079816003719	255
5	1136	1781.773064132319	256
5	1138	1782.691816844586	257
5	1141	1784.208861977264	258
5	1143	1785.471606839115	259
5	1146	1792.196409009896	260
5	1149	1807.354865816251	261
5	1151	1814.645489179336	262
5	1153	1815.808804304429	263
5	1155	1821.456517955234	264
5	1157	1828.049423955977	265
5	1161	1840.236214579913	266
5	1165	1861.209468663812	267
5	1167	1864.158968075576	268
5	1171	1871.233545190134	269
5	1173	1873.267799915488	270
5	1175	1873.6077875532	271
5	1177	1880.174042105123	272
5	1180	1891.467251379145	273
5	1182	1891.925625504888	274
5	1186	1901.204958375503	275
5	1188	1907.348419989015	276
5	1192	1910.598849826022	277
5	1194	1913.207090460262	278
5	1198	1926.126516692928	279
5	1201	1930.426809376531	280
5	1203	1932.000897249263	281
5	1205	1933.401409724062	282
5	1207	1941.760430394862	283
5	1209	1943.241172596115	284
5	1211	1946.979358604608	285
5	1213	1948.777497048225	286
5	1215	1949.190273917339	287
5	1217	1949.238713188098	288
5	1220	1951.288179275109	289
5	1222	1952.55526941939	290
5	1224	1953.974557847571	291
5	1226	1956.485784827803	292
5	1228	1958.027157614692	293
5	1230	1958.450176151393	294
5	1235	1966.749341914246	295
5	1237	1966.90484160184	296
5	1239	1976.368472127121	297
5	1243	1984.585459696914	298
5	1245	1994.383705145405	299
5	1248	1996.523630905644	300
5	1250	1997.52268819622	301
5	1252	1997.537083965383	302
5	1254	1998.216002991895	303
5	1256	2008.973356933521	304
5	1258	2009.305359497489	305
5	1260	2011.414447079121	306
5	1262	2016.47846173718	307
5	1264	2019.123579537335	308
5	1266	2020.305037144536	309
5	1270	2041.769107615885	310
5	1272	2043.016942850542	311
5	1274	2044.863753615106	312
5	1276	2047.704902128936	313
5	1278	2056.376647399061	314
5	1280	2057.55894896753	315
5	1282	2061.728861354513	316
5	1284	2063.145894912825	317
5	1286	2067.358257299065	318
5	1288	2071.604760340977	319
5	1291	2072.798101473696	320
5	1293	2073.12041448547	321
5	1297	2075.702843217881	322
5	1299	2076.747118527278	323
5	1301	2082.591267762213	324
5	1304	2085.532392760399	325
5	1306	2090.337443244581	326
5	1310	2093.196037799144	327
5	1313	2105.159580479204	328
5	1315	2107.506305167925	329
5	1317	2107.670449140871	330
5	1319	2107.806079310526	331
5	1322	2108.938228753291	332
5	1324	2110.200318534467	333
5	1326	2113.146273188082	334
5	1328	2115.469302950319	335
5	1334	2141.826583896154	336
5	1337	2146.171895811422	337
5	1339	2146.219212900942	338
5	1341	2148.463446082619	339
5	1343	2148.627616026109	340
5	1345	2149.38484950126	341
5	1347	2154.615391085153	342
5	1349	2158.634140351369	343
5	1352	2168.099879052162	344
5	1356	2169.811405005584	345
5	1359	2175.433481431818	346
5	1363	2178.512369446227	347
5	1368	2181.581556454761	348
5	1370	2189.308569929486	349
5	1372	2190.287152954667	350
5	1379	2207.178571430402	351
5	1381	2210.347526058778	352
5	1390	2228.376215993017	353
5	1392	2229.904182654877	354
5	1395	2238.419092075022	355
5	1398	2247.175388210955	356
5	1400	2247.2314393525	357
5	1402	2253.551329080491	358
5	1404	2253.779758315942	359
5	1406	2260.243153329897	360
5	1409	2272.038978294793	361
5	1411	2275.126356249493	362
5	1413	2279.283807281889	363
5	1417	2285.958472803556	364
5	1422	2293.51368547194	365
5	1424	2300.66859143972	366
5	1428	2305.638623361734	367
5	1430	2306.5641620343	368
5	1432	2306.868691739438	369
5	1434	2309.298605791248	370
5	1436	2312.490118295609	371
5	1438	2313.508579174267	371
5	1440	2316.930726347174	371
5	1442	2318.479630222868	372
5	1443	2322.360953278581	372
5	1444	2323.121584927554	371
5	1445	2323.258939633093	370
5	1447	2323.813601549844	370
5	1451	2328.274531847954	371
5	1453	2332.19826815642	372
5	1457	2337.579833045393	373
5	1459	2340.581556629582	374
5	1461	2344.375388992991	375
5	1463	2348.141505748199	376
5	1466	2353.131081210407	377
5	1468	2353.785590453364	378
5	1471	2355.502000328094	379
5	1472	2356.799156611527	379
5	1474	2357.410645806427	379
5	1475	2360.003180287545	379
5	1477	2361.410566513535	379
5	1478	2361.55163827082	379
5	1484	2370.10165232649	379
5	1486	2383.323135121174	380
5	1488	2384.451015307186	381
5	1494	2394.36104419564	382
5	1496	2397.855033850574	383
5	1498	2404.449303532333	384
5	1500	2406.750106300478	385
5	1502	2408.6109915723	386
5	1504	2418.070769040521	387
5	1506	2419.64963021074	388
5	1508	2420.067291498195	389
5	1512	2425.215000359197	390
5	1514	2425.314292796781	391
5	1517	2435.046581374034	392
5	1521	2443.967179450011	393
5	1526	2452.150802148856	394
5	1528	2456.551629582122	395
5	1530	2458.164167059657	396
5	1534	2467.433197512215	397
5	1535	2467.713179885832	397
5	1536	2470.105064112822	396
5	1538	2472.434056198355	396
5	1539	2474.398013705862	396
5	1540	2477.660455933167	395
5	1542	2478.419666494406	395
5	1544	2481.912878389171	396
5	1545	2486.303173681201	396
5	1547	2486.928952286728	396
5	1548	2488.241931516704	396
5	1550	2491.988161311926	396
5	1551	2495.621682778048	396
5	1553	2496.506638597895	396
5	1554	2498.494561104803	396
5	1555	2499.183199855104	395
6	247	362.431364265433	160.53490650956
6	252	364.826168251432	162.58918113902
6	255	368.359028540872	163.14060421935
6	264	374.877193004936	165.39606212435
6	267	380.632977391043	166.93074451427
6	274	385.353370745	170.33203521914
6	275	388.092185149655	167.37028150783
6	278	392.287771544565	155.78646703289
6	279	394.791390775921	157.10675173606
6	280	397.537981726006	150.89454776609
6	281	398.859258719641	147.8896478162
6	282	400.269846909504	145.7507021262
6	285	403.183824046552	143.87431144158
6	286	409.159566698618	144.87847448287
6	289	411.493781006877	146.28903769664
6	292	412.074533733992	137.85969011506
6	295	416.455150962222	140.02905553906
6	314	444.120182295748	164.72910096772
6	315	444.647159155209	164.75459662933
6	318	445.597137617827	158.52104597229
6	321	452.358571429755	161.47000106314
6	324	457.237391625939	161.28312989248
6	325	457.671709998689	160.04876753885
6	326	459.640388485401	159.76804161325
6	327	460.31504432841	153.28755775078
6	328	460.719420862312	153.61852529247
6	329	462.669039837818	142.98252861818
6	334	466.627069741375	143.03629302763
6	335	471.776149070931	144.64757380017
6	336	476.311545828416	147.10537345473
6	337	479.453365110481	148.33242464004
6	344	485.55938898934	145.69184415445
6	345	492.759987209167	152.10922977348
6	346	494.40946831263	146.23361610242
6	349	500.739509182778	140.86248074755
6	350	501.817636744479	137.96036633689
6	351	506.181693892632	141.90011456688
6	352	509.366605157676	144.04694423136
6	355	519.668764281566	150.64280574732
6	356	527.070956224121	155.49935006177
6	361	534.858486685269	161.83655308258
6	425	623.947411359465	249.55304216908
6	428	625.177474769457	244.59073687715
6	429	632.488393153428	251.71493764569
6	430	634.616391372862	253.53651084185
6	446	658.770406877705	273.48756883651
6	453	665.162104466574	275.63391027148
6	469	689.647049157179	287.31435528978
6	472	691.831196316717	281.2604577569
6	477	705.340072603115	293.78283759912
6	489	715.648584102399	300.73163282345
6	685	1051.142446131571	631.31815758929
6	688	1055.263177945656	634.27480325903
6	689	1056.664378190521	634.28739828562
6	700	1065.760093397345	637.01805656043
6	701	1067.421142498488	635.37587946981
6	704	1069.735835067209	637.53278832996
6	716	1101.620747156754	669.41572189895
6	717	1101.903490006964	665.32721370913
6	720	1112.275629972403	672.18536964198
6	723	1119.352899596724	673.92601613549
6	730	1132.077296428187	686.0057297801
6	731	1132.847535734782	679.89696366636
6	732	1133.297813491053	668.31564722229
6	733	1134.940832680945	668.4322947366
6	736	1137.61878348089	656.46330968153
6	801	1219.394100838477	735.87487465316
6	802	1223.118084004857	737.73470321252
6	803	1228.231183358125	733.81659762273
6	820	1246.782733749522	729.9262571297
6	821	1248.193017604956	716.24446570613
6	822	1252.805277765829	719.20274902027
6	825	1255.125225847101	718.17823978858
6	826	1258.629414289074	721.49749077853
6	831	1264.514376087239	726.47916499467
6	836	1271.712913055281	732.5962516414
6	839	1273.373486195802	722.96316966806
6	840	1274.280394681992	723.50913426109
6	843	1275.898720017927	720.22755311837
6	848	1280.747757315349	712.07192628223
6	849	1281.597472268689	709.71856807115
6	850	1284.731122464944	710.36985198597
6	853	1291.287017347814	715.98421720192
6	856	1292.216233415801	714.29074789172
6	863	1306.522980940568	720.64087493017
6	864	1310.311758789181	723.4925497927
6	865	1316.029621218767	724.50762744811
6	866	1323.723904676562	731.49210452722
6	869	1333.662146552347	740.51480112384
6	870	1335.107608398492	738.39371162269
6	875	1347.23174444069	750.25562993
6	876	1352.38103240902	753.32170003428
6	1437	2313.103191173235	1710.9825195538
6	1438	2313.508579174267	1708.3354189299
6	1443	2322.360953278581	1715.1946413029
6	1444	2323.121584927554	1715.7061643458
6	1445	2323.258939633093	1713.284396172
6	1469	2355.420733321171	1743.9635854203
6	1472	2356.799156611527	1745.1525212114
6	1475	2360.003180287545	1735.6590778691
6	1478	2361.55163827082	1718.6994338131
6	1532	2465.652663323119	1820.2035982614
6	1535	2467.713179885832	1821.8015988243
6	1536	2470.105064112822	1822.8168628411
6	1539	2474.398013705862	1822.3629413651
6	1540	2477.660455933167	1824.7399983614
6	1545	2486.303173681201	1826.424592881
6	1548	2488.241931516704	1826.5254585796
6	1551	2495.621682778048	1830.747370995
6	1554	2498.494561104803	1833.1533081872
6	1555	2499.183199855104	1833.0592013371
7	252	364.826168251432	38
7	255	368.359028540872	39
7	264	374.877193004936	40
7	267	380.632977391043	41
7	274	385.353370745	42
7	275	388.092185149655	43
7	278	392.287771544565	44
7	279	394.791390775921	45
7	280	397.537981726006	46
7	281	398.859258719641	47
7	282	400.269846909504	48
7	285	403.183824046552	49
7	286	409.159566698618	50
7	289	411.493781006877	51
7	292	412.074533733992	52
7	295	416.455150962222	53
7	315	444.647159155209	54
7	321	452.358571429755	55
7	324	457.237391625939	56
7	325	457.671709998689	57
7	326	459.640388485401	58
7	327	460.31504432841	59
7	328	460.719420862312	60
7	329	462.669039837818	61
7	334	466.627069741375	62
7	335	471.776149070931	63
7	336	476.311545828416	64
7	337	479.453365110481	65
7	345	492.759987209167	66
7	346	494.40946831263	67
7	349	500.739509182778	68
7	350	501.817636744479	69
7	351	506.181693892632	70
7	352	509.366605157676	71
7	355	519.668764281566	72
7	356	527.070956224121	73
7	361	534.858486685269	74
7	428	625.177474769457	75
7	429	632.488393153428	76
7	430	634.616391372862	77
7	453	665.162104466574	78
7	472	691.831196316717	79
7	688	1055.263177945656	80
7	689	1056.664378190521	81
7	701	1067.421142498488	82
7	704	1069.735835067209	83
7	717	1101.903490006964	84
7	720	1112.275629972403	85
7	731	1132.847535734782	86
7	732	1133.297813491053	87
7	733	1134.940832680945	88
7	736	1137.61878348089	89
7	802	1223.118084004857	90
7	803	1228.231183358125	91
7	821	1248.193017604956	92
7	822	1252.805277765829	93
7	825	1255.125225847101	94
7	826	1258.629414289074	95
7	831	1264.514376087239	96
7	836	1271.712913055281	97
7	839	1273.373486195802	98
7	840	1274.280394681992	99
7	843	1275.898720017927	100
7	848	1280.747757315349	101
7	849	1281.597472268689	102
7	850	1284.731122464944	103
7	856	1292.216233415801	104
7	863	1306.522980940568	105
7	864	1310.311758789181	106
7	865	1316.029621218767	107
7	866	1323.723904676562	108
7	869	1333.662146552347	109
7	870	1335.107608398492	110
7	875	1347.23174444069	111
7	876	1352.38103240902	112
7	1438	2313.508579174267	113
7	1443	2322.360953278581	114
7	1444	2323.121584927554	115
7	1445	2323.258939633093	116
7	1472	2356.799156611527	117
7	1475	2360.003180287545	118
7	1478	2361.55163827082	119
7	1535	2467.713179885832	120
7	1536	2470.105064112822	121
7	1539	2474.398013705862	122
7	1540	2477.660455933167	123
7	1545	2486.303173681201	124
7	1548	2488.241931516704	125
7	1551	2495.621682778048	126
7	1554	2498.494561104803	127
7	1555	2499.183199855104	128
8	252	364.826168251432	162.92971049555
8	255	368.359028540872	166.12204142846
8	264	374.877193004936	169.65876868341
8	267	380.632977391043	171.15184651046
8	274	385.353370745	171.65113786822
8	275	388.092185149655	173.07084962379
8	278	392.287771544565	171.56586790274
8	279	394.791390775921	158.29008626425
8	280	397.537981726006	159.85334268614
8	281	398.859258719641	152.21582475973
8	282	400.269846909504	149.30023600606
8	285	403.183824046552	148.66467926325
8	286	409.159566698618	149.85005409364
8	289	411.493781006877	147.21268879113
8	292	412.074533733992	146.86979042376
8	295	416.455150962222	142.24030734328
8	315	444.647159155209	165.25607782718
8	321	452.358571429755	165.28247978422
8	324	457.237391625939	166.34882125933
8	325	457.671709998689	161.71744826523
8	326	459.640388485401	162.01744602556
8	327	460.31504432841	160.44269745626
8	328	460.719420862312	153.69193428469
8	329	462.669039837818	155.56814426797
8	334	466.627069741375	146.94055852174
8	335	471.776149070931	148.18537235719
8	336	476.311545828416	149.18297055765
8	337	479.453365110481	150.2471927368
8	345	492.759987209167	152.89244237427
8	346	494.40946831263	153.75871087694
8	349	500.739509182778	152.56365697257
8	350	501.817636744479	141.94060830925
8	351	506.181693892632	142.32442348504
8	352	509.366605157676	145.08502583192
8	355	519.668764281566	154.34910335526
8	356	527.070956224121	158.04499768987
8	361	534.858486685269	163.28688052292
8	428	625.177474769457	250.78310557907
8	429	632.488393153428	251.90165526112
8	430	634.616391372862	253.84293586512
8	453	665.162104466574	279.87926642538
8	472	691.831196316717	289.49850244932
8	688	1055.263177945656	635.43888940337
8	689	1056.664378190521	635.67600350389
8	701	1067.421142498488	638.67910566157
8	704	1069.735835067209	637.69057203854
8	717	1101.903490006964	669.69846474916
8	720	1112.275629972403	675.69935367457
8	731	1132.847535734782	686.77596908669
8	732	1133.297813491053	680.34724142263
8	733	1134.940832680945	669.95866641219
8	736	1137.61878348089	671.11024553654
8	802	1223.118084004857	739.59885781954
8	803	1228.231183358125	742.84780256578
8	821	1248.193017604956	731.33654098513
8	822	1252.805277765829	720.85672586701
8	825	1255.125225847101	721.52269710154
8	826	1258.629414289074	721.68242823056
8	831	1264.514376087239	727.38245257669
8	836	1271.712913055281	733.67770196271
8	839	1273.373486195802	734.25682478193
8	840	1274.280394681992	723.87007815425
8	843	1275.898720017927	725.12745959703
8	848	1280.747757315349	725.07659041579
8	849	1281.597472268689	712.92164123557
8	850	1284.731122464944	712.8522182674
8	856	1292.216233415801	716.91343326991
8	863	1306.522980940568	728.59749541649
8	864	1310.311758789181	724.42965277878
8	865	1316.029621218767	729.21041222229
8	866	1323.723904676562	732.20191090591
8	869	1333.662146552347	741.43034640301
8	870	1335.107608398492	741.96026296998
8	875	1347.23174444069	750.51784766489
8	876	1352.38103240902	755.40491789833
8	1438	2313.508579174267	1711.3879075548
8	1443	2322.360953278581	1717.1877930342
8	1444	2323.121584927554	1715.9552729519
8	1445	2323.258939633093	1715.8435190513
8	1472	2356.799156611527	1745.3420087106
8	1475	2360.003180287545	1748.3565448874
8	1478	2361.55163827082	1737.2075358523
8	1535	2467.713179885832	1822.2641148242
8	1536	2470.105064112822	1824.1934830512
8	1539	2474.398013705862	1827.1098124341
8	1540	2477.660455933167	1825.6253835924
8	1545	2486.303173681201	1833.3827161094
8	1548	2488.241931516704	1828.3633507165
8	1551	2495.621682778048	1833.9052098409
8	1554	2498.494561104803	1833.6202493217
8	1555	2499.183199855104	1833.8419469375
9	297	419.824288542282	1
9	317	445.426883461239	1
9	339	481.155473799364	1
9	363	536.946986058516	1
9	371	541.720738592907	2
9	373	541.736319955185	3
9	375	545.749899725905	4
9	432	642.852204457678	1
9	438	646.904432915695	2
9	457	666.123998518003	1
9	463	673.379073049835	2
9	474	692.296201596188	1
9	479	707.174758416955	1
9	481	707.316586279335	2
9	491	718.627327699064	1
9	493	719.093978241006	2
9	498	725.978438086876	2
9	505	740.857761909457	2
9	522	759.785179545867	2
9	524	769.99705848	3
9	527	773.001749095169	3
9	529	773.957541426202	4
9	531	780.867851638882	5
9	569	853.673845421965	4
9	573	862.799389841877	5
9	582	868.098797839271	5
9	587	880.277491819915	5
9	589	882.177038103687	6
9	608	912.935758198835	6
9	617	932.202672012874	6
9	621	936.657389288969	7
9	627	946.297682443241	8
9	636	960.738265453186	8
9	679	1042.502595974247	2
9	697	1060.452690583967	1
9	706	1073.028472791389	1
9	708	1073.979749661901	2
9	722	1113.293494763991	1
9	729	1132.000155132253	1
9	748	1154.808071207918	1
9	756	1158.547296278815	2
9	769	1170.522199205898	2
9	771	1171.867477851254	3
9	773	1172.13455232041	4
9	811	1231.608305717097	1
9	852	1288.624242739881	1
9	882	1356.036850805122	1
9	884	1372.606487445524	2
9	894	1405.653119015198	3
9	899	1415.389328740932	3
9	908	1422.655085990457	3
9	910	1422.976987813847	4
9	914	1425.03253417898	5
9	916	1430.283059070374	6
9	930	1453.338074498799	7
9	933	1458.853815662555	7
9	945	1470.455632448849	8
9	962	1493.449335598144	8
9	964	1496.052380205525	9
9	974	1514.884379549808	10
9	981	1528.555324124831	10
9	999	1564.373909976404	11
9	1001	1565.073784446035	12
9	1003	1568.88161662372	13
9	1031	1616.890074396541	8
9	1037	1626.810805176556	9
9	1039	1632.799960695581	10
9	1041	1636.823592669957	11
9	1050	1658.548708404319	11
9	1068	1686.708174305305	12
9	1074	1694.179105853179	13
9	1080	1705.252233173425	12
9	1097	1719.93445107556	12
9	1102	1724.59685573388	12
9	1110	1740.42133159935	13
9	1119	1757.194056480443	13
9	1123	1761.281828584842	14
9	1129	1761.918109262225	15
9	1159	1831.77425238343	12
9	1169	1868.713537013691	11
9	1184	1898.558444776125	11
9	1190	1910.506246022932	12
9	1233	1966.608133512492	8
9	1241	1976.663636876505	9
9	1268	2021.706676798273	9
9	1295	2073.959348802285	9
9	1308	2092.180436930985	9
9	1331	2118.166042985004	7
9	1354	2169.154750841632	5
9	1361	2177.061307273094	5
9	1365	2178.914416394662	6
9	1374	2195.814478513715	6
9	1376	2200.177172437229	7
9	1384	2214.891347264506	6
9	1386	2215.816986545285	7
9	1415	2280.78927417951	3
9	1420	2288.659915777357	3
9	1449	2325.886460952761	1
9	1455	2335.729066720743	2
9	1480	2363.241703758442	1
9	1482	2369.572912620892	2
9	1490	2385.090107213244	3
9	1510	2420.381264551342	2
9	1519	2438.055371942036	2
9	1523	2446.879911890008	3
10	297	419.824288542282	12
10	317	445.426883461239	13
10	339	481.155473799364	14
10	363	536.946986058516	15
10	432	642.852204457678	16
10	457	666.123998518003	17
10	474	692.296201596188	18
10	479	707.174758416955	19
10	491	718.627327699064	20
10	697	1060.452690583967	21
10	706	1073.028472791389	22
10	722	1113.293494763991	23
10	729	1132.000155132253	24
10	748	1154.808071207918	25
10	811	1231.608305717097	26
10	852	1288.624242739881	27
10	882	1356.036850805122	28
10	1449	2325.886460952761	29
10	1480	2363.241703758442	30
11	1556	2500	0.0512
12	1556	2500	0.0508

