version 2
run factors_calibration_range_test-35-20230302-19:09:13-11868
attr configname factors_calibration_range_test
attr datetime 20230302-19:09:13
attr experiment factors_calibration_range_test
attr inifile omnetpp.ini
attr iterationvars "$0=5, $1=3"
attr iterationvarsf 5,3-
attr measurement "$0=5, $1=3"
attr network Network
attr processid 11868
attr repetition 15
attr replication #15
attr resultdir results
attr runnumber 35
attr seedset 15
param *.boss.arrival_mean 20
param *.boss.service_mean 5
param *.minion.arrival_mean 5
param *.minion.service_mean 3
param **.minion.arrival_distribution 0
param **.minion.service_distribution 0
param **.boss.arrival_distribution 0
param **.boss.service_distribution 0

vector 0 Network.player minion_defeated_stat:vector ETV
attr source signal_minion_defeated
vector 1 Network.player minion_jobs_queue_number_stat:vector ETV
attr source signal_minion_jobs_queue_number
vector 2 Network.player minion_response_time_stat:vector ETV
attr source signal_minion_response_time
vector 3 Network.player minion_waiting_time_stat:vector ETV
attr source signal_minion_waiting_time
vector 4 Network.player minion_jobs_number_stat:vector ETV
attr source signal_minion_jobs_number
vector 5 Network.player boss_jobs_number_stat:vector ETV
attr source signal_boss_jobs_number
vector 6 Network.player boss_jobs_queue_number_stat:vector ETV
attr source signal_boss_jobs_queue_number
vector 7 Network.player minion_recovered_stat:vector ETV
attr source signal_minion_recovered
vector 8 Network.player boss_waiting_time_stat:vector ETV
attr source signal_boss_waiting_time
vector 9 Network.player boss_defeated_stat:vector ETV
attr source signal_boss_defeated
vector 10 Network.player boss_response_time_stat:vector ETV
attr source signal_boss_response_time
vector 11 Network.player minion_throughput:vector ETV
attr source signal_minion_throughput
vector 12 Network.player boss_throughput:vector ETV
attr source signal_boss_throughput
0	250	351.837206198405	61
0	251	351.945699519714	62
0	254	354.732642964065	63
0	255	360.343699945584	64
0	266	377.993277751817	65
0	267	380.590408887798	66
0	268	382.426944929263	67
0	269	385.835532318497	68
0	270	385.968901993813	69
0	275	390.10421470283	70
0	282	394.048288718869	71
0	291	406.092982424905	72
0	292	407.31494457473	73
0	298	412.224616321017	74
0	301	413.243366343009	75
0	302	413.690105570406	76
0	303	415.355341195352	77
0	306	423.019866999055	78
0	309	428.747789211468	79
0	312	430.406605265974	80
0	317	435.176457439258	81
0	318	439.139182583021	82
0	321	449.107590305366	83
0	324	467.371641996227	84
0	327	484.174617240752	85
0	330	493.581822340885	86
0	333	494.697860416329	87
0	336	511.100330906701	88
0	339	513.757037599022	89
0	354	540.866610077728	90
0	355	541.772290450192	91
0	356	543.698004944313	92
0	357	547.582801906865	93
0	374	559.533422583099	94
0	375	561.351318688671	95
0	378	566.120599227542	96
0	379	566.68359027937	97
0	382	572.753793869858	98
0	394	586.284258814566	99
0	395	586.315456303234	100
0	396	592.696479184835	101
0	397	593.032802816306	102
0	398	597.422387570863	103
0	399	597.977676314596	104
0	402	599.074790842718	105
0	405	611.971659225106	106
0	416	630.381487538403	107
0	417	633.882262518179	108
0	425	650.553796272457	109
0	439	658.614775848974	110
0	440	659.80169938517	111
0	443	660.628671051804	112
0	444	662.028676742458	113
0	454	675.72350532869	114
0	457	680.994143427483	115
0	458	681.113267108231	116
0	463	688.655591939976	117
0	466	699.671903596581	118
0	467	700.294551899471	119
0	468	705.662777431887	120
0	469	706.109905165872	121
0	470	707.382393658806	122
0	471	708.631725104022	123
0	474	711.682874755982	124
0	480	742.567903439936	125
0	486	751.438611186488	126
0	507	782.620786306091	127
0	510	789.705948867006	128
0	515	793.005401022784	129
0	516	798.408256938326	130
0	519	800.959756845771	131
0	524	808.876201777259	132
0	551	845.996087471212	133
0	552	847.307450529395	134
0	553	849.259225514142	135
0	556	852.84890404522	136
0	557	855.354266599681	137
0	558	856.198817295875	138
0	565	865.122453823633	139
0	568	865.526721792654	140
0	569	865.884744210341	141
0	572	871.213427523167	142
0	575	877.753713167457	143
0	590	897.579718223748	144
0	591	898.838752650566	145
0	594	905.425816922813	146
0	597	910.603233174768	147
0	598	910.742786857487	148
0	599	915.480194867394	149
0	602	918.315840484876	150
0	603	920.248396927203	151
0	606	923.23358768674	152
0	613	929.014022519388	153
0	614	930.723130715127	154
0	617	935.666992640807	155
0	618	937.721231314628	156
0	619	938.105801577469	157
0	620	942.08118059993	158
0	625	953.617411511746	159
0	626	954.41435625465	160
0	629	957.529855310997	161
0	656	999.001720480672	162
0	659	999.807174123474	163
0	662	1003.047592328782	164
0	663	1003.748515273262	165
0	666	1011.107767674624	166
0	667	1011.162303121415	167
0	668	1011.730959902772	168
0	669	1011.783560046287	169
0	670	1011.873768107916	170
0	671	1011.910258977541	171
0	672	1012.247545170348	172
0	673	1015.049741323482	173
0	676	1016.18991225819	174
0	677	1017.630658925721	175
0	678	1019.257624787162	176
0	679	1024.171837887307	177
0	686	1027.108351089251	178
0	689	1028.436930571655	179
0	690	1029.617297539413	180
0	691	1036.306300664065	181
0	692	1037.248943995368	182
0	693	1040.686419176875	183
0	696	1048.262885977954	184
0	699	1051.174149169965	185
0	706	1065.906304751933	186
0	720	1082.509933265298	187
0	725	1085.416102702935	188
0	728	1089.326931016876	189
0	733	1091.831794533813	190
0	734	1092.287510903123	191
0	735	1094.357294947518	192
0	738	1101.360892702116	193
0	739	1102.580958860297	194
0	742	1105.049482138642	195
0	743	1106.707691764694	196
0	749	1113.829584371043	197
0	770	1145.360233583694	198
0	792	1161.399926289995	199
0	802	1167.961360047977	200
0	803	1168.377203978198	201
0	804	1168.657646454369	202
0	836	1208.267779433161	203
0	837	1212.52532180288	204
0	852	1235.932611695834	205
0	855	1238.606080314858	206
0	856	1239.172141628148	207
0	859	1242.290488944478	208
0	862	1245.825662630973	209
0	863	1246.972162371918	210
0	864	1248.724666633109	211
0	872	1251.972891550703	212
0	873	1252.735262791852	213
0	874	1256.711859148909	214
0	877	1270.448287162936	215
0	878	1271.032268887939	216
0	879	1272.926742765873	217
0	880	1272.979549384805	218
0	883	1279.237145944115	219
0	886	1280.320792672896	220
0	887	1281.90388072168	221
0	890	1288.374601977595	222
0	891	1289.506158081653	223
0	892	1291.08989498251	224
0	893	1291.375725266327	225
0	894	1297.488669019295	226
0	895	1298.516159838622	227
0	899	1301.256390147766	228
0	900	1302.473497193359	229
0	901	1303.234023403617	230
0	902	1308.106309628342	231
0	906	1309.540849401459	232
0	912	1315.466896377353	233
0	913	1317.063610918317	234
0	914	1318.832199944073	235
0	917	1319.518061574558	236
0	918	1321.491038634327	237
0	925	1325.988099850379	238
0	926	1328.245075644115	239
0	927	1333.437232525733	240
0	930	1344.012553318565	241
0	931	1353.864898167583	242
0	932	1355.13280815223	243
0	933	1355.558952148026	244
0	936	1358.181649786656	245
0	942	1368.8429026356	246
0	948	1376.616075607259	247
0	973	1401.376626131788	248
0	978	1416.076222513297	249
0	979	1417.593395758409	250
0	982	1419.656115637003	251
0	985	1424.987331404514	252
0	986	1428.673180825782	253
0	989	1431.433839572198	254
0	990	1433.804427530512	255
0	991	1434.099238905378	256
0	992	1435.879380879341	257
0	993	1437.989886572015	258
0	998	1440.505517207833	259
0	999	1443.139497747935	260
0	1002	1446.81263385237	261
0	1005	1451.409903210755	262
0	1010	1453.259815540227	263
0	1011	1462.899646216088	264
0	1017	1467.304895229814	265
0	1020	1473.071018479115	266
0	1023	1485.183408485229	267
0	1028	1488.121696685055	268
0	1035	1494.31432871617	269
0	1036	1495.248970086893	270
0	1041	1499.055031344987	271
0	1042	1500.425002741661	272
0	1053	1512.769702075305	273
0	1054	1513.168640437369	274
0	1055	1515.414611099353	275
0	1063	1521.596800900864	276
0	1069	1530.556996526369	277
0	1072	1533.244825668978	278
0	1073	1534.038515113854	279
0	1074	1534.961161778919	280
0	1075	1536.968565172835	281
0	1076	1539.079137684994	282
0	1077	1540.100656478819	283
0	1085	1547.870879131943	284
0	1086	1549.113990091749	285
0	1092	1554.243843901312	286
0	1100	1561.552155171545	287
0	1101	1561.564618255883	288
0	1104	1566.031081367732	289
0	1127	1613.228350109224	290
0	1128	1614.882269379347	291
0	1129	1615.779410463495	292
0	1130	1616.315973161055	293
0	1161	1645.944264411086	294
0	1164	1653.048017732649	295
0	1165	1653.538369949957	296
0	1177	1670.43878508154	297
0	1178	1670.521067007469	298
0	1193	1686.522369150205	299
0	1203	1691.560580539139	300
0	1206	1698.439184497963	301
0	1209	1700.291125524557	302
0	1210	1700.613667895307	303
0	1240	1739.996068781456	304
0	1241	1743.494423676628	305
0	1242	1747.999512764683	306
0	1247	1753.2259508753	307
0	1255	1757.569931772867	308
0	1273	1785.26751617422	309
0	1274	1785.976974102685	310
0	1275	1786.771169588558	311
0	1302	1828.607174292345	312
0	1303	1828.938027166375	313
0	1304	1831.139954924783	314
0	1305	1837.874734957733	315
0	1306	1838.488635944234	316
0	1307	1838.889603019433	317
0	1310	1843.952592045139	318
0	1311	1844.099837705874	319
0	1314	1847.036436185701	320
0	1315	1847.363222517866	321
0	1326	1866.029183724137	322
0	1330	1874.846904633549	323
0	1331	1875.949963821824	324
0	1349	1904.522570596535	325
0	1350	1905.987887719983	326
0	1351	1906.042592436667	327
0	1354	1910.936837033318	328
0	1355	1914.110094150459	329
0	1356	1916.498766522388	330
0	1357	1919.184592932393	331
0	1360	1919.436918616635	332
0	1361	1920.074116808578	333
0	1364	1924.836688232061	334
0	1375	1937.342981593217	335
0	1380	1945.173513941321	336
0	1381	1947.154989703693	337
0	1384	1951.364728992367	338
0	1385	1953.123037775179	339
0	1395	1963.79197535553	340
0	1396	1964.449386169486	341
0	1401	1968.739109092072	342
0	1405	1980.263727258309	343
0	1406	1983.523512394406	344
0	1411	1985.90504764355	345
0	1418	1987.76034965864	346
0	1419	1988.025333192091	347
0	1420	1988.233499663181	348
0	1421	1993.957095091731	349
0	1424	1996.809222011603	350
0	1440	2004.580236370456	351
0	1441	2006.895938869865	352
0	1448	2014.696424513889	353
0	1449	2016.477268553449	354
0	1450	2020.207532116142	355
0	1453	2023.476120935889	356
0	1454	2025.141828569983	357
0	1455	2027.769588901872	358
0	1471	2039.529981313235	359
0	1472	2039.582033849703	360
0	1473	2045.183405533428	361
0	1483	2057.299608035982	362
0	1488	2060.606842388148	363
0	1489	2063.64663296065	364
0	1490	2066.381698986358	365
0	1491	2067.811785596168	366
0	1495	2072.297222400659	367
0	1498	2076.534742527087	368
0	1499	2076.619920364406	369
0	1500	2077.738835430662	370
0	1505	2081.375687988348	371
0	1508	2081.638330921756	372
0	1519	2093.796495233321	373
0	1520	2094.509341658759	374
0	1523	2106.768417392875	375
0	1524	2108.31852601151	376
0	1534	2117.647961215201	377
0	1539	2120.783236717529	378
0	1542	2124.681035958894	379
0	1543	2129.959353632252	380
0	1544	2134.34510480161	381
0	1554	2154.337298580223	382
0	1585	2191.775896759512	383
0	1586	2193.472079657441	384
0	1587	2194.77465593885	385
0	1588	2194.81785706074	386
0	1589	2194.957824210309	387
0	1590	2195.551609370925	388
0	1591	2198.02772923683	389
0	1592	2198.58685378504	390
0	1593	2199.284028732042	391
0	1600	2204.564119848906	392
0	1603	2206.547117188671	393
0	1618	2233.211472320429	394
0	1619	2236.773507041054	395
0	1620	2241.888129975282	396
0	1628	2257.470180432331	397
0	1629	2258.757270682531	398
0	1636	2266.971721038787	399
0	1637	2268.304245021987	400
0	1642	2276.658441909627	401
0	1643	2276.954981650318	402
0	1644	2278.693602556513	403
0	1651	2284.953464875584	404
0	1652	2287.094457383531	405
0	1653	2287.271473854921	406
0	1656	2297.147558680881	407
0	1657	2300.002552847227	408
0	1658	2305.940244777651	409
0	1659	2306.840467297546	410
0	1662	2308.347080899838	411
0	1663	2309.053223567291	412
0	1666	2310.638748308518	413
0	1667	2311.361078835484	414
0	1668	2314.040164630955	415
0	1669	2315.059675868475	416
0	1670	2315.147963389228	417
0	1699	2361.897403900638	418
0	1700	2364.525104332483	419
0	1701	2364.615827400518	420
0	1704	2366.266080621444	421
0	1781	2452.600441722975	422
0	1782	2456.27044086287	423
0	1785	2458.211131054482	424
0	1786	2466.49082644383	425
0	1787	2466.851930405593	426
0	1788	2467.735567067472	427
0	1789	2468.342520491751	428
0	1790	2474.569632853165	429
0	1791	2477.587141820317	430
0	1792	2479.63740170209	431
0	1793	2487.108917935427	432
0	1794	2496.266277147694	433
0	1795	2498.277185530186	434
1	250	351.837206198405	2
1	251	351.945699519714	1
1	253	352.10048643997	1
1	254	354.732642964065	1
1	255	360.343699945584	0
1	257	370.760019987804	0
1	259	373.555936444486	1
1	261	373.759678010315	2
1	263	377.247993195287	3
1	265	377.345572584523	4
1	266	377.993277751817	4
1	267	380.590408887798	3
1	268	382.426944929263	2
1	269	385.835532318497	1
1	270	385.968901993813	0
1	272	388.349869439179	0
1	274	389.428333751872	1
1	275	390.10421470283	1
1	282	394.048288718869	0
1	284	394.222151939486	0
1	286	394.280417831847	1
1	288	397.861336976077	2
1	290	400.822172387659	3
1	291	406.092982424905	3
1	292	407.31494457473	2
1	296	407.5705743153	2
1	298	412.224616321017	2
1	300	412.847437638974	2
1	301	413.243366343009	2
1	302	413.690105570406	1
1	303	415.355341195352	0
1	305	420.147033879065	0
1	306	423.019866999055	0
1	308	426.359153553486	0
1	309	428.747789211468	0
1	311	429.299540061099	0
1	312	430.406605265974	0
1	314	430.77145207279	0
1	316	434.228885400795	1
1	317	435.176457439258	1
1	318	439.139182583021	0
1	320	441.446777028059	0
1	321	449.107590305366	0
1	323	463.026399868734	0
1	324	467.371641996227	0
1	326	480.01944816702	0
1	327	484.174617240752	0
1	329	489.834463842461	0
1	330	493.581822340885	0
1	332	493.660455023056	0
1	333	494.697860416329	0
1	335	510.295254264958	0
1	336	511.100330906701	0
1	338	513.113467919037	0
1	339	513.757037599022	0
1	343	519.992138975258	0
1	347	523.456833483824	1
1	350	526.019182483814	2
1	352	533.284778733531	3
1	354	540.866610077728	3
1	355	541.772290450192	2
1	356	543.698004944313	1
1	357	547.582801906865	0
1	363	550.163022619791	0
1	365	552.123336715203	1
1	368	556.221293813166	2
1	370	557.114969393053	3
1	373	559.067823619489	4
1	374	559.533422583099	4
1	375	561.351318688671	3
1	377	563.884093411293	3
1	378	566.120599227542	3
1	379	566.68359027937	2
1	381	570.103645842638	2
1	382	572.753793869858	2
1	384	575.20962988682	2
1	386	575.452224147909	3
1	390	583.154534787475	4
1	392	585.041168075926	5
1	394	586.284258814566	5
1	395	586.315456303234	4
1	396	592.696479184835	3
1	397	593.032802816306	2
1	398	597.422387570863	1
1	399	597.977676314596	0
1	401	598.178884238224	0
1	402	599.074790842718	0
1	404	607.504399155699	0
1	405	611.971659225106	0
1	409	616.607986551981	0
1	415	630.138370781647	1
1	416	630.381487538403	1
1	417	633.882262518179	0
1	419	646.597121550372	0
1	424	650.448484040975	1
1	425	650.553796272457	1
1	429	654.472889287636	1
1	431	654.489522210653	2
1	433	654.638579731276	3
1	436	657.260165757935	4
1	438	658.033394135472	5
1	439	658.614775848974	5
1	440	659.80169938517	4
1	442	660.382666634767	4
1	443	660.628671051804	4
1	444	662.028676742458	3
1	446	663.575322980033	3
1	448	664.015563842217	4
1	452	669.745792827122	5
1	454	675.72350532869	5
1	456	676.237557307186	5
1	457	680.994143427483	5
1	458	681.113267108231	4
1	460	682.066815730998	4
1	462	685.579142785919	5
1	463	688.655591939976	5
1	465	692.053570801172	5
1	466	699.671903596581	5
1	467	700.294551899471	4
1	468	705.662777431887	3
1	469	706.109905165872	2
1	470	707.382393658806	1
1	471	708.631725104022	0
1	473	709.468442514242	0
1	474	711.682874755982	0
1	479	732.209013902113	0
1	480	742.567903439936	0
1	485	750.972514780991	0
1	486	751.438611186488	0
1	490	753.46600603785	0
1	492	758.940157948176	1
1	499	762.541358331896	2
1	504	771.986490253363	3
1	507	782.620786306091	3
1	509	784.672791238491	3
1	510	789.705948867006	3
1	512	789.721521982061	3
1	514	792.164895762002	4
1	515	793.005401022784	4
1	516	798.408256938326	3
1	518	800.3995456433	3
1	519	800.959756845771	3
1	521	803.360871994424	3
1	523	806.974551036564	4
1	524	808.876201777259	4
1	526	809.94366777106	4
1	530	810.619162871719	5
1	532	812.146913513994	6
1	534	813.537492786948	7
1	537	826.750533624251	8
1	539	828.171570335675	9
1	541	831.80026799918	10
1	545	837.073839393114	11
1	547	842.528969208664	12
1	549	843.436193972395	13
1	551	845.996087471212	13
1	552	847.307450529395	12
1	553	849.259225514142	11
1	555	852.363694256895	11
1	556	852.84890404522	11
1	557	855.354266599681	10
1	558	856.198817295875	9
1	560	860.408793670813	9
1	562	860.425910955908	10
1	564	860.937546007924	11
1	565	865.122453823633	11
1	567	865.311766750695	11
1	568	865.526721792654	11
1	569	865.884744210341	10
1	571	870.247142880085	10
1	572	871.213427523167	10
1	574	873.595660074348	10
1	575	877.753713167457	10
1	579	884.520891585817	10
1	581	886.119184101328	11
1	584	891.932944221274	12
1	588	893.558045314272	13
1	590	897.579718223748	13
1	591	898.838752650566	12
1	593	900.774145450141	12
1	594	905.425816922813	12
1	596	908.893442794284	12
1	597	910.603233174768	12
1	598	910.742786857487	11
1	599	915.480194867394	10
1	601	918.236361902723	10
1	602	918.315840484876	10
1	603	920.248396927203	9
1	605	921.166818604629	9
1	606	923.23358768674	9
1	608	924.544758105067	9
1	610	926.514292726286	10
1	612	926.615012933472	11
1	613	929.014022519388	11
1	614	930.723130715127	10
1	616	931.460484199922	10
1	617	935.666992640807	10
1	618	937.721231314628	9
1	619	938.105801577469	8
1	620	942.08118059993	7
1	622	945.028684911283	7
1	624	949.657801840961	8
1	625	953.617411511746	8
1	626	954.41435625465	7
1	628	957.114500285317	7
1	629	957.529855310997	7
1	633	960.517827256041	7
1	638	970.038328189667	8
1	640	976.253589226341	9
1	644	985.354132062826	10
1	649	989.843354502961	11
1	651	994.424713379039	12
1	653	997.657156204399	13
1	656	999.001720480672	13
1	658	999.526102754713	13
1	659	999.807174123474	13
1	661	1002.204017336833	13
1	662	1003.047592328782	13
1	663	1003.748515273262	12
1	665	1008.986093258582	12
1	666	1011.107767674624	12
1	667	1011.162303121415	11
1	668	1011.730959902772	10
1	669	1011.783560046287	9
1	670	1011.873768107916	8
1	671	1011.910258977541	7
1	672	1012.247545170348	6
1	673	1015.049741323482	5
1	675	1016.045482988568	5
1	676	1016.18991225819	5
1	677	1017.630658925721	4
1	678	1019.257624787162	3
1	679	1024.171837887307	2
1	681	1024.450164041474	2
1	683	1024.58376933086	3
1	685	1025.424451465373	4
1	686	1027.108351089251	4
1	688	1027.951627717149	4
1	689	1028.436930571655	4
1	690	1029.617297539413	3
1	691	1036.306300664065	2
1	692	1037.248943995368	1
1	693	1040.686419176875	0
1	695	1044.775910283519	0
1	696	1048.262885977954	0
1	698	1048.305035954306	0
1	699	1051.174149169965	0
1	701	1057.08171983237	0
1	703	1063.857025737025	1
1	705	1065.116016413492	2
1	706	1065.906304751933	2
1	708	1068.509477362711	2
1	710	1071.168523052823	3
1	715	1080.394765263891	4
1	717	1081.417474054727	5
1	719	1081.442075033467	6
1	720	1082.509933265298	6
1	722	1084.267802550208	6
1	724	1085.189539927569	7
1	725	1085.416102702935	7
1	727	1085.754931914329	7
1	728	1089.326931016876	7
1	730	1090.357710393324	7
1	732	1091.263816937943	8
1	733	1091.831794533813	8
1	734	1092.287510903123	7
1	735	1094.357294947518	6
1	737	1096.467771789838	6
1	738	1101.360892702116	6
1	739	1102.580958860297	5
1	741	1102.721669477971	5
1	742	1105.049482138642	5
1	743	1106.707691764694	4
1	747	1108.10656616471	4
1	749	1113.829584371043	4
1	753	1119.158127295424	4
1	757	1123.096804138085	5
1	762	1128.365416876006	6
1	764	1129.418226530462	7
1	770	1145.360233583694	7
1	772	1147.484357217398	7
1	774	1148.359896228589	8
1	778	1149.647395268366	9
1	780	1150.833600803432	10
1	782	1152.743534637184	11
1	784	1155.891442472839	12
1	786	1157.155187091861	13
1	788	1157.311446483656	14
1	790	1160.279596830192	15
1	792	1161.399926289995	15
1	794	1162.249152108443	15
1	798	1165.290750120788	16
1	801	1167.629799527838	17
1	802	1167.961360047977	17
1	803	1168.377203978198	16
1	804	1168.657646454369	15
1	806	1172.284141025205	15
1	816	1184.368893585697	16
1	818	1184.893037402308	17
1	824	1186.163323620173	18
1	826	1188.66036704121	19
1	828	1189.473725620022	20
1	832	1197.670295370666	21
1	834	1203.087400420179	22
1	836	1208.267779433161	22
1	837	1212.52532180288	21
1	841	1221.533123622854	21
1	845	1230.490658064168	22
1	848	1233.413520361178	23
1	851	1234.772385594297	24
1	852	1235.932611695834	24
1	854	1236.39927647368	24
1	855	1238.606080314858	24
1	856	1239.172141628148	23
1	858	1239.692699368303	23
1	859	1242.290488944478	23
1	861	1242.660522308795	23
1	862	1245.825662630973	23
1	863	1246.972162371918	22
1	864	1248.724666633109	21
1	866	1250.050147305146	21
1	871	1251.437641486421	22
1	872	1251.972891550703	22
1	873	1252.735262791852	21
1	874	1256.711859148909	20
1	876	1266.629724002091	20
1	877	1270.448287162936	20
1	878	1271.032268887939	19
1	879	1272.926742765873	18
1	880	1272.979549384805	17
1	882	1278.625537590468	17
1	883	1279.237145944115	17
1	885	1279.681916546168	17
1	886	1280.320792672896	17
1	887	1281.90388072168	16
1	889	1285.176367843998	16
1	890	1288.374601977595	16
1	891	1289.506158081653	15
1	892	1291.08989498251	14
1	893	1291.375725266327	13
1	894	1297.488669019295	12
1	895	1298.516159838622	11
1	899	1301.256390147766	10
1	900	1302.473497193359	9
1	901	1303.234023403617	8
1	902	1308.106309628342	7
1	906	1309.540849401459	6
1	910	1311.662813505157	6
1	912	1315.466896377353	6
1	913	1317.063610918317	5
1	914	1318.832199944073	4
1	916	1319.201448770826	4
1	917	1319.518061574558	4
1	918	1321.491038634327	3
1	920	1324.207031966092	3
1	922	1324.813138745392	4
1	924	1325.827420687035	5
1	925	1325.988099850379	5
1	926	1328.245075644115	4
1	927	1333.437232525733	3
1	929	1337.312542359182	3
1	930	1344.012553318565	3
1	931	1353.864898167583	2
1	932	1355.13280815223	1
1	933	1355.558952148026	0
1	935	1355.831145940959	0
1	936	1358.181649786656	0
1	941	1368.727960785317	0
1	942	1368.8429026356	0
1	947	1373.019960834067	0
1	948	1376.616075607259	0
1	954	1381.386942990583	0
1	956	1383.46432679071	1
1	958	1384.026608188626	2
1	961	1385.799760203246	3
1	966	1388.318954555164	4
1	972	1395.019284002828	5
1	973	1401.376626131788	5
1	975	1408.67242717095	5
1	977	1412.784593118008	6
1	978	1416.076222513297	6
1	979	1417.593395758409	5
1	981	1418.19503942459	5
1	982	1419.656115637003	5
1	984	1420.341153938854	5
1	985	1424.987331404514	5
1	986	1428.673180825782	4
1	988	1429.940737395875	4
1	989	1431.433839572198	4
1	990	1433.804427530512	3
1	991	1434.099238905378	2
1	992	1435.879380879341	1
1	993	1437.989886572015	0
1	995	1438.508325669406	0
1	997	1439.327612660222	1
1	998	1440.505517207833	1
1	999	1443.139497747935	0
1	1001	1443.482085360727	0
1	1002	1446.81263385237	0
1	1004	1449.520613472892	0
1	1005	1451.409903210755	0
1	1007	1452.528012900288	0
1	1009	1452.887718349104	1
1	1010	1453.259815540227	1
1	1011	1462.899646216088	0
1	1015	1466.046534316603	0
1	1017	1467.304895229814	0
1	1019	1470.389721584042	0
1	1020	1473.071018479115	0
1	1022	1479.794677656541	0
1	1023	1485.183408485229	0
1	1025	1487.054120614241	0
1	1027	1487.62919788866	1
1	1028	1488.121696685055	1
1	1030	1490.515991234395	1
1	1032	1490.735471523035	2
1	1034	1491.430134500405	3
1	1035	1494.31432871617	3
1	1036	1495.248970086893	2
1	1038	1498.082415283555	2
1	1040	1498.71775413076	3
1	1041	1499.055031344987	3
1	1042	1500.425002741661	2
1	1044	1503.274156943778	2
1	1046	1505.340554099959	3
1	1048	1508.369728313802	4
1	1050	1509.254121315521	5
1	1052	1510.52148681226	6
1	1053	1512.769702075305	6
1	1054	1513.168640437369	5
1	1055	1515.414611099353	4
1	1057	1516.166767972106	4
1	1061	1519.037171496292	5
1	1063	1521.596800900864	5
1	1067	1523.939151468374	5
1	1069	1530.556996526369	5
1	1071	1533.044892252085	5
1	1072	1533.244825668978	5
1	1073	1534.038515113854	4
1	1074	1534.961161778919	3
1	1075	1536.968565172835	2
1	1076	1539.079137684994	1
1	1077	1540.100656478819	0
1	1081	1544.660305467208	0
1	1083	1545.386428093617	1
1	1085	1547.870879131943	1
1	1086	1549.113990091749	0
1	1091	1553.702106087818	0
1	1092	1554.243843901312	0
1	1096	1557.757356777519	0
1	1099	1560.778312994031	1
1	1100	1561.552155171545	1
1	1101	1561.564618255883	0
1	1103	1561.837518655059	0
1	1104	1566.031081367732	0
1	1106	1567.450751943713	0
1	1110	1585.233723829818	1
1	1112	1591.745185493878	2
1	1118	1601.309004750005	3
1	1120	1602.338574570068	4
1	1122	1603.606852264303	5
1	1124	1603.883306136076	6
1	1126	1609.730843649195	7
1	1127	1613.228350109224	7
1	1128	1614.882269379347	6
1	1129	1615.779410463495	5
1	1130	1616.315973161055	4
1	1134	1620.289064541907	4
1	1136	1621.610842077804	5
1	1140	1625.356233057576	6
1	1142	1625.423261025944	7
1	1147	1631.800479471565	8
1	1149	1632.480306459395	9
1	1154	1638.541526989927	10
1	1156	1638.647006368497	11
1	1158	1643.234881434735	12
1	1161	1645.944264411086	12
1	1163	1651.934585460807	12
1	1164	1653.048017732649	12
1	1165	1653.538369949957	11
1	1167	1661.382532323604	11
1	1169	1664.052129700356	12
1	1174	1669.044939025694	13
1	1176	1670.190160555727	14
1	1177	1670.43878508154	14
1	1178	1670.521067007469	13
1	1182	1671.690087264358	13
1	1184	1672.406074631101	14
1	1187	1675.016990390207	15
1	1191	1677.893780993774	16
1	1193	1686.522369150205	16
1	1195	1686.618800111553	16
1	1197	1687.764330171142	17
1	1199	1688.123734430723	18
1	1203	1691.560580539139	18
1	1205	1693.902409870162	18
1	1206	1698.439184497963	18
1	1208	1699.398459776312	18
1	1209	1700.291125524557	18
1	1210	1700.613667895307	17
1	1214	1704.455415900561	17
1	1216	1705.147451499426	18
1	1218	1706.322217466029	19
1	1221	1712.16731811566	20
1	1228	1718.249891113244	21
1	1232	1721.886769461509	22
1	1237	1725.888727431615	23
1	1240	1739.996068781456	23
1	1241	1743.494423676628	22
1	1242	1747.999512764683	21
1	1244	1748.647872705615	21
1	1246	1750.839479681179	22
1	1247	1753.2259508753	22
1	1249	1753.426092917108	22
1	1251	1754.494877899116	23
1	1255	1757.569931772867	23
1	1259	1763.411805597641	23
1	1261	1766.651947818906	24
1	1263	1769.192050237172	25
1	1265	1773.395750906177	26
1	1267	1774.188161109913	27
1	1269	1777.33027211534	28
1	1271	1783.939780267708	29
1	1273	1785.26751617422	29
1	1274	1785.976974102685	28
1	1275	1786.771169588558	27
1	1279	1792.30087682214	27
1	1281	1796.486616701754	28
1	1283	1799.839769343866	29
1	1285	1805.226176524752	30
1	1287	1805.795839170358	31
1	1289	1806.642306327556	32
1	1291	1808.113257827011	33
1	1297	1817.046127762818	34
1	1299	1820.104706062898	35
1	1301	1822.024126646355	36
1	1302	1828.607174292345	36
1	1303	1828.938027166375	35
1	1304	1831.139954924783	34
1	1305	1837.874734957733	33
1	1306	1838.488635944234	32
1	1307	1838.889603019433	31
1	1309	1842.017485290655	31
1	1310	1843.952592045139	31
1	1311	1844.099837705874	30
1	1313	1844.842234746124	30
1	1314	1847.036436185701	30
1	1315	1847.363222517866	29
1	1320	1856.69197332078	29
1	1324	1859.866509544992	30
1	1326	1866.029183724137	30
1	1330	1874.846904633549	29
1	1331	1875.949963821824	28
1	1336	1885.990439936603	28
1	1340	1890.743574611549	29
1	1342	1893.469390623473	30
1	1348	1904.455047293183	31
1	1349	1904.522570596535	31
1	1350	1905.987887719983	30
1	1351	1906.042592436667	29
1	1353	1906.540681648785	29
1	1354	1910.936837033318	29
1	1355	1914.110094150459	28
1	1356	1916.498766522388	27
1	1357	1919.184592932393	26
1	1359	1919.404827708429	26
1	1360	1919.436918616635	26
1	1361	1920.074116808578	25
1	1363	1921.469959428215	25
1	1364	1924.836688232061	25
1	1366	1925.630007568518	25
1	1368	1927.869340102419	26
1	1370	1929.509578758657	27
1	1372	1935.145038982498	28
1	1374	1935.55870605702	29
1	1375	1937.342981593217	29
1	1377	1943.357365903692	29
1	1379	1944.823952326926	30
1	1380	1945.173513941321	30
1	1381	1947.154989703693	29
1	1383	1948.794344126406	29
1	1384	1951.364728992367	29
1	1385	1953.123037775179	28
1	1387	1955.039725371347	28
1	1392	1962.734595956571	29
1	1394	1962.912676406839	30
1	1395	1963.79197535553	30
1	1396	1964.449386169486	29
1	1398	1966.10124507052	29
1	1400	1966.239319152415	30
1	1401	1968.739109092072	30
1	1405	1980.263727258309	29
1	1406	1983.523512394406	28
1	1408	1984.127289445435	28
1	1410	1985.032970409183	29
1	1411	1985.90504764355	29
1	1413	1985.9096761708	29
1	1415	1986.455961606744	30
1	1417	1987.590385469153	31
1	1418	1987.76034965864	31
1	1419	1988.025333192091	30
1	1420	1988.233499663181	29
1	1421	1993.957095091731	28
1	1423	1996.715035046665	28
1	1424	1996.809222011603	28
1	1426	1998.035561000208	28
1	1428	1998.138608531403	29
1	1432	2000.031509751602	30
1	1434	2001.129777601136	31
1	1436	2002.590451863891	32
1	1438	2004.064026172113	33
1	1440	2004.580236370456	33
1	1441	2006.895938869865	32
1	1443	2008.193965410146	32
1	1445	2009.704306186942	33
1	1447	2010.820848489253	34
1	1448	2014.696424513889	34
1	1449	2016.477268553449	33
1	1450	2020.207532116142	32
1	1452	2022.040097350062	32
1	1453	2023.476120935889	32
1	1454	2025.141828569983	31
1	1455	2027.769588901872	30
1	1457	2028.66852236302	30
1	1459	2029.804812116343	31
1	1461	2031.06453852312	32
1	1465	2031.540608997211	33
1	1468	2036.829491280475	34
1	1470	2039.48547345398	35
1	1471	2039.529981313235	35
1	1472	2039.582033849703	34
1	1473	2045.183405533428	33
1	1477	2049.626230817715	33
1	1480	2054.387693595166	34
1	1482	2055.003839802682	35
1	1483	2057.299608035982	35
1	1485	2058.830541681627	35
1	1487	2060.025692797981	36
1	1488	2060.606842388148	36
1	1489	2063.64663296065	35
1	1490	2066.381698986358	34
1	1491	2067.811785596168	33
1	1495	2072.297222400659	32
1	1497	2076.266669979862	32
1	1498	2076.534742527087	32
1	1499	2076.619920364406	31
1	1500	2077.738835430662	30
1	1502	2079.916073953211	30
1	1504	2081.299583138602	31
1	1505	2081.375687988348	31
1	1507	2081.471500585209	31
1	1508	2081.638330921756	31
1	1510	2082.735471898093	31
1	1512	2085.123439687578	32
1	1514	2085.132919422742	33
1	1516	2086.17254728669	34
1	1518	2088.174008388992	35
1	1519	2093.796495233321	35
1	1520	2094.509341658759	34
1	1522	2097.318126678011	34
1	1523	2106.768417392875	34
1	1524	2108.31852601151	33
1	1526	2109.277267361983	33
1	1528	2110.470369539539	34
1	1532	2114.583128937194	35
1	1534	2117.647961215201	35
1	1536	2118.964176350933	35
1	1538	2119.646548764132	36
1	1539	2120.783236717529	36
1	1541	2124.320468763103	36
1	1542	2124.681035958894	36
1	1543	2129.959353632252	35
1	1544	2134.34510480161	34
1	1548	2141.63853163844	34
1	1550	2145.492583337373	35
1	1552	2152.311184727929	36
1	1554	2154.337298580223	36
1	1556	2155.365027993928	36
1	1558	2156.081132765709	37
1	1560	2156.788175220711	38
1	1564	2161.521079165261	39
1	1566	2165.553421327885	40
1	1568	2168.915797054875	41
1	1575	2186.207192478608	42
1	1581	2189.383885644193	43
1	1584	2190.87406377518	44
1	1585	2191.775896759512	44
1	1586	2193.472079657441	43
1	1587	2194.77465593885	42
1	1588	2194.81785706074	41
1	1589	2194.957824210309	40
1	1590	2195.551609370925	39
1	1591	2198.02772923683	38
1	1592	2198.58685378504	37
1	1593	2199.284028732042	36
1	1595	2202.525065950106	36
1	1597	2202.820874086859	37
1	1599	2203.189142805132	38
1	1600	2204.564119848906	38
1	1602	2206.465941709543	38
1	1603	2206.547117188671	38
1	1605	2207.457451190127	38
1	1607	2214.615568764358	39
1	1609	2214.645212521272	40
1	1611	2215.358784781677	41
1	1618	2233.211472320429	41
1	1619	2236.773507041054	40
1	1620	2241.888129975282	39
1	1624	2250.256756514057	39
1	1626	2251.400415625153	40
1	1628	2257.470180432331	40
1	1629	2258.757270682531	39
1	1631	2264.075289359646	39
1	1633	2264.413659591005	40
1	1635	2264.611243006942	41
1	1636	2266.971721038787	41
1	1637	2268.304245021987	40
1	1639	2268.328886187555	40
1	1641	2272.244390500356	41
1	1642	2276.658441909627	41
1	1643	2276.954981650318	40
1	1644	2278.693602556513	39
1	1646	2278.864454742242	39
1	1648	2279.584010536818	40
1	1650	2284.435319553527	41
1	1651	2284.953464875584	41
1	1652	2287.094457383531	40
1	1653	2287.271473854921	39
1	1655	2293.465734273686	39
1	1656	2297.147558680881	39
1	1657	2300.002552847227	38
1	1658	2305.940244777651	37
1	1659	2306.840467297546	36
1	1661	2308.136887435655	36
1	1662	2308.347080899838	36
1	1663	2309.053223567291	35
1	1665	2309.311325836544	35
1	1666	2310.638748308518	35
1	1667	2311.361078835484	34
1	1668	2314.040164630955	33
1	1669	2315.059675868475	32
1	1670	2315.147963389228	31
1	1674	2317.813756427994	31
1	1678	2323.126533836025	32
1	1680	2323.47261368094	33
1	1682	2325.209481817139	34
1	1685	2326.7607567924	35
1	1689	2331.453057165151	36
1	1691	2340.282245872284	37
1	1698	2358.613950581093	38
1	1699	2361.897403900638	38
1	1700	2364.525104332483	37
1	1701	2364.615827400518	36
1	1703	2365.567164460692	36
1	1704	2366.266080621444	36
1	1708	2371.08096217497	36
1	1710	2371.285340921587	37
1	1712	2371.630099345307	38
1	1714	2374.977285337728	39
1	1720	2376.192059999553	40
1	1722	2377.004649625572	41
1	1726	2380.012718252098	42
1	1728	2380.863030777758	43
1	1730	2383.444846822055	44
1	1734	2386.141780085943	45
1	1736	2386.829418639448	46
1	1738	2388.732003327893	47
1	1740	2392.495211352321	48
1	1742	2393.848934837239	49
1	1744	2394.433842190639	50
1	1747	2397.568973368455	51
1	1749	2397.888866545417	52
1	1752	2409.742803459793	53
1	1754	2409.88364784609	54
1	1756	2410.212686494703	55
1	1761	2413.867405059722	56
1	1763	2415.717674215035	57
1	1765	2418.654691615477	58
1	1767	2420.799567632606	59
1	1770	2421.451599110843	60
1	1774	2426.664337116221	61
1	1781	2452.600441722975	61
1	1782	2456.27044086287	60
1	1784	2457.263822682544	60
1	1785	2458.211131054482	60
1	1786	2466.49082644383	59
1	1787	2466.851930405593	58
1	1788	2467.735567067472	57
1	1789	2468.342520491751	56
1	1790	2474.569632853165	55
1	1791	2477.587141820317	54
1	1792	2479.63740170209	53
1	1793	2487.108917935427	52
1	1794	2496.266277147694	51
1	1795	2498.277185530186	50
2	250	351.837206198405	9.369432138093
2	251	351.945699519714	8.328523249559
2	254	354.732642964065	9.973102873056
2	255	360.343699945584	8.243213505614
2	266	377.993277751817	7.233257764013
2	267	380.590408887798	7.034472443312
2	268	382.426944929263	8.667266918948
2	269	385.835532318497	8.58753912321
2	270	385.968901993813	8.62332940929
2	275	390.10421470283	1.754345263651
2	282	394.048288718869	3.856203449249
2	291	406.092982424905	11.870830485419
2	292	407.31494457473	13.034526742883
2	298	412.224616321017	11.402443933358
2	301	413.243366343009	5.8038341211
2	302	413.690105570406	6.119531255106
2	303	415.355341195352	2.507903556378
2	306	423.019866999055	2.87283311999
2	309	428.747789211468	2.388635657982
2	312	430.406605265974	1.107065204875
2	317	435.176457439258	4.405005366468
2	318	439.139182583021	4.910297182226
2	321	449.107590305366	7.660813277307
2	324	467.371641996227	4.345242127493
2	327	484.174617240752	4.155169073732
2	330	493.581822340885	3.747358498424
2	333	494.697860416329	1.037405393273
2	336	511.100330906701	0.805076641743
2	339	513.757037599022	0.643569679985
2	354	540.866610077728	20.87447110247
2	355	541.772290450192	18.315456966368
2	356	543.698004944313	17.678822460499
2	357	547.582801906865	14.298023173334
2	374	559.533422583099	9.370399963308
2	375	561.351318688671	9.227981973468
2	378	566.120599227542	9.899305414376
2	379	566.68359027937	9.568620886317
2	382	572.753793869858	13.685970250369
2	394	586.284258814566	16.180612971928
2	395	586.315456303234	11.105826416414
2	396	592.696479184835	17.244255036926
2	397	593.032802816306	17.366640540527
2	398	597.422387570863	14.267852783388
2	399	597.977676314596	12.93650823867
2	402	599.074790842718	0.895906604494
2	405	611.971659225106	4.467260069407
2	416	630.381487538403	13.773500986422
2	417	633.882262518179	3.743891736532
2	425	650.553796272457	3.482603760881
2	439	658.614775848974	6.985983498318
2	440	659.80169938517	5.328810097534
2	443	660.628671051804	6.139148841151
2	444	662.028676742458	7.390097011182
2	454	675.72350532869	17.690111193218
2	457	680.994143427483	20.611476792716
2	458	681.113267108231	17.537944128198
2	463	688.655591939976	24.640028097759
2	466	699.671903596581	34.406155044651
2	467	700.294551899471	30.548759072349
2	468	705.662777431887	29.425220124701
2	469	706.109905165872	24.043089434874
2	470	707.382393658806	21.803250872887
2	471	708.631725104022	16.57815430285
2	474	711.682874755982	2.21443224174
2	480	742.567903439936	10.358889537823
2	486	751.438611186488	0.466096405497
2	507	782.620786306091	29.154780268241
2	510	789.705948867006	30.76579091883
2	515	793.005401022784	30.464042690888
2	516	798.408256938326	26.421766684963
2	519	800.959756845771	16.28696560728
2	524	808.876201777259	19.154679795198
2	551	845.996087471212	42.635215476788
2	552	847.307450529395	40.332899492831
2	553	849.259225514142	39.315557743082
2	556	852.84890404522	42.84994075558
2	557	855.354266599681	44.735103727962
2	558	856.198817295875	44.051903781881
2	565	865.122453823633	51.584961036685
2	568	865.526721792654	38.776188168403
2	569	865.884744210341	37.713173874666
2	572	871.213427523167	39.413159523987
2	575	877.753713167457	41.640985903427
2	590	897.579718223748	54.143524251353
2	591	898.838752650566	46.475058393671
2	594	905.425816922813	45.017023252
2	597	910.603233174768	50.17732221886
2	598	910.742786857487	49.805240849563
2	599	915.480194867394	50.168428116699
2	602	918.315840484876	48.068697604791
2	603	920.248396927203	46.652736852855
2	606	923.23358768674	43.132549962964
2	613	929.014022519388	44.493130933571
2	614	930.723130715127	44.603946613799
2	617	935.666992640807	43.734048419533
2	618	937.721231314628	44.553750554728
2	619	938.105801577469	44.547756263197
2	620	942.08118059993	41.307035149789
2	625	953.617411511746	44.723968717462
2	626	954.41435625465	36.177994351927
2	629	957.529855310997	36.363036706368
2	656	999.001720480672	72.487427754386
2	659	999.807174123474	73.192161190002
2	662	1003.047592328782	71.58710812886
2	663	1003.748515273262	58.719830361979
2	666	1011.107767674624	61.449965833663
2	667	1011.162303121415	54.047802836098
2	668	1011.730959902772	52.744277314798
2	669	1011.783560046287	51.265732790246
2	670	1011.873768107916	41.835439918249
2	671	1011.910258977541	35.6566697512
2	672	1012.247545170348	26.893413107522
2	673	1015.049741323482	25.206386820521
2	676	1016.18991225819	21.765198879151
2	677	1017.630658925721	19.973502721322
2	678	1019.257624787162	19.731522032449
2	679	1024.171837887307	21.967820550474
2	686	1027.108351089251	18.122257830669
2	689	1028.436930571655	12.391447583087
2	690	1029.617297539413	5.167133497939
2	691	1036.306300664065	11.722531333205
2	692	1037.248943995368	11.824492529995
2	693	1040.686419176875	12.734791459726
2	696	1048.262885977954	3.486975694435
2	699	1051.174149169965	2.869113215659
2	706	1065.906304751933	8.824584919563
2	720	1082.509933265298	17.393916851806
2	725	1085.416102702935	16.906625340224
2	728	1089.326931016876	18.158407964053
2	733	1091.831794533813	20.134266341684
2	734	1092.287510903123	11.892745639232
2	735	1094.357294947518	12.939820892791
2	738	1101.360892702116	19.918817668649
2	739	1102.580958860297	18.313156310089
2	742	1105.049482138642	19.859942211073
2	743	1106.707691764694	20.952759850365
2	749	1113.829584371043	22.5657674331
2	770	1145.360233583694	42.638564105723
2	792	1161.399926289995	53.293360125285
2	802	1167.961360047977	48.803232752553
2	803	1168.377203978198	45.280399840113
2	804	1168.657646454369	40.292229578363
2	836	1208.267779433161	59.907883204572
2	837	1212.52532180288	63.991403161143
2	852	1235.932611695834	85.099010892402
2	855	1238.606080314858	85.862545677674
2	856	1239.172141628148	83.280699155309
2	859	1242.290488944478	85.135301852617
2	862	1245.825662630973	88.514216147317
2	863	1246.972162371918	86.692565541726
2	864	1248.724666633109	86.475514524666
2	872	1251.972891550703	86.682141429915
2	873	1252.735262791852	85.105463264014
2	874	1256.711859148909	84.427718123704
2	877	1270.448287162936	96.377180264664
2	878	1271.032268887939	88.29609022011
2	879	1272.926742765873	88.557849180176
2	880	1272.979549384805	88.086511982497
2	883	1279.237145944115	93.073822323942
2	886	1280.320792672896	91.660425631686
2	887	1281.90388072168	92.430155101658
2	890	1288.374601977595	90.704306606929
2	891	1289.506158081653	86.418757661474
2	892	1291.08989498251	76.845580191882
2	893	1291.375725266327	69.842601643473
2	894	1297.488669019295	66.998010955127
2	895	1298.516159838622	65.102639477444
2	899	1301.256390147766	64.857113674086
2	900	1302.473497193359	62.780797825056
2	901	1303.234023403617	60.573501094822
2	902	1308.106309628342	58.056162323196
2	906	1309.540849401459	58.103207915038
2	912	1315.466896377353	36.841358786885
2	913	1317.063610918317	37.381694372149
2	914	1318.832199944073	33.655832100075
2	917	1319.518061574558	20.867672282679
2	918	1321.491038634327	13.365952558286
2	925	1325.988099850379	15.699726845629
2	926	1328.245075644115	16.582262138958
2	927	1333.437232525733	14.235783754907
2	930	1344.012553318565	19.805521352473
2	931	1353.864898167583	29.051759422191
2	932	1355.13280815223	29.305387465195
2	933	1355.558952148026	18.246409788844
2	936	1358.181649786656	2.350503845697
2	942	1368.8429026356	0.114941850283
2	948	1376.616075607259	3.596114773192
2	973	1401.376626131788	17.912299341078
2	978	1416.076222513297	32.049614324671
2	979	1417.593395758409	31.793635555163
2	982	1419.656115637003	31.337161081839
2	985	1424.987331404514	35.879262012518
2	986	1428.673180825782	33.653896822954
2	989	1431.433839572198	22.761412401248
2	990	1433.804427530512	21.019834412504
2	991	1434.099238905378	15.904199480788
2	992	1435.879380879341	15.538226940487
2	993	1437.989886572015	8.04914917614
2	998	1440.505517207833	1.997191538427
2	999	1443.139497747935	3.811885087713
2	1002	1446.81263385237	3.330548491643
2	1005	1451.409903210755	1.889289737863
2	1010	1453.259815540227	0.731802639939
2	1011	1462.899646216088	10.011927866984
2	1017	1467.304895229814	1.258360913211
2	1020	1473.071018479115	2.681296895073
2	1023	1485.183408485229	5.388730828688
2	1028	1488.121696685055	1.067576070814
2	1035	1494.31432871617	6.68513082751
2	1036	1495.248970086893	4.732978852498
2	1041	1499.055031344987	8.319559821952
2	1042	1500.425002741661	8.994868241256
2	1053	1512.769702075305	14.68728679175
2	1054	1513.168640437369	14.450886306609
2	1055	1515.414611099353	12.140454155575
2	1063	1521.596800900864	13.227072587062
2	1069	1530.556996526369	20.035509714109
2	1072	1533.244825668978	17.078057696872
2	1073	1534.038515113854	15.989981301405
2	1074	1534.961161778919	15.923990282627
2	1075	1536.968565172835	14.853264253721
2	1076	1539.079137684994	15.13998621662
2	1077	1540.100656478819	7.055764226734
2	1085	1547.870879131943	3.210573664735
2	1086	1549.113990091749	3.727561998132
2	1092	1554.243843901312	0.541737813494
2	1100	1561.552155171545	3.794798394026
2	1101	1561.564618255883	0.786305261852
2	1104	1566.031081367732	4.193562712673
2	1127	1613.228350109224	44.896798516296
2	1128	1614.882269379347	29.648545549529
2	1129	1615.779410463495	24.034224969617
2	1130	1616.315973161055	15.00696841105
2	1161	1645.944264411086	42.337412146783
2	1164	1653.048017732649	49.164711596573
2	1165	1653.538369949957	43.807526300762
2	1177	1670.43878508154	50.149720539633
2	1178	1670.521067007469	48.910224929665
2	1193	1686.522369150205	54.72188967864
2	1203	1691.560580539139	53.019053549212
2	1206	1698.439184497963	59.792178129466
2	1209	1700.291125524557	57.056244089822
2	1210	1700.613667895307	48.6790824345
2	1240	1739.996068781456	75.505590351734
2	1241	1743.494423676628	74.449484650934
2	1242	1747.999512764683	77.809352208956
2	1247	1753.2259508753	81.84429562159
2	1255	1757.569931772867	85.163857141766
2	1273	1785.26751617422	110.00040911267
2	1274	1785.976974102685	108.08319310891
2	1275	1786.771169588558	100.152369477
2	1302	1828.607174292345	138.75920291698
2	1303	1828.938027166375	135.03561729621
2	1304	1831.139954924783	131.74149514847
2	1305	1837.874734957733	135.12782143819
2	1306	1838.488635944234	134.03322004367
2	1307	1838.889603019433	133.74215152001
2	1310	1843.952592045139	137.63037457911
2	1311	1844.099837705874	131.93251959021
2	1314	1847.036436185701	134.53883367094
2	1315	1847.363222517866	129.11333140462
2	1326	1866.029183724137	117.38131101852
2	1330	1874.846904633549	121.42081171644
2	1331	1875.949963821824	121.45508592271
2	1349	1904.522570596535	137.87062277763
2	1350	1905.987887719983	136.79583748281
2	1351	1906.042592436667	132.64684153049
2	1354	1910.936837033318	136.7486759234
2	1355	1914.110094150459	136.77982203512
2	1356	1916.498766522388	132.55898625468
2	1357	1919.184592932393	132.12512649734
2	1360	1919.436918616635	127.1360417945
2	1361	1920.074116808578	123.58750010682
2	1364	1924.836688232061	124.99691888819
2	1375	1937.342981593217	132.11680506846
2	1380	1945.173513941321	139.37767477096
2	1381	1947.154989703693	140.51268337614
2	1384	1951.364728992367	143.25147116536
2	1385	1953.123037775179	143.63672362209
2	1395	1963.79197535553	143.68726929263
2	1396	1964.449386169486	142.42525952313
2	1401	1968.739109092072	126.72162380142
2	1405	1980.263727258309	132.8725744769
2	1406	1983.523512394406	126.83153907363
2	1411	1985.90504764355	128.67999877712
2	1418	1987.76034965864	127.89384011365
2	1419	1988.025333192091	121.75350239408
2	1420	1988.233499663181	109.65543217079
2	1421	1993.957095091731	107.96665515513
2	1424	1996.809222011603	110.05206210797
2	1440	2004.580236370456	111.11084574698
2	1441	2006.895938869865	103.63034278594
2	1448	2014.696424513889	110.24137722071
2	1449	2016.477268553449	109.93658690466
2	1450	2020.207532116142	100.80270440771
2	1453	2023.476120935889	102.00616150767
2	1454	2025.141828569983	99.511821001465
2	1455	2027.769588901872	99.900248799453
2	1471	2039.529981313235	104.38494233074
2	1472	2039.582033849703	104.02332779268
2	1473	2045.183405533428	101.82603962974
2	1483	2057.299608035982	108.50526390958
2	1488	2060.606842388148	105.5671170168
2	1489	2063.64663296065	107.22123309035
2	1490	2066.381698986358	103.64710302979
2	1491	2067.811785596168	104.89910918933
2	1495	2072.297222400659	106.05790324824
2	1498	2076.534742527087	106.7002397338
2	1499	2076.619920364406	92.492630918971
2	1500	2077.738835430662	92.705865021479
2	1505	2081.375687988348	95.466011817548
2	1508	2081.638330921756	95.182369315012
2	1519	2093.796495233321	106.20610976417
2	1520	2094.509341658759	97.794306612094
2	1523	2106.768417392875	108.73285639267
2	1524	2108.31852601151	110.17991748011
2	1534	2117.647961215201	117.6164514636
2	1539	2120.783236717529	119.65345911639
2	1542	2124.681035958894	122.090584095
2	1543	2129.959353632252	125.89532746014
2	1544	2134.34510480161	126.15113939146
2	1554	2154.337298580223	143.51645009097
2	1585	2191.775896759512	163.10737439649
2	1586	2193.472079657441	163.6672675411
2	1587	2194.77465593885	163.71011741573
2	1588	2194.81785706074	163.28728140736
2	1589	2194.957824210309	163.4172152131
2	1590	2195.551609370925	158.72211809045
2	1591	2198.02772923683	158.54225578285
2	1592	2198.58685378504	149.18351592375
2	1593	2199.284028732042	149.65779791433
2	1600	2204.564119848906	150.17642625374
2	1603	2206.547117188671	151.54327738599
2	1618	2233.211472320429	173.18577952245
2	1619	2236.773507041054	167.62460297028
2	1620	2241.888129975282	165.62145999542
2	1628	2257.470180432331	176.17059729373
2	1629	2258.757270682531	177.28577009732
2	1636	2266.971721038787	184.23624914069
2	1637	2268.304245021987	183.18080533441
2	1642	2276.658441909627	191.52552248688
2	1643	2276.954981650318	190.78243436363
2	1644	2278.693602556513	190.51959416752
2	1651	2284.953464875584	187.63533819757
2	1652	2287.094457383531	177.81719002155
2	1653	2287.271473854921	176.80110431538
2	1656	2297.147558680881	184.28040918221
2	1657	2300.002552847227	185.41942391003
2	1658	2305.940244777651	186.97606842672
2	1659	2306.840467297546	187.19391853341
2	1662	2308.347080899838	184.02661213673
2	1663	2309.053223567291	174.61243165815
2	1666	2310.638748308518	169.00021667008
2	1667	2311.361078835484	165.86849549811
2	1668	2314.040164630955	161.72897990303
2	1669	2315.059675868475	159.69464787455
2	1670	2315.147963389228	159.06683062352
2	1699	2361.897403900638	204.68460167925
2	1700	2364.525104332483	203.00402516722
2	1701	2364.615827400518	199.06240607263
2	1704	2366.266080621444	197.35028356657
2	1781	2452.600441722975	261.7263779478
2	1782	2456.27044086287	253.74537491276
2	1785	2458.211131054482	255.39025696762
2	1786	2466.49082644383	263.3016836387
2	1787	2466.851930405593	260.38598869605
2	1788	2467.735567067472	260.27811587734
2	1789	2468.342520491751	253.72695172739
2	1790	2474.569632853165	259.92442033189
2	1791	2477.587141820317	262.22835703864
2	1792	2479.63740170209	260.10187046847
2	1793	2487.108917935427	241.44999802521
2	1794	2496.266277147694	246.00952063364
2	1795	2498.277185530186	246.87676990503
3	250	351.837206198405	8.22002992825
3	251	351.945699519714	7.186159428705
3	254	354.732642964065	2.632156524095
3	257	370.760019987804	0
3	266	377.993277751817	4.437341307331
3	267	380.590408887798	6.830730877483
3	268	382.426944929263	5.178951733976
3	269	385.835532318497	8.489959733974
3	272	388.349869439179	0
3	275	390.10421470283	0.675880950958
3	281	393.661352364086	3.469267094466
3	284	394.222151939486	0
3	291	406.092982424905	11.812564593058
3	292	407.31494457473	9.453607598653
3	297	410.442778319088	9.620605931429
3	298	412.224616321017	4.785084099108
3	301	413.243366343009	5.672792027709
3	302	413.690105570406	0.842667931432
3	305	420.147033879065	0
3	308	426.359153553486	0
3	311	429.299540061099	0
3	314	430.77145207279	0
3	317	435.176457439258	0.947572038463
3	320	441.446777028059	0
3	323	463.026399868734	0
3	326	480.01944816702	0
3	329	489.834463842461	0
3	332	493.660455023056	0
3	335	510.295254264958	0
3	338	513.113467919037	0
3	353	537.256423771993	17.264284796735
3	354	540.866610077728	17.409776593904
3	355	541.772290450192	15.753107966378
3	356	543.698004944313	10.413226210782
3	371	558.279795088441	8.11677246865
3	374	559.533422583099	7.410085867896
3	375	561.351318688671	5.130024875505
3	378	566.120599227542	9.005629834489
3	379	566.68359027937	7.615766659881
3	382	572.753793869858	8.869700458565
3	393	585.573793226432	15.470147383794
3	394	586.284258814566	11.074628927746
3	395	586.315456303234	10.863232155325
3	396	592.696479184835	17.030316909056
3	397	593.032802816306	9.878268028831
3	398	597.422387570863	12.381219494937
3	401	598.178884238224	0
3	404	607.504399155699	0
3	413	629.44446814148	12.836481589499
3	416	630.381487538403	0.243116756756
3	419	646.597121550372	0
3	422	648.677841417669	1.606648906093
3	425	650.553796272457	0.105312231482
3	434	655.84213481308	4.213342462424
3	439	658.614775848974	4.141886561338
3	440	659.80169938517	5.312177174517
3	443	660.628671051804	5.990091320528
3	444	662.028676742458	4.768510984523
3	453	675.413442380476	17.380048245004
3	454	675.72350532869	15.340838693923
3	457	680.994143427483	17.41882044745
3	458	681.113267108231	17.097703266014
3	463	688.655591939976	23.389843388046
3	466	699.671903596581	29.926110769459
3	467	700.294551899471	24.056994592285
3	468	705.662777431887	23.595961700889
3	469	706.109905165872	20.530762379953
3	470	707.382393658806	15.328822857634
3	473	709.468442514242	0
3	479	732.209013902113	0
3	485	750.972514780991	0
3	506	782.225336173391	28.759330135541
3	507	782.620786306091	23.680628357915
3	510	789.705948867006	27.16459053511
3	515	793.005401022784	21.018910769421
3	516	798.408256938326	13.735465699835
3	519	800.959756845771	11.23823486371
3	524	808.876201777259	16.711306015257
3	535	824.521942834875	24.122397191575
3	550	844.232312406263	40.871440411839
3	551	845.996087471212	39.021536434648
3	552	847.307450529395	37.363782758335
3	553	849.259225514142	39.260262224502
3	556	852.84890404522	42.229741173501
3	557	855.354266599681	43.207353085687
3	558	856.198817295875	42.661324508927
3	565	865.122453823633	38.371920199382
3	568	865.526721792654	37.355151456979
3	569	865.884744210341	34.084476211161
3	572	871.213427523167	35.100700259137
3	575	877.753713167457	40.679873774343
3	582	891.219300784814	48.69033157615
3	589	896.846461774226	53.410267801831
3	590	897.579718223748	45.216023966853
3	591	898.838752650566	38.429958979753
3	594	905.425816922813	44.999905966905
3	597	910.603233174768	49.665687166844
3	598	910.742786857487	45.431020106792
3	599	915.480194867394	45.233051987309
3	602	918.315840484876	44.720180410528
3	603	920.248396927203	40.147359203427
3	606	923.23358768674	38.712696100923
3	613	929.014022519388	42.89483841806
3	614	930.723130715127	38.790186493853
3	617	935.666992640807	42.499511880907
3	618	937.721231314628	44.163186000356
3	619	938.105801577469	37.331656127328
3	620	942.08118059993	33.187737805646
3	625	953.617411511746	35.381049609023
3	626	954.41435625465	33.247537650021
3	629	957.529855310997	32.98509720593
3	655	998.318358786027	71.804066059741
3	656	999.001720480672	72.3867075472
3	659	999.807174123474	68.346689923552
3	662	1003.047592328782	58.018907417499
3	663	1003.748515273262	54.090713432301
3	666	1011.107767674624	53.993267389307
3	667	1011.162303121415	52.175620533441
3	668	1011.730959902772	51.213132646731
3	669	1011.783560046287	41.74523185662
3	670	1011.873768107916	35.620178881575
3	671	1011.910258977541	26.556126914715
3	672	1012.247545170348	22.404190667387
3	673	1015.049741323482	20.625027944443
3	676	1016.18991225819	18.532756053791
3	677	1017.630658925721	18.104556171008
3	678	1019.257624787162	17.053607450329
3	679	1024.171837887307	15.185744628725
3	686	1027.108351089251	11.062868100683
3	689	1028.436930571655	3.986766530181
3	690	1029.617297539413	5.033528208553
3	691	1036.306300664065	10.881849198692
3	692	1037.248943995368	9.297316278219
3	695	1044.775910283519	0
3	698	1048.305035954306	0
3	701	1057.08171983237	0
3	706	1065.906304751933	2.049279014908
3	713	1072.772546772091	7.656530358599
3	720	1082.509933265298	14.000455902587
3	725	1085.416102702935	14.247579650112
3	728	1089.326931016876	17.629402824747
3	733	1091.831794533813	11.437029269922
3	734	1092.287510903123	10.870036848396
3	735	1094.357294947518	12.915219914051
3	738	1101.360892702116	17.093090151908
3	739	1102.580958860297	17.391418932728
3	742	1105.049482138642	19.294550224313
3	743	1106.707691764694	16.34998137137
3	748	1111.238470723109	19.974653785166
3	749	1113.829584371043	17.361812581205
3	769	1143.318613398631	40.59694392066
3	770	1145.360233583694	37.896159250249
3	791	1161.190141850179	53.083575685469
3	792	1161.399926289995	43.616076761705
3	799	1165.655962457304	46.49783516188
3	802	1167.961360047977	44.864555909892
3	803	1168.377203978198	40.011787102192
3	804	1168.657646454369	39.239419923907
3	812	1180.153070159661	32.668712942263
3	835	1207.490534194196	59.130637965607
3	836	1208.267779433161	59.733860791424
3	837	1212.52532180288	62.877926534514
3	849	1233.749026873435	82.915426070003
3	852	1235.932611695834	83.18907705865
3	855	1238.606080314858	82.714637842019
3	856	1239.172141628148	82.016954536287
3	859	1242.290488944478	84.979042460822
3	862	1245.825662630973	85.546065800781
3	863	1246.972162371918	84.723010263475
3	864	1248.724666633109	84.36071778906
3	869	1250.672879714784	85.382129593996
3	872	1251.972891550703	84.343092022865
3	873	1252.735262791852	80.451121766647
3	874	1256.711859148909	82.640752250637
3	877	1270.448287162936	87.712108495107
3	878	1271.032268887939	86.663375302242
3	879	1272.926742765873	88.033705363565
3	880	1272.979549384805	86.816225764632
3	883	1279.237145944115	90.576778902905
3	886	1280.320792672896	90.847067052874
3	887	1281.90388072168	84.233585351014
3	890	1288.374601977595	85.287201557416
3	891	1289.506158081653	75.261843291025
3	892	1291.08989498251	69.556771359656
3	893	1291.375725266327	60.885067202159
3	894	1297.488669019295	64.075148658117
3	895	1298.516159838622	63.743774244325
3	898	1300.539472376964	64.140195903284
3	899	1301.256390147766	61.563690779463
3	900	1302.473497193359	59.812974884564
3	901	1303.234023403617	53.183876098471
3	902	1308.106309628342	57.62960033588
3	905	1308.254090360263	56.816448873842
3	906	1309.540849401459	42.911125399368
3	911	1313.665861377632	35.040323787164
3	912	1315.466896377353	35.784979831185
3	913	1317.063610918317	31.887243074319
3	914	1318.832199944073	20.181810652194
3	917	1319.518061574558	11.392975498517
3	918	1321.491038634327	11.202665629577
3	925	1325.988099850379	14.325286345222
3	926	1328.245075644115	9.043626873289
3	927	1333.437232525733	9.230200559641
3	930	1344.012553318565	19.199414573173
3	931	1353.864898167583	28.037477480548
3	932	1355.13280815223	17.820265793048
3	935	1355.831145940959	0
3	941	1368.727960785317	0
3	947	1373.019960834067	0
3	967	1388.894811422157	7.507868431574
3	970	1390.842347408579	7.378020617869
3	973	1401.376626131788	17.350017943162
3	978	1416.076222513297	30.276462310051
3	979	1417.593395758409	29.274441203245
3	982	1419.656115637003	30.548046245007
3	985	1424.987331404514	29.968047401686
3	986	1428.673180825782	20.000753654832
3	989	1431.433839572198	18.64924645419
3	990	1433.804427530512	15.609388105922
3	991	1434.099238905378	13.758084966524
3	992	1435.879380879341	5.938643483466
3	995	1438.508325669406	0
3	998	1440.505517207833	1.177904547611
3	1001	1443.482085360727	0
3	1004	1449.520613472892	0
3	1007	1452.528012900288	0
3	1010	1453.259815540227	0.372097191123
3	1016	1466.88515629975	0.838621983147
3	1019	1470.389721584042	0
3	1022	1479.794677656541	0
3	1025	1487.054120614241	0
3	1028	1488.121696685055	0.492498796395
3	1035	1494.31432871617	3.798337481775
3	1036	1495.248970086893	4.513498563858
3	1041	1499.055031344987	7.624896844582
3	1042	1500.425002741661	2.342587458106
3	1053	1512.769702075305	14.051947944545
3	1054	1513.168640437369	9.894483493591
3	1055	1515.414611099353	10.074056999394
3	1062	1519.393569505264	11.023841191462
3	1063	1521.596800900864	12.342679585343
3	1068	1530.04672733318	19.52524052092
3	1069	1530.556996526369	14.390228554263
3	1072	1533.244825668978	15.196291856529
3	1073	1534.038515113854	15.001343617562
3	1074	1534.961161778919	12.845860859805
3	1075	1536.968565172835	13.029413704461
3	1076	1539.079137684994	6.034245432909
3	1084	1547.442022508609	2.781717041401
3	1085	1547.870879131943	2.484451038326
3	1091	1553.702106087818	0
3	1097	1559.187420151523	1.430063374004
3	1100	1561.552155171545	0.773842177514
3	1103	1561.837518655059	0
3	1106	1567.450751943713	0
3	1116	1600.619811008342	32.288259415414
3	1127	1613.228350109224	27.994626279406
3	1128	1614.882269379347	23.137083885469
3	1129	1615.779410463495	14.47040571349
3	1130	1616.315973161055	13.977398590987
3	1160	1645.510670325042	41.903818060739
3	1161	1645.944264411086	42.06095827501
3	1164	1653.048017732649	43.317174083454
3	1165	1653.538369949957	33.643631600698
3	1172	1667.093762577532	46.804698035625
3	1177	1670.43878508154	48.827943003736
3	1178	1670.521067007469	45.164833949893
3	1185	1673.9496564095	48.526395383556
3	1192	1685.061488107044	53.261008635479
3	1193	1686.522369150205	54.04206269081
3	1202	1691.366129245423	52.824602255496
3	1203	1691.560580539139	52.913574170642
3	1206	1698.439184497963	55.204303063228
3	1209	1700.291125524557	48.35654006375
3	1210	1700.613667895307	39.231135571703
3	1219	1710.135216786985	46.083087086629
3	1239	1738.357826509851	73.867348080129
3	1240	1739.996068781456	70.951129755762
3	1241	1743.494423676628	73.304263120901
3	1242	1747.999512764683	76.617857510973
3	1247	1753.2259508753	81.535863610942
3	1254	1756.40468727708	83.998612645979
3	1255	1757.569931772867	82.55294138266
3	1272	1785.138808994654	109.8717019331
3	1273	1785.26751617422	107.37373518045
3	1274	1785.976974102685	99.358173991132
3	1275	1786.771169588558	99.006839417416
3	1292	1808.567334898971	120.44360046825
3	1295	1815.395308732953	125.54733735758
3	1302	1828.607174292345	134.70476442218
3	1303	1828.938027166375	129.53956739006
3	1304	1831.139954924783	128.39304140524
3	1305	1837.874734957733	133.41931905717
3	1306	1838.488635944234	133.34118444481
3	1307	1838.889603019433	132.5673855534
3	1310	1843.952592045139	131.78527392948
3	1311	1844.099837705874	131.60223519112
3	1314	1847.036436185701	128.78654507246
3	1315	1847.363222517866	125.47645305636
3	1318	1853.203138257231	127.31441082562
3	1325	1862.86089054653	114.21301784092
3	1326	1866.029183724137	115.18970404296
3	1329	1870.355323358361	116.92923044125
3	1330	1874.846904633549	120.35202673443
3	1331	1875.949963821824	120.54412002503
3	1334	1885.710264840645	123.24913713841
3	1343	1900.978728281571	137.56692268393
3	1346	1903.441254408654	136.78930658975
3	1349	1904.522570596535	135.33052035936
3	1350	1905.987887719983	132.59213681381
3	1351	1906.042592436667	131.85443132675
3	1354	1910.936837033318	133.60656491798
3	1355	1914.110094150459	130.17031388275
3	1356	1916.498766522388	129.43930008733
3	1357	1919.184592932393	126.88371611025
3	1360	1919.436918616635	122.95030191488
3	1361	1920.074116808578	120.23434746471
3	1364	1924.836688232061	119.61051170731
3	1375	1937.342981593217	131.54714242286
3	1380	1945.173513941321	138.53120761376
3	1381	1947.154989703693	139.04173187668
3	1384	1951.364728992367	141.87841483928
3	1385	1953.123037775179	136.07691001236
3	1390	1961.982000083119	141.87729402022
3	1395	1963.79197535553	141.76784870917
3	1396	1964.449386169486	122.43190087883
3	1401	1968.739109092072	123.89687434595
3	1404	1975.356687602784	127.96553482137
3	1405	1980.263727258309	123.57175393753
3	1406	1983.523512394406	126.29846352798
3	1411	1985.90504764355	126.03853809856
3	1418	1987.76034965864	121.48851886062
3	1419	1988.025333192091	109.4472656997
3	1420	1988.233499663181	102.24305972658
3	1421	1993.957095091731	107.1999351881
3	1424	1996.809222011603	106.06564740005
3	1439	2004.219504140091	110.75011351662
3	1440	2004.580236370456	101.31464028653
3	1441	2006.895938869865	102.44089157668
3	1448	2014.696424513889	108.1557428651
3	1449	2016.477268553449	97.07244084502
3	1450	2020.207532116142	98.737572687927
3	1453	2023.476120935889	97.846113367371
3	1454	2025.141828569983	97.272488467564
3	1455	2027.769588901872	98.260010143215
3	1466	2036.660479569864	101.51544058737
3	1471	2039.529981313235	103.97127525621
3	1472	2039.582033849703	96.224667946011
3	1473	2045.183405533428	100.3594532065
3	1478	2052.000976789656	103.20663266325
3	1483	2057.299608035982	102.25988266464
3	1488	2060.606842388148	104.18144251785
3	1489	2063.64663296065	100.91203700408
3	1490	2066.381698986358	103.46902257952
3	1491	2067.811785596168	101.71054052565
3	1494	2072.256564331564	106.01724517915
3	1495	2072.297222400659	102.46271960737
3	1498	2076.534742527087	92.407453081652
3	1499	2076.619920364406	91.586949955223
3	1500	2077.738835430662	91.829159259862
3	1505	2081.375687988348	94.919726381604
3	1508	2081.638330921756	94.047945452603
3	1519	2093.796495233321	97.081460186656
3	1520	2094.509341658759	96.473780658551
3	1523	2106.768417392875	108.62980886147
3	1524	2108.31852601151	108.73934984853
3	1533	2116.726990545543	116.69548079394
3	1534	2117.647961215201	116.51818361406
3	1539	2120.783236717529	118.19278485364
3	1542	2124.681035958894	120.61700978678
3	1543	2129.959353632252	121.76538822211
3	1544	2134.34510480161	124.64079861467
3	1553	2152.857281959254	142.03643347
3	1554	2154.337298580223	132.29720123016
3	1582	2190.225511130255	161.55698876723
3	1585	2191.775896759512	161.97108464317
3	1586	2193.472079657441	162.40754113432
3	1587	2194.77465593885	163.24408028547
3	1588	2194.81785706074	163.27724806353
3	1589	2194.957824210309	158.12833292983
3	1590	2195.551609370925	156.06613591695
3	1591	2198.02772923683	148.62439137554
3	1592	2198.58685378504	148.96062296733
3	1593	2199.284028732042	144.89633513688
3	1600	2204.564119848906	149.56028004622
3	1603	2206.547117188671	147.71657550704
3	1617	2231.759903379622	171.73421058164
3	1618	2233.211472320429	164.06256824966
3	1619	2236.773507041054	160.50683706119
3	1620	2241.888129975282	161.97205602207
3	1627	2255.048206347078	173.74862320848
3	1628	2257.470180432331	175.99867984712
3	1629	2258.757270682531	176.02179878444
3	1636	2266.971721038787	181.84828135121
3	1637	2268.304245021987	183.17132559924
3	1642	2276.658441909627	190.48589462294
3	1643	2276.954981650318	188.78097326133
3	1644	2278.693602556513	181.3754758785
3	1651	2284.953464875584	175.6761975136
3	1652	2287.094457383531	176.62408784399
3	1653	2287.271473854921	174.40432435625
3	1656	2297.147558680881	182.56442974369
3	1657	2300.002552847227	181.03837649629
3	1658	2305.940244777651	186.29369601352
3	1659	2306.840467297546	182.51999853444
3	1662	2308.347080899838	173.9062889907
3	1663	2309.053223567291	167.41469192885
3	1666	2310.638748308518	165.14616497114
3	1667	2311.361078835484	159.04989410755
3	1668	2314.040164630955	158.67513663703
3	1669	2315.059675868475	158.97854310277
3	1670	2315.147963389228	158.35978816852
3	1696	2351.183785161464	193.97098294008
3	1699	2361.897403900638	200.37632473538
3	1700	2364.525104332483	198.9716830046
3	1701	2364.615827400518	195.70003034564
3	1704	2366.266080621444	180.05888814284
3	1777	2438.538683992036	249.15479834784
3	1780	2446.000063229011	255.12599945383
3	1781	2452.600441722975	250.07537577287
3	1782	2456.27044086287	253.44956677601
3	1785	2458.211131054482	255.02198824935
3	1786	2466.49082644383	260.02488473429
3	1787	2466.851930405593	259.39447921547
3	1788	2467.735567067472	253.11999830311
3	1789	2468.342520491751	253.69730797048
3	1790	2474.569632853165	259.21084807149
3	1791	2477.587141820317	258.0516105867
3	1792	2479.63740170209	233.97848179187
3	1793	2487.108917935427	236.85216142137
3	1794	2496.266277147694	244.86586152254
3	1795	2498.277185530186	234.20189617054
4	253	352.10048643997	2
4	257	370.760019987804	1
4	259	373.555936444486	2
4	261	373.759678010315	3
4	263	377.247993195287	4
4	265	377.345572584523	5
4	272	388.349869439179	1
4	274	389.428333751872	2
4	284	394.222151939486	1
4	286	394.280417831847	2
4	288	397.861336976077	3
4	290	400.822172387659	4
4	296	407.5705743153	3
4	300	412.847437638974	3
4	305	420.147033879065	1
4	308	426.359153553486	1
4	311	429.299540061099	1
4	314	430.77145207279	1
4	316	434.228885400795	2
4	320	441.446777028059	1
4	323	463.026399868734	1
4	326	480.01944816702	1
4	329	489.834463842461	1
4	332	493.660455023056	1
4	335	510.295254264958	1
4	338	513.113467919037	1
4	343	519.992138975258	1
4	347	523.456833483824	2
4	350	526.019182483814	3
4	352	533.284778733531	4
4	363	550.163022619791	1
4	365	552.123336715203	2
4	368	556.221293813166	3
4	370	557.114969393053	4
4	373	559.067823619489	5
4	377	563.884093411293	4
4	381	570.103645842638	3
4	384	575.20962988682	3
4	386	575.452224147909	4
4	390	583.154534787475	5
4	392	585.041168075926	6
4	401	598.178884238224	1
4	404	607.504399155699	1
4	409	616.607986551981	1
4	415	630.138370781647	2
4	419	646.597121550372	1
4	424	650.448484040975	2
4	429	654.472889287636	2
4	431	654.489522210653	3
4	433	654.638579731276	4
4	436	657.260165757935	5
4	438	658.033394135472	6
4	442	660.382666634767	5
4	446	663.575322980033	4
4	448	664.015563842217	5
4	452	669.745792827122	6
4	456	676.237557307186	6
4	460	682.066815730998	5
4	462	685.579142785919	6
4	465	692.053570801172	6
4	473	709.468442514242	1
4	479	732.209013902113	1
4	485	750.972514780991	1
4	490	753.46600603785	1
4	492	758.940157948176	2
4	499	762.541358331896	3
4	504	771.986490253363	4
4	509	784.672791238491	4
4	512	789.721521982061	4
4	514	792.164895762002	5
4	518	800.3995456433	4
4	521	803.360871994424	4
4	523	806.974551036564	5
4	526	809.94366777106	5
4	530	810.619162871719	6
4	532	812.146913513994	7
4	534	813.537492786948	8
4	537	826.750533624251	9
4	539	828.171570335675	10
4	541	831.80026799918	11
4	545	837.073839393114	12
4	547	842.528969208664	13
4	549	843.436193972395	14
4	555	852.363694256895	12
4	560	860.408793670813	10
4	562	860.425910955908	11
4	564	860.937546007924	12
4	567	865.311766750695	12
4	571	870.247142880085	11
4	574	873.595660074348	11
4	579	884.520891585817	11
4	581	886.119184101328	12
4	584	891.932944221274	13
4	588	893.558045314272	14
4	593	900.774145450141	13
4	596	908.893442794284	13
4	601	918.236361902723	11
4	605	921.166818604629	10
4	608	924.544758105067	10
4	610	926.514292726286	11
4	612	926.615012933472	12
4	616	931.460484199922	11
4	622	945.028684911283	8
4	624	949.657801840961	9
4	628	957.114500285317	8
4	633	960.517827256041	8
4	638	970.038328189667	9
4	640	976.253589226341	10
4	644	985.354132062826	11
4	649	989.843354502961	12
4	651	994.424713379039	13
4	653	997.657156204399	14
4	658	999.526102754713	14
4	661	1002.204017336833	14
4	665	1008.986093258582	13
4	675	1016.045482988568	6
4	681	1024.450164041474	3
4	683	1024.58376933086	4
4	685	1025.424451465373	5
4	688	1027.951627717149	5
4	695	1044.775910283519	1
4	698	1048.305035954306	1
4	701	1057.08171983237	1
4	703	1063.857025737025	2
4	705	1065.116016413492	3
4	708	1068.509477362711	3
4	710	1071.168523052823	4
4	715	1080.394765263891	5
4	717	1081.417474054727	6
4	719	1081.442075033467	7
4	722	1084.267802550208	7
4	724	1085.189539927569	8
4	727	1085.754931914329	8
4	730	1090.357710393324	8
4	732	1091.263816937943	9
4	737	1096.467771789838	7
4	741	1102.721669477971	6
4	747	1108.10656616471	5
4	753	1119.158127295424	5
4	757	1123.096804138085	6
4	762	1128.365416876006	7
4	764	1129.418226530462	8
4	772	1147.484357217398	8
4	774	1148.359896228589	9
4	778	1149.647395268366	10
4	780	1150.833600803432	11
4	782	1152.743534637184	12
4	784	1155.891442472839	13
4	786	1157.155187091861	14
4	788	1157.311446483656	15
4	790	1160.279596830192	16
4	794	1162.249152108443	16
4	798	1165.290750120788	17
4	801	1167.629799527838	18
4	806	1172.284141025205	16
4	816	1184.368893585697	17
4	818	1184.893037402308	18
4	824	1186.163323620173	19
4	826	1188.66036704121	20
4	828	1189.473725620022	21
4	832	1197.670295370666	22
4	834	1203.087400420179	23
4	841	1221.533123622854	22
4	845	1230.490658064168	23
4	848	1233.413520361178	24
4	851	1234.772385594297	25
4	854	1236.39927647368	25
4	858	1239.692699368303	24
4	861	1242.660522308795	24
4	866	1250.050147305146	22
4	871	1251.437641486421	23
4	876	1266.629724002091	21
4	882	1278.625537590468	18
4	885	1279.681916546168	18
4	889	1285.176367843998	17
4	910	1311.662813505157	7
4	916	1319.201448770826	5
4	920	1324.207031966092	4
4	922	1324.813138745392	5
4	924	1325.827420687035	6
4	929	1337.312542359182	4
4	935	1355.831145940959	1
4	941	1368.727960785317	1
4	947	1373.019960834067	1
4	954	1381.386942990583	1
4	956	1383.46432679071	2
4	958	1384.026608188626	3
4	961	1385.799760203246	4
4	966	1388.318954555164	5
4	972	1395.019284002828	6
4	975	1408.67242717095	6
4	977	1412.784593118008	7
4	981	1418.19503942459	6
4	984	1420.341153938854	6
4	988	1429.940737395875	5
4	995	1438.508325669406	1
4	997	1439.327612660222	2
4	1001	1443.482085360727	1
4	1004	1449.520613472892	1
4	1007	1452.528012900288	1
4	1009	1452.887718349104	2
4	1015	1466.046534316603	1
4	1019	1470.389721584042	1
4	1022	1479.794677656541	1
4	1025	1487.054120614241	1
4	1027	1487.62919788866	2
4	1030	1490.515991234395	2
4	1032	1490.735471523035	3
4	1034	1491.430134500405	4
4	1038	1498.082415283555	3
4	1040	1498.71775413076	4
4	1044	1503.274156943778	3
4	1046	1505.340554099959	4
4	1048	1508.369728313802	5
4	1050	1509.254121315521	6
4	1052	1510.52148681226	7
4	1057	1516.166767972106	5
4	1061	1519.037171496292	6
4	1067	1523.939151468374	6
4	1071	1533.044892252085	6
4	1081	1544.660305467208	1
4	1083	1545.386428093617	2
4	1091	1553.702106087818	1
4	1096	1557.757356777519	1
4	1099	1560.778312994031	2
4	1103	1561.837518655059	1
4	1106	1567.450751943713	1
4	1110	1585.233723829818	2
4	1112	1591.745185493878	3
4	1118	1601.309004750005	4
4	1120	1602.338574570068	5
4	1122	1603.606852264303	6
4	1124	1603.883306136076	7
4	1126	1609.730843649195	8
4	1134	1620.289064541907	5
4	1136	1621.610842077804	6
4	1140	1625.356233057576	7
4	1142	1625.423261025944	8
4	1147	1631.800479471565	9
4	1149	1632.480306459395	10
4	1154	1638.541526989927	11
4	1156	1638.647006368497	12
4	1158	1643.234881434735	13
4	1163	1651.934585460807	13
4	1167	1661.382532323604	12
4	1169	1664.052129700356	13
4	1174	1669.044939025694	14
4	1176	1670.190160555727	15
4	1182	1671.690087264358	14
4	1184	1672.406074631101	15
4	1187	1675.016990390207	16
4	1191	1677.893780993774	17
4	1195	1686.618800111553	17
4	1197	1687.764330171142	18
4	1199	1688.123734430723	19
4	1205	1693.902409870162	19
4	1208	1699.398459776312	19
4	1214	1704.455415900561	18
4	1216	1705.147451499426	19
4	1218	1706.322217466029	20
4	1221	1712.16731811566	21
4	1228	1718.249891113244	22
4	1232	1721.886769461509	23
4	1237	1725.888727431615	24
4	1244	1748.647872705615	22
4	1246	1750.839479681179	23
4	1249	1753.426092917108	23
4	1251	1754.494877899116	24
4	1259	1763.411805597641	24
4	1261	1766.651947818906	25
4	1263	1769.192050237172	26
4	1265	1773.395750906177	27
4	1267	1774.188161109913	28
4	1269	1777.33027211534	29
4	1271	1783.939780267708	30
4	1279	1792.30087682214	28
4	1281	1796.486616701754	29
4	1283	1799.839769343866	30
4	1285	1805.226176524752	31
4	1287	1805.795839170358	32
4	1289	1806.642306327556	33
4	1291	1808.113257827011	34
4	1297	1817.046127762818	35
4	1299	1820.104706062898	36
4	1301	1822.024126646355	37
4	1309	1842.017485290655	32
4	1313	1844.842234746124	31
4	1320	1856.69197332078	30
4	1324	1859.866509544992	31
4	1336	1885.990439936603	29
4	1340	1890.743574611549	30
4	1342	1893.469390623473	31
4	1348	1904.455047293183	32
4	1353	1906.540681648785	30
4	1359	1919.404827708429	27
4	1363	1921.469959428215	26
4	1366	1925.630007568518	26
4	1368	1927.869340102419	27
4	1370	1929.509578758657	28
4	1372	1935.145038982498	29
4	1374	1935.55870605702	30
4	1377	1943.357365903692	30
4	1379	1944.823952326926	31
4	1383	1948.794344126406	30
4	1387	1955.039725371347	29
4	1392	1962.734595956571	30
4	1394	1962.912676406839	31
4	1398	1966.10124507052	30
4	1400	1966.239319152415	31
4	1408	1984.127289445435	29
4	1410	1985.032970409183	30
4	1413	1985.9096761708	30
4	1415	1986.455961606744	31
4	1417	1987.590385469153	32
4	1423	1996.715035046665	29
4	1426	1998.035561000208	29
4	1428	1998.138608531403	30
4	1432	2000.031509751602	31
4	1434	2001.129777601136	32
4	1436	2002.590451863891	33
4	1438	2004.064026172113	34
4	1443	2008.193965410146	33
4	1445	2009.704306186942	34
4	1447	2010.820848489253	35
4	1452	2022.040097350062	33
4	1457	2028.66852236302	31
4	1459	2029.804812116343	32
4	1461	2031.06453852312	33
4	1465	2031.540608997211	34
4	1468	2036.829491280475	35
4	1470	2039.48547345398	36
4	1477	2049.626230817715	34
4	1480	2054.387693595166	35
4	1482	2055.003839802682	36
4	1485	2058.830541681627	36
4	1487	2060.025692797981	37
4	1497	2076.266669979862	33
4	1502	2079.916073953211	31
4	1504	2081.299583138602	32
4	1507	2081.471500585209	32
4	1510	2082.735471898093	32
4	1512	2085.123439687578	33
4	1514	2085.132919422742	34
4	1516	2086.17254728669	35
4	1518	2088.174008388992	36
4	1522	2097.318126678011	35
4	1526	2109.277267361983	34
4	1528	2110.470369539539	35
4	1532	2114.583128937194	36
4	1536	2118.964176350933	36
4	1538	2119.646548764132	37
4	1541	2124.320468763103	37
4	1548	2141.63853163844	35
4	1550	2145.492583337373	36
4	1552	2152.311184727929	37
4	1556	2155.365027993928	37
4	1558	2156.081132765709	38
4	1560	2156.788175220711	39
4	1564	2161.521079165261	40
4	1566	2165.553421327885	41
4	1568	2168.915797054875	42
4	1575	2186.207192478608	43
4	1581	2189.383885644193	44
4	1584	2190.87406377518	45
4	1595	2202.525065950106	37
4	1597	2202.820874086859	38
4	1599	2203.189142805132	39
4	1602	2206.465941709543	39
4	1605	2207.457451190127	39
4	1607	2214.615568764358	40
4	1609	2214.645212521272	41
4	1611	2215.358784781677	42
4	1624	2250.256756514057	40
4	1626	2251.400415625153	41
4	1631	2264.075289359646	40
4	1633	2264.413659591005	41
4	1635	2264.611243006942	42
4	1639	2268.328886187555	41
4	1641	2272.244390500356	42
4	1646	2278.864454742242	40
4	1648	2279.584010536818	41
4	1650	2284.435319553527	42
4	1655	2293.465734273686	40
4	1661	2308.136887435655	37
4	1665	2309.311325836544	36
4	1674	2317.813756427994	32
4	1678	2323.126533836025	33
4	1680	2323.47261368094	34
4	1682	2325.209481817139	35
4	1685	2326.7607567924	36
4	1689	2331.453057165151	37
4	1691	2340.282245872284	38
4	1698	2358.613950581093	39
4	1703	2365.567164460692	37
4	1708	2371.08096217497	37
4	1710	2371.285340921587	38
4	1712	2371.630099345307	39
4	1714	2374.977285337728	40
4	1720	2376.192059999553	41
4	1722	2377.004649625572	42
4	1726	2380.012718252098	43
4	1728	2380.863030777758	44
4	1730	2383.444846822055	45
4	1734	2386.141780085943	46
4	1736	2386.829418639448	47
4	1738	2388.732003327893	48
4	1740	2392.495211352321	49
4	1742	2393.848934837239	50
4	1744	2394.433842190639	51
4	1747	2397.568973368455	52
4	1749	2397.888866545417	53
4	1752	2409.742803459793	54
4	1754	2409.88364784609	55
4	1756	2410.212686494703	56
4	1761	2413.867405059722	57
4	1763	2415.717674215035	58
4	1765	2418.654691615477	59
4	1767	2420.799567632606	60
4	1770	2421.451599110843	61
4	1774	2426.664337116221	62
4	1784	2457.263822682544	61
5	277	390.19208526962	1
5	279	390.552455599804	2
5	294	407.439532221909	1
5	341	518.507968548388	1
5	345	522.173620324886	2
5	359	548.748816733117	1
5	361	550.067618500052	2
5	388	575.666162275779	1
5	407	612.842100177508	1
5	411	623.411592726827	2
5	421	647.071192511576	1
5	427	651.628792350656	1
5	450	665.26574855193	1
5	476	730.723164477223	1
5	482	746.720203383419	1
5	488	751.804402087226	1
5	494	761.533052013322	2
5	497	762.512293667094	2
5	501	766.941994342124	3
5	528	809.99896328964	1
5	543	836.11272726403	1
5	577	880.101037723776	1
5	586	893.1674807599	1
5	631	958.986682587974	1
5	635	961.113788177775	2
5	642	980.006287846102	2
5	646	986.58770618071	3
5	712	1071.697528192129	1
5	745	1107.464074333445	1
5	751	1117.78384952829	1
5	755	1121.017381211308	2
5	759	1124.43115273652	3
5	766	1130.82600363503	3
5	776	1148.533918641737	1
5	796	1164.363948844049	1
5	808	1174.071106898272	1
5	810	1175.776090639092	2
5	814	1182.736178667829	1
5	820	1185.782939051587	2
5	822	1186.137599269998	3
5	839	1214.244314790628	1
5	843	1226.823743164412	2
5	868	1250.476709292462	1
5	897	1298.650389291879	1
5	904	1308.125086076041	1
5	908	1310.28837300475	1
5	938	1359.796549003241	1
5	944	1370.990339914893	1
5	950	1378.159707347523	1
5	952	1380.964876480297	2
5	963	1386.732170890961	2
5	969	1389.108069391996	1
5	1013	1465.193283170876	1
5	1059	1518.048533812449	1
5	1065	1522.115300919114	1
5	1079	1541.428895554315	1
5	1088	1550.738110740724	1
5	1094	1557.057458542175	1
5	1108	1568.331551592928	1
5	1114	1594.882472076587	2
5	1132	1619.894738349259	1
5	1138	1624.084042264992	2
5	1144	1626.210616034251	3
5	1151	1632.846757884736	3
5	1171	1664.490478429722	1
5	1180	1671.38165525371	1
5	1189	1675.267107061551	1
5	1201	1689.847971375368	1
5	1212	1702.746913519538	1
5	1223	1712.497602514756	1
5	1225	1714.363548584924	2
5	1230	1719.6409964056	2
5	1234	1722.58306476235	3
5	1253	1755.40584379679	1
5	1257	1762.461127702236	1
5	1277	1787.059466435055	1
5	1294	1809.486314153089	1
5	1317	1847.391152781413	1
5	1322	1857.225048866429	1
5	1328	1866.271830798015	1
5	1333	1878.578067492393	1
5	1338	1886.757159903634	1
5	1345	1903.265596083928	1
5	1389	1956.425399870298	1
5	1403	1969.834502793289	1
5	1430	1999.57917616298	1
5	1463	2031.530575653383	1
5	1475	2049.403337861292	1
5	1493	2069.148904070772	1
5	1530	2112.867149498668	1
5	1546	2134.440791909142	1
5	1562	2157.212802221385	1
5	1570	2171.380613717592	2
5	1572	2171.740503012916	3
5	1577	2187.341514577323	3
5	1613	2219.535531233618	1
5	1615	2223.8424989331	2
5	1622	2245.658919910221	1
5	1672	2315.1814443388	1
5	1676	2322.283976249027	2
5	1687	2331.248097080117	2
5	1694	2346.228359067299	2
5	1706	2370.716186367381	1
5	1716	2375.068077861533	2
5	1718	2375.806323096909	3
5	1724	2379.965256529779	4
5	1732	2385.250852286311	5
5	1759	2413.808996696861	3
5	1772	2423.704403934987	3
5	1779	2439.323409864084	1
6	277	390.19208526962	0
6	279	390.552455599804	1
6	280	390.655141799278	1
6	281	393.661352364086	0
6	294	407.439532221909	0
6	297	410.442778319088	0
6	341	518.507968548388	0
6	345	522.173620324886	1
6	348	525.930471339742	1
6	353	537.256423771993	0
6	359	548.748816733117	0
6	361	550.067618500052	1
6	366	554.479139238226	1
6	371	558.279795088441	0
6	388	575.666162275779	0
6	393	585.573793226432	0
6	407	612.842100177508	0
6	411	623.411592726827	1
6	412	626.42020587498	1
6	413	629.44446814148	0
6	421	647.071192511576	0
6	422	648.677841417669	0
6	427	651.628792350656	0
6	434	655.84213481308	0
6	450	665.26574855193	0
6	453	675.413442380476	0
6	476	730.723164477223	0
6	477	730.749594956862	0
6	482	746.720203383419	0
6	483	746.830303923498	0
6	488	751.804402087226	0
6	494	761.533052013322	1
6	495	762.182614644149	1
6	497	762.512293667094	1
6	501	766.941994342124	2
6	502	768.238189187687	2
6	505	772.550509600502	1
6	506	782.225336173391	0
6	528	809.99896328964	0
6	535	824.521942834875	0
6	543	836.11272726403	0
6	550	844.232312406263	0
6	577	880.101037723776	0
6	582	891.219300784814	0
6	586	893.1674807599	0
6	589	896.846461774226	0
6	631	958.986682587974	0
6	635	961.113788177775	1
6	636	964.713309390119	1
6	642	980.006287846102	1
6	646	986.58770618071	2
6	647	987.159298242339	2
6	654	998.211649306465	1
6	655	998.318358786027	0
6	712	1071.697528192129	0
6	713	1072.772546772091	0
6	745	1107.464074333445	0
6	748	1111.238470723109	0
6	751	1117.78384952829	0
6	755	1121.017381211308	1
6	759	1124.43115273652	2
6	760	1125.895438970328	2
6	766	1130.82600363503	2
6	767	1141.210836328482	2
6	768	1141.329280509048	1
6	769	1143.318613398631	0
6	776	1148.533918641737	0
6	791	1161.190141850179	0
6	796	1164.363948844049	0
6	799	1165.655962457304	0
6	808	1174.071106898272	0
6	810	1175.776090639092	1
6	811	1179.600868290557	1
6	812	1180.153070159661	0
6	814	1182.736178667829	0
6	820	1185.782939051587	1
6	822	1186.137599269998	2
6	829	1189.513041768776	2
6	830	1190.600079485763	1
6	835	1207.490534194196	0
6	839	1214.244314790628	0
6	843	1226.823743164412	1
6	846	1231.196340198066	1
6	849	1233.749026873435	0
6	868	1250.476709292462	0
6	869	1250.672879714784	0
6	897	1298.650389291879	0
6	898	1300.539472376964	0
6	904	1308.125086076041	0
6	905	1308.254090360263	0
6	908	1310.28837300475	0
6	911	1313.665861377632	0
6	938	1359.796549003241	0
6	939	1367.708327800127	0
6	944	1370.990339914893	0
6	945	1372.742632237328	0
6	950	1378.159707347523	0
6	952	1380.964876480297	1
6	959	1384.026729924573	1
6	963	1386.732170890961	1
6	964	1387.925016905754	1
6	967	1388.894811422157	0
6	969	1389.108069391996	0
6	970	1390.842347408579	0
6	1013	1465.193283170876	0
6	1016	1466.88515629975	0
6	1059	1518.048533812449	0
6	1062	1519.393569505264	0
6	1065	1522.115300919114	0
6	1068	1530.04672733318	0
6	1079	1541.428895554315	0
6	1084	1547.442022508609	0
6	1088	1550.738110740724	0
6	1089	1551.264490072031	0
6	1094	1557.057458542175	0
6	1097	1559.187420151523	0
6	1108	1568.331551592928	0
6	1114	1594.882472076587	1
6	1115	1597.549387971297	1
6	1116	1600.619811008342	0
6	1132	1619.894738349259	0
6	1138	1624.084042264992	1
6	1144	1626.210616034251	2
6	1145	1628.914900387953	2
6	1151	1632.846757884736	2
6	1152	1633.526556289806	2
6	1159	1644.926685491923	1
6	1160	1645.510670325042	0
6	1171	1664.490478429722	0
6	1172	1667.093762577532	0
6	1180	1671.38165525371	0
6	1185	1673.9496564095	0
6	1189	1675.267107061551	0
6	1192	1685.061488107044	0
6	1201	1689.847971375368	0
6	1202	1691.366129245423	0
6	1212	1702.746913519538	0
6	1219	1710.135216786985	0
6	1223	1712.497602514756	0
6	1225	1714.363548584924	1
6	1226	1717.061804028459	1
6	1230	1719.6409964056	1
6	1234	1722.58306476235	2
6	1235	1724.888511205328	2
6	1238	1736.936643689847	1
6	1239	1738.357826509851	0
6	1253	1755.40584379679	0
6	1254	1756.40468727708	0
6	1257	1762.461127702236	0
6	1272	1785.138808994654	0
6	1277	1787.059466435055	0
6	1292	1808.567334898971	0
6	1294	1809.486314153089	0
6	1295	1815.395308732953	0
6	1317	1847.391152781413	0
6	1318	1853.203138257231	0
6	1322	1857.225048866429	0
6	1325	1862.86089054653	0
6	1328	1866.271830798015	0
6	1329	1870.355323358361	0
6	1333	1878.578067492393	0
6	1334	1885.710264840645	0
6	1338	1886.757159903634	0
6	1343	1900.978728281571	0
6	1345	1903.265596083928	0
6	1346	1903.441254408654	0
6	1389	1956.425399870298	0
6	1390	1961.982000083119	0
6	1403	1969.834502793289	0
6	1404	1975.356687602784	0
6	1430	1999.57917616298	0
6	1439	2004.219504140091	0
6	1463	2031.530575653383	0
6	1466	2036.660479569864	0
6	1475	2049.403337861292	0
6	1478	2052.000976789656	0
6	1493	2069.148904070772	0
6	1494	2072.256564331564	0
6	1530	2112.867149498668	0
6	1533	2116.726990545543	0
6	1546	2134.440791909142	0
6	1553	2152.857281959254	0
6	1562	2157.212802221385	0
6	1570	2171.380613717592	1
6	1572	2171.740503012916	2
6	1573	2174.387393734638	2
6	1577	2187.341514577323	2
6	1578	2188.429738256359	2
6	1579	2188.711163870471	1
6	1582	2190.225511130255	0
6	1613	2219.535531233618	0
6	1615	2223.8424989331	1
6	1616	2231.712627492054	1
6	1617	2231.759903379622	0
6	1622	2245.658919910221	0
6	1627	2255.048206347078	0
6	1672	2315.1814443388	0
6	1676	2322.283976249027	1
6	1683	2326.042549266443	1
6	1687	2331.248097080117	1
6	1692	2341.330673848243	1
6	1694	2346.228359067299	1
6	1695	2351.170869371389	1
6	1696	2351.183785161464	0
6	1706	2370.716186367381	0
6	1716	2375.068077861533	1
6	1718	2375.806323096909	2
6	1724	2379.965256529779	3
6	1732	2385.250852286311	4
6	1745	2394.776725882371	4
6	1750	2407.270714130622	3
6	1757	2412.705584314831	2
6	1759	2413.808996696861	2
6	1768	2421.384673500943	2
6	1772	2423.704403934987	2
6	1775	2427.096140324554	2
6	1776	2431.105772520214	1
6	1777	2438.538683992036	0
6	1779	2439.323409864084	0
6	1780	2446.000063229011	0
7	277	390.19208526962	14
7	294	407.439532221909	15
7	388	575.666162275779	16
7	421	647.071192511576	17
7	427	651.628792350656	18
7	450	665.26574855193	19
7	528	809.99896328964	20
7	543	836.11272726403	21
7	577	880.101037723776	22
7	586	893.1674807599	23
7	631	958.986682587974	24
7	712	1071.697528192129	25
7	745	1107.464074333445	26
7	751	1117.78384952829	27
7	776	1148.533918641737	28
7	796	1164.363948844049	29
7	808	1174.071106898272	30
7	814	1182.736178667829	31
7	839	1214.244314790628	32
7	868	1250.476709292462	33
7	897	1298.650389291879	34
7	904	1308.125086076041	35
7	908	1310.28837300475	36
7	969	1389.108069391996	37
7	1059	1518.048533812449	38
7	1065	1522.115300919114	39
7	1108	1568.331551592928	40
7	1132	1619.894738349259	41
7	1171	1664.490478429722	42
7	1180	1671.38165525371	43
7	1189	1675.267107061551	44
7	1201	1689.847971375368	45
7	1212	1702.746913519538	46
7	1223	1712.497602514756	47
7	1253	1755.40584379679	48
7	1257	1762.461127702236	49
7	1277	1787.059466435055	50
7	1294	1809.486314153089	51
7	1317	1847.391152781413	52
7	1322	1857.225048866429	53
7	1328	1866.271830798015	54
7	1333	1878.578067492393	55
7	1338	1886.757159903634	56
7	1345	1903.265596083928	57
7	1389	1956.425399870298	58
7	1403	1969.834502793289	59
7	1430	1999.57917616298	60
7	1463	2031.530575653383	61
7	1475	2049.403337861292	62
7	1493	2069.148904070772	63
7	1530	2112.867149498668	64
7	1546	2134.440791909142	65
7	1562	2157.212802221385	66
7	1613	2219.535531233618	67
7	1622	2245.658919910221	68
7	1672	2315.1814443388	69
7	1706	2370.716186367381	70
7	1779	2439.323409864084	71
8	277	390.19208526962	0
8	280	390.655141799278	0.102686199474
8	294	407.439532221909	0
8	341	518.507968548388	0
8	348	525.930471339742	3.756851014856
8	359	548.748816733117	0
8	366	554.479139238226	4.411520738174
8	388	575.666162275779	0
8	407	612.842100177508	0
8	412	626.42020587498	3.008613148153
8	421	647.071192511576	0
8	427	651.628792350656	0
8	450	665.26574855193	0
8	476	730.723164477223	0
8	482	746.720203383419	0
8	488	751.804402087226	0
8	495	762.182614644149	0.649562630827
8	502	768.238189187687	5.725895520593
8	505	772.550509600502	5.608515258378
8	528	809.99896328964	0
8	543	836.11272726403	0
8	577	880.101037723776	0
8	586	893.1674807599	0
8	631	958.986682587974	0
8	636	964.713309390119	3.599521212344
8	647	987.159298242339	7.153010396237
8	654	998.211649306465	11.623943125755
8	712	1071.697528192129	0
8	745	1107.464074333445	0
8	751	1117.78384952829	0
8	760	1125.895438970328	4.87805775902
8	767	1141.210836328482	16.779683591962
8	768	1141.329280509048	10.503276874018
8	776	1148.533918641737	0
8	796	1164.363948844049	0
8	808	1174.071106898272	0
8	811	1179.600868290557	3.824777651465
8	814	1182.736178667829	0
8	829	1189.513041768776	3.730102717189
8	830	1190.600079485763	4.462480215765
8	839	1214.244314790628	0
8	846	1231.196340198066	4.372597033654
8	868	1250.476709292462	0
8	897	1298.650389291879	0
8	904	1308.125086076041	0
8	908	1310.28837300475	0
8	938	1359.796549003241	0
8	944	1370.990339914893	0
8	950	1378.159707347523	0
8	959	1384.026729924573	3.061853444276
8	964	1387.925016905754	1.192846014793
8	969	1389.108069391996	0
8	1013	1465.193283170876	0
8	1059	1518.048533812449	0
8	1065	1522.115300919114	0
8	1079	1541.428895554315	0
8	1088	1550.738110740724	0
8	1094	1557.057458542175	0
8	1108	1568.331551592928	0
8	1115	1597.549387971297	2.66691589471
8	1132	1619.894738349259	0
8	1145	1628.914900387953	4.830858122961
8	1152	1633.526556289806	7.315940255555
8	1159	1644.926685491923	12.079927607187
8	1171	1664.490478429722	0
8	1180	1671.38165525371	0
8	1189	1675.267107061551	0
8	1201	1689.847971375368	0
8	1212	1702.746913519538	0
8	1223	1712.497602514756	0
8	1226	1717.061804028459	2.698255443535
8	1235	1724.888511205328	5.247514799728
8	1238	1736.936643689847	14.353578927497
8	1253	1755.40584379679	0
8	1257	1762.461127702236	0
8	1277	1787.059466435055	0
8	1294	1809.486314153089	0
8	1317	1847.391152781413	0
8	1322	1857.225048866429	0
8	1328	1866.271830798015	0
8	1333	1878.578067492393	0
8	1338	1886.757159903634	0
8	1345	1903.265596083928	0
8	1389	1956.425399870298	0
8	1403	1969.834502793289	0
8	1430	1999.57917616298	0
8	1463	2031.530575653383	0
8	1475	2049.403337861292	0
8	1493	2069.148904070772	0
8	1530	2112.867149498668	0
8	1546	2134.440791909142	0
8	1562	2157.212802221385	0
8	1573	2174.387393734638	3.006780017046
8	1578	2188.429738256359	16.689235243443
8	1579	2188.711163870471	1.369649293148
8	1613	2219.535531233618	0
8	1616	2231.712627492054	7.870128558954
8	1622	2245.658919910221	0
8	1672	2315.1814443388	0
8	1683	2326.042549266443	3.758573017416
8	1692	2341.330673848243	10.082576768126
8	1695	2351.170869371389	4.94251030409
8	1706	2370.716186367381	0
8	1745	2394.776725882371	19.708648020838
8	1750	2407.270714130622	31.464391033713
8	1757	2412.705584314831	32.740327785052
8	1768	2421.384673500943	36.133821214632
8	1775	2427.096140324554	13.287143627693
8	1776	2431.105772520214	7.401368585227
8	1779	2439.323409864084	0
9	280	390.655141799278	22
9	281	393.661352364086	23
9	297	410.442778319088	24
9	348	525.930471339742	25
9	353	537.256423771993	26
9	366	554.479139238226	27
9	371	558.279795088441	28
9	393	585.573793226432	29
9	412	626.42020587498	30
9	413	629.44446814148	31
9	422	648.677841417669	32
9	434	655.84213481308	33
9	453	675.413442380476	34
9	477	730.749594956862	35
9	483	746.830303923498	36
9	495	762.182614644149	37
9	502	768.238189187687	38
9	505	772.550509600502	39
9	506	782.225336173391	40
9	535	824.521942834875	41
9	550	844.232312406263	42
9	582	891.219300784814	43
9	589	896.846461774226	44
9	636	964.713309390119	45
9	647	987.159298242339	46
9	654	998.211649306465	47
9	655	998.318358786027	48
9	713	1072.772546772091	49
9	748	1111.238470723109	50
9	760	1125.895438970328	51
9	767	1141.210836328482	52
9	768	1141.329280509048	53
9	769	1143.318613398631	54
9	791	1161.190141850179	55
9	799	1165.655962457304	56
9	811	1179.600868290557	57
9	812	1180.153070159661	58
9	829	1189.513041768776	59
9	830	1190.600079485763	60
9	835	1207.490534194196	61
9	846	1231.196340198066	62
9	849	1233.749026873435	63
9	869	1250.672879714784	64
9	898	1300.539472376964	65
9	905	1308.254090360263	66
9	911	1313.665861377632	67
9	939	1367.708327800127	68
9	945	1372.742632237328	69
9	959	1384.026729924573	70
9	964	1387.925016905754	71
9	967	1388.894811422157	72
9	970	1390.842347408579	73
9	1016	1466.88515629975	74
9	1062	1519.393569505264	75
9	1068	1530.04672733318	76
9	1084	1547.442022508609	77
9	1089	1551.264490072031	78
9	1097	1559.187420151523	79
9	1115	1597.549387971297	80
9	1116	1600.619811008342	81
9	1145	1628.914900387953	82
9	1152	1633.526556289806	83
9	1159	1644.926685491923	84
9	1160	1645.510670325042	85
9	1172	1667.093762577532	86
9	1185	1673.9496564095	87
9	1192	1685.061488107044	88
9	1202	1691.366129245423	89
9	1219	1710.135216786985	90
9	1226	1717.061804028459	91
9	1235	1724.888511205328	92
9	1238	1736.936643689847	93
9	1239	1738.357826509851	94
9	1254	1756.40468727708	95
9	1272	1785.138808994654	96
9	1292	1808.567334898971	97
9	1295	1815.395308732953	98
9	1318	1853.203138257231	99
9	1325	1862.86089054653	100
9	1329	1870.355323358361	101
9	1334	1885.710264840645	102
9	1343	1900.978728281571	103
9	1346	1903.441254408654	104
9	1390	1961.982000083119	105
9	1404	1975.356687602784	106
9	1439	2004.219504140091	107
9	1466	2036.660479569864	108
9	1478	2052.000976789656	109
9	1494	2072.256564331564	110
9	1533	2116.726990545543	111
9	1553	2152.857281959254	112
9	1573	2174.387393734638	113
9	1578	2188.429738256359	114
9	1579	2188.711163870471	115
9	1582	2190.225511130255	116
9	1616	2231.712627492054	117
9	1617	2231.759903379622	118
9	1627	2255.048206347078	119
9	1683	2326.042549266443	120
9	1692	2341.330673848243	121
9	1695	2351.170869371389	122
9	1696	2351.183785161464	123
9	1745	2394.776725882371	124
9	1750	2407.270714130622	125
9	1757	2412.705584314831	126
9	1768	2421.384673500943	127
9	1775	2427.096140324554	128
9	1776	2431.105772520214	129
9	1777	2438.538683992036	130
9	1780	2446.000063229011	131
10	280	390.655141799278	0.463056529658
10	281	393.661352364086	3.108896764282
10	297	410.442778319088	3.003246097179
10	348	525.930471339742	7.422502791354
10	353	537.256423771993	15.082803447107
10	366	554.479139238226	5.730322505109
10	371	558.279795088441	8.212176588389
10	393	585.573793226432	9.907630950653
10	412	626.42020587498	13.578105697472
10	413	629.44446814148	6.032875414653
10	422	648.677841417669	1.606648906093
10	434	655.84213481308	4.213342462424
10	453	675.413442380476	10.147693828546
10	477	730.749594956862	0.026430479639
10	483	746.830303923498	0.110100540079
10	495	762.182614644149	10.378212556923
10	502	768.238189187687	6.705137174365
10	505	772.550509600502	10.038215933408
10	506	782.225336173391	15.283341831267
10	535	824.521942834875	14.522979545235
10	550	844.232312406263	8.119585142233
10	582	891.219300784814	11.118263061038
10	589	896.846461774226	3.678981014326
10	636	964.713309390119	5.726626802145
10	647	987.159298242339	26.045510064564
10	654	998.211649306465	18.205361460363
10	655	998.318358786027	11.730652605317
10	713	1072.772546772091	1.075018579962
10	748	1111.238470723109	3.774396389664
10	760	1125.895438970328	8.111589442038
10	767	1141.210836328482	20.193455117174
10	768	1141.329280509048	16.898127772528
10	769	1143.318613398631	12.492609763601
10	791	1161.190141850179	12.656223208442
10	799	1165.655962457304	1.292013613255
10	811	1179.600868290557	5.529761392285
10	812	1180.153070159661	4.376979520569
10	829	1189.513041768776	6.776863100947
10	830	1190.600079485763	4.817140434176
10	835	1207.490534194196	21.352934924198
10	846	1231.196340198066	16.952025407438
10	849	1233.749026873435	6.925283709023
10	869	1250.672879714784	0.196170422322
10	898	1300.539472376964	1.889083085085
10	905	1308.254090360263	0.129004284222
10	911	1313.665861377632	3.377488372882
10	939	1367.708327800127	7.911778796886
10	945	1372.742632237328	1.752292322435
10	959	1384.026729924573	5.86702257705
10	964	1387.925016905754	6.960140425457
10	967	1388.894811422157	2.162640531196
10	970	1390.842347408579	1.734278016583
10	1016	1466.88515629975	1.691873128874
10	1062	1519.393569505264	1.345035692815
10	1068	1530.04672733318	7.931426414066
10	1084	1547.442022508609	6.013126954294
10	1089	1551.264490072031	0.526379331307
10	1097	1559.187420151523	2.129961609348
10	1115	1597.549387971297	29.217836378369
10	1116	1600.619811008342	5.737338931755
10	1145	1628.914900387953	9.020162038694
10	1152	1633.526556289806	9.442514024814
10	1159	1644.926685491923	18.716069457672
10	1160	1645.510670325042	12.663912440306
10	1172	1667.093762577532	2.60328414781
10	1185	1673.9496564095	2.56800115579
10	1192	1685.061488107044	9.794381045493
10	1202	1691.366129245423	1.518157870055
10	1219	1710.135216786985	7.388303267447
10	1226	1717.061804028459	4.564201513703
10	1235	1724.888511205328	10.524962620404
10	1238	1736.936643689847	17.295647284247
10	1239	1738.357826509851	15.774761747501
10	1254	1756.40468727708	0.99884348029
10	1272	1785.138808994654	22.677681292418
10	1292	1808.567334898971	21.507868463916
10	1295	1815.395308732953	5.908994579864
10	1318	1853.203138257231	5.811985475818
10	1325	1862.86089054653	5.635841680101
10	1329	1870.355323358361	4.083492560346
10	1334	1885.710264840645	7.132197348252
10	1343	1900.978728281571	14.221568377937
10	1346	1903.441254408654	0.175658324726
10	1390	1961.982000083119	5.556600212821
10	1404	1975.356687602784	5.522184809495
10	1439	2004.219504140091	4.640327977111
10	1466	2036.660479569864	5.129903916481
10	1478	2052.000976789656	2.597638928364
10	1494	2072.256564331564	3.107660260792
10	1533	2116.726990545543	3.859841046875
10	1553	2152.857281959254	18.416490050112
10	1573	2174.387393734638	17.174591513253
10	1578	2188.429738256359	17.049124538767
10	1579	2188.711163870471	16.970660857555
10	1582	2190.225511130255	2.883996552932
10	1616	2231.712627492054	12.177096258436
10	1617	2231.759903379622	7.917404446522
10	1627	2255.048206347078	9.389286436857
10	1683	2326.042549266443	10.861104927643
10	1692	2341.330673848243	19.046697599216
10	1695	2351.170869371389	19.922772291272
10	1696	2351.183785161464	4.955426094165
10	1745	2394.776725882371	24.06053951499
10	1750	2407.270714130622	32.202636269089
10	1757	2412.705584314831	36.899261217922
10	1768	2421.384673500943	41.419416971164
10	1775	2427.096140324554	41.845288038243
10	1776	2431.105772520214	17.296775823353
10	1777	2438.538683992036	14.834280057049
10	1780	2446.000063229011	6.676653364927
11	1796	2500	0.1736
12	1796	2500	0.0524

