version 2
run factors_calibration_range_test-10-20230302-19:09:11-11739
attr configname factors_calibration_range_test
attr datetime 20230302-19:09:11
attr experiment factors_calibration_range_test
attr inifile omnetpp.ini
attr iterationvars "$0=5, $1=1"
attr iterationvarsf 5,1-
attr measurement "$0=5, $1=1"
attr network Network
attr processid 11739
attr repetition 10
attr replication #10
attr resultdir results
attr runnumber 10
attr seedset 10
param *.boss.arrival_mean 20
param *.boss.service_mean 5
param *.minion.arrival_mean 5
param *.minion.service_mean 1
param **.minion.arrival_distribution 0
param **.minion.service_distribution 0
param **.boss.arrival_distribution 0
param **.boss.service_distribution 0

vector 0 Network.player boss_defeated_stat:vector ETV
attr source signal_boss_defeated
vector 1 Network.player boss_jobs_queue_number_stat:vector ETV
attr source signal_boss_jobs_queue_number
vector 2 Network.player boss_response_time_stat:vector ETV
attr source signal_boss_response_time
vector 3 Network.player boss_waiting_time_stat:vector ETV
attr source signal_boss_waiting_time
vector 4 Network.player minion_jobs_number_stat:vector ETV
attr source signal_minion_jobs_number
vector 5 Network.player minion_jobs_queue_number_stat:vector ETV
attr source signal_minion_jobs_queue_number
vector 6 Network.player minion_waiting_time_stat:vector ETV
attr source signal_minion_waiting_time
vector 7 Network.player minion_defeated_stat:vector ETV
attr source signal_minion_defeated
vector 8 Network.player minion_response_time_stat:vector ETV
attr source signal_minion_response_time
vector 9 Network.player boss_jobs_number_stat:vector ETV
attr source signal_boss_jobs_number
vector 10 Network.player minion_recovered_stat:vector ETV
attr source signal_minion_recovered
vector 11 Network.player minion_throughput:vector ETV
attr source signal_minion_throughput
vector 12 Network.player boss_throughput:vector ETV
attr source signal_boss_throughput
0	278	352.130554891321	21
0	279	352.927689561948	22
0	337	427.922919793437	23
0	360	445.483634846768	24
0	375	482.623445529356	25
0	402	540.103626412954	26
0	408	542.013573484638	27
0	417	557.490400795264	28
0	418	567.564240005452	29
0	495	646.909364677438	30
0	498	648.158271931021	31
0	524	671.369134696912	32
0	535	675.974953750651	33
0	543	696.644158598497	34
0	551	709.074450502644	35
0	552	709.99936697877	36
0	564	719.026131063424	37
0	567	721.782126274418	38
0	576	735.243146366857	39
0	590	746.149996156744	40
0	606	769.235542157537	41
0	613	774.842505725638	42
0	624	792.625640676717	43
0	627	795.211284919797	44
0	628	797.645015244678	45
0	678	864.02193246501	46
0	687	879.470842626838	47
0	692	883.519975797881	48
0	695	886.470748365759	49
0	696	889.271801544583	50
0	725	918.474901203841	51
0	738	932.95499797957	52
0	744	937.087903064749	53
0	753	947.606060377701	54
0	769	972.108184800654	55
0	818	1043.600519331667	56
0	842	1062.221824855093	57
0	853	1081.038108023486	58
0	854	1082.559230913177	59
0	867	1115.313296374902	60
0	876	1132.025868897564	61
0	903	1157.541163817664	62
0	910	1162.464871918121	63
0	927	1173.464526148622	64
0	928	1176.691994143815	65
0	929	1185.400207500366	66
0	979	1236.666448394572	67
0	1023	1289.511834275859	68
0	1055	1375.167026068546	69
0	1056	1377.69368177718	70
0	1074	1417.619102109601	71
0	1089	1427.988499731937	72
0	1094	1440.036739162998	73
0	1107	1456.578615065705	74
0	1110	1460.303509453435	75
0	1121	1468.230073820141	76
0	1122	1468.779253897226	77
0	1123	1469.409634268323	78
0	1128	1471.453467039569	79
0	1167	1507.316685374657	80
0	1178	1522.609004646605	81
0	1179	1523.441984212979	82
0	1186	1531.210066004728	83
0	1223	1567.576103112115	84
0	1234	1577.589139781897	85
0	1239	1582.284351675076	86
0	1264	1622.46648597697	87
0	1269	1628.346919896378	88
0	1276	1637.754840745315	89
0	1281	1650.508499260933	90
0	1287	1660.160481604531	91
0	1320	1700.170177386142	92
0	1327	1711.523055494311	93
0	1328	1712.247154016955	94
0	1350	1721.093426455114	95
0	1358	1732.758106249994	96
0	1372	1743.012305475494	97
0	1392	1769.6307411483	98
0	1407	1794.866584043362	99
0	1408	1798.667656412332	100
0	1437	1838.428117013513	101
0	1449	1870.554069809943	102
0	1472	1901.502933920921	103
0	1483	1915.148518538969	104
0	1540	1970.720577979858	105
0	1547	1984.144565598209	106
0	1586	2024.355491593225	107
0	1628	2076.29129546134	108
0	1645	2098.671634418581	109
0	1674	2122.330683742636	110
0	1706	2171.702190838223	111
0	1713	2177.321565411803	112
0	1721	2184.459929526471	113
0	1731	2198.68276874378	114
0	1734	2206.276254096687	115
0	1745	2222.368884794303	116
0	1746	2227.071288079485	117
0	1782	2280.791082649515	118
0	1788	2292.542934325833	119
0	1825	2334.577343896308	120
0	1828	2336.882941233333	121
0	1864	2371.58812348353	122
0	1865	2372.698603190795	123
0	1876	2396.475871631733	124
0	1903	2428.323044603587	125
0	1914	2441.693118966685	126
0	1920	2448.594707483831	127
1	278	352.130554891321	1
1	279	352.927689561948	0
1	332	419.824288542282	0
1	337	427.922919793437	0
1	359	445.426883461239	0
1	360	445.483634846768	0
1	374	481.155473799364	0
1	375	482.623445529356	0
1	395	536.946986058516	0
1	402	540.103626412954	0
1	405	541.720738592907	0
1	407	541.736319955185	1
1	408	542.013573484638	1
1	410	545.749899725905	1
1	417	557.490400795264	1
1	418	567.564240005452	0
1	488	642.852204457678	0
1	494	646.904432915695	1
1	495	646.909364677438	1
1	498	648.158271931021	0
1	521	666.123998518003	0
1	524	671.369134696912	0
1	530	673.379073049835	0
1	535	675.974953750651	0
1	542	692.296201596188	0
1	543	696.644158598497	0
1	548	707.174758416955	0
1	550	707.316586279335	1
1	551	709.074450502644	1
1	552	709.99936697877	0
1	563	718.627327699064	0
1	564	719.026131063424	0
1	566	719.093978241006	0
1	567	721.782126274418	0
1	571	725.978438086876	0
1	576	735.243146366857	0
1	581	740.857761909457	0
1	590	746.149996156744	0
1	605	759.785179545867	0
1	606	769.235542157537	0
1	608	769.99705848	0
1	610	773.001749095169	1
1	612	773.957541426202	2
1	613	774.842505725638	2
1	615	780.867851638882	2
1	624	792.625640676717	2
1	627	795.211284919797	1
1	628	797.645015244678	0
1	671	853.673845421965	0
1	675	862.799389841877	1
1	678	864.02193246501	1
1	684	868.098797839271	1
1	687	879.470842626838	1
1	689	880.277491819915	1
1	691	882.177038103687	2
1	692	883.519975797881	2
1	695	886.470748365759	1
1	696	889.271801544583	0
1	724	912.935758198835	0
1	725	918.474901203841	0
1	737	932.202672012874	0
1	738	932.95499797957	0
1	743	936.657389288969	0
1	744	937.087903064749	0
1	752	946.297682443241	0
1	753	947.606060377701	0
1	764	960.738265453186	0
1	769	972.108184800654	0
1	817	1042.502595974247	0
1	818	1043.600519331667	0
1	839	1060.452690583967	0
1	842	1062.221824855093	0
1	848	1073.028472791389	0
1	850	1073.979749661901	1
1	853	1081.038108023486	1
1	854	1082.559230913177	0
1	866	1113.293494763991	0
1	867	1115.313296374902	0
1	875	1132.000155132253	0
1	876	1132.025868897564	0
1	896	1154.808071207918	0
1	903	1157.541163817664	0
1	905	1158.547296278815	0
1	910	1162.464871918121	0
1	922	1170.522199205898	0
1	924	1171.867477851254	1
1	926	1172.13455232041	2
1	927	1173.464526148622	2
1	928	1176.691994143815	1
1	929	1185.400207500366	0
1	978	1231.608305717097	0
1	979	1236.666448394572	0
1	1022	1288.624242739881	0
1	1023	1289.511834275859	0
1	1052	1356.036850805122	0
1	1054	1372.606487445524	1
1	1055	1375.167026068546	1
1	1056	1377.69368177718	0
1	1069	1405.653119015198	0
1	1073	1415.389328740932	1
1	1074	1417.619102109601	1
1	1082	1422.655085990457	1
1	1084	1422.976987813847	2
1	1088	1425.03253417898	3
1	1089	1427.988499731937	3
1	1091	1430.283059070374	3
1	1094	1440.036739162998	3
1	1106	1453.338074498799	3
1	1107	1456.578615065705	3
1	1109	1458.853815662555	3
1	1110	1460.303509453435	3
1	1121	1468.230073820141	2
1	1122	1468.779253897226	1
1	1123	1469.409634268323	0
1	1125	1470.455632448849	0
1	1128	1471.453467039569	0
1	1160	1493.449335598144	0
1	1162	1496.052380205525	1
1	1167	1507.316685374657	1
1	1173	1514.884379549808	1
1	1178	1522.609004646605	1
1	1179	1523.441984212979	0
1	1185	1528.555324124831	0
1	1186	1531.210066004728	0
1	1220	1564.373909976404	0
1	1222	1565.073784446035	1
1	1223	1567.576103112115	1
1	1225	1568.88161662372	1
1	1234	1577.589139781897	1
1	1239	1582.284351675076	0
1	1259	1616.890074396541	0
1	1264	1622.46648597697	0
1	1268	1626.810805176556	0
1	1269	1628.346919896378	0
1	1271	1632.799960695581	0
1	1273	1636.823592669957	1
1	1276	1637.754840745315	1
1	1281	1650.508499260933	0
1	1286	1658.548708404319	0
1	1287	1660.160481604531	0
1	1313	1686.708174305305	0
1	1319	1694.179105853179	1
1	1320	1700.170177386142	1
1	1324	1705.252233173425	1
1	1327	1711.523055494311	1
1	1328	1712.247154016955	0
1	1349	1719.93445107556	0
1	1350	1721.093426455114	0
1	1355	1724.59685573388	0
1	1358	1732.758106249994	0
1	1369	1740.42133159935	0
1	1372	1743.012305475494	0
1	1381	1757.194056480443	0
1	1385	1761.281828584842	1
1	1391	1761.918109262225	2
1	1392	1769.6307411483	2
1	1407	1794.866584043362	1
1	1408	1798.667656412332	0
1	1436	1831.77425238343	0
1	1437	1838.428117013513	0
1	1448	1868.713537013691	0
1	1449	1870.554069809943	0
1	1469	1898.558444776125	0
1	1472	1901.502933920921	0
1	1478	1910.506246022932	0
1	1483	1915.148518538969	0
1	1535	1966.608133512492	0
1	1540	1970.720577979858	0
1	1546	1976.663636876505	0
1	1547	1984.144565598209	0
1	1585	2021.706676798273	0
1	1586	2024.355491593225	0
1	1625	2073.959348802285	0
1	1628	2076.29129546134	0
1	1642	2092.180436930985	0
1	1645	2098.671634418581	0
1	1673	2118.166042985004	0
1	1674	2122.330683742636	0
1	1703	2169.154750841632	0
1	1706	2171.702190838223	0
1	1712	2177.061307273094	0
1	1713	2177.321565411803	0
1	1718	2178.914416394662	0
1	1721	2184.459929526471	0
1	1730	2195.814478513715	0
1	1731	2198.68276874378	0
1	1733	2200.177172437229	0
1	1734	2206.276254096687	0
1	1742	2214.891347264506	0
1	1744	2215.816986545285	1
1	1745	2222.368884794303	1
1	1746	2227.071288079485	0
1	1781	2280.78927417951	0
1	1782	2280.791082649515	0
1	1787	2288.659915777357	0
1	1788	2292.542934325833	0
1	1820	2325.886460952761	0
1	1825	2334.577343896308	0
1	1827	2335.729066720743	0
1	1828	2336.882941233333	0
1	1859	2363.241703758442	0
1	1861	2369.572912620892	1
1	1864	2371.58812348353	1
1	1865	2372.698603190795	0
1	1873	2385.090107213244	0
1	1876	2396.475871631733	0
1	1898	2420.381264551342	0
1	1903	2428.323044603587	0
1	1913	2438.055371942036	0
1	1914	2441.693118966685	0
1	1919	2446.879911890008	0
1	1920	2448.594707483831	0
2	278	352.130554891321	3.538716429871
2	279	352.927689561948	3.174547102125
2	337	427.922919793437	8.098631251155
2	360	445.483634846768	0.056751385529
2	375	482.623445529356	1.467971729992
2	402	540.103626412954	3.156640354438
2	408	542.013573484638	0.292834891731
2	417	557.490400795264	15.754080840079
2	418	567.564240005452	21.814340279547
2	495	646.909364677438	4.05716021976
2	498	648.158271931021	1.253839015326
2	524	671.369134696912	5.245136178909
2	535	675.974953750651	2.595880700816
2	543	696.644158598497	4.347957002309
2	551	709.074450502644	1.899692085689
2	552	709.99936697877	2.682780699435
2	564	719.026131063424	0.39880336436
2	567	721.782126274418	2.688148033412
2	576	735.243146366857	9.264708279981
2	590	746.149996156744	5.292234247287
2	606	769.235542157537	9.45036261167
2	613	774.842505725638	4.845447245638
2	624	792.625640676717	19.623891581548
2	627	795.211284919797	21.253743493595
2	628	797.645015244678	16.777163605796
2	678	864.02193246501	10.348087043045
2	687	879.470842626838	16.671452784961
2	692	883.519975797881	15.42117795861
2	695	886.470748365759	6.193256545844
2	696	889.271801544583	7.094763440896
2	725	918.474901203841	5.539143005006
2	738	932.95499797957	0.752325966696
2	744	937.087903064749	0.43051377578
2	753	947.606060377701	1.30837793446
2	769	972.108184800654	11.369919347468
2	818	1043.600519331667	1.09792335742
2	842	1062.221824855093	1.769134271126
2	853	1081.038108023486	8.009635232097
2	854	1082.559230913177	8.579481251276
2	867	1115.313296374902	2.019801610911
2	876	1132.025868897564	0.025713765311
2	903	1157.541163817664	2.733092609746
2	910	1162.464871918121	3.917575639306
2	927	1173.464526148622	2.942326942724
2	928	1176.691994143815	4.824516292561
2	929	1185.400207500366	13.265655179956
2	979	1236.666448394572	5.058142677475
2	1023	1289.511834275859	0.887591535978
2	1055	1375.167026068546	19.130175263424
2	1056	1377.69368177718	5.087194331656
2	1074	1417.619102109601	11.965983094403
2	1089	1427.988499731937	12.599170991005
2	1094	1440.036739162998	17.381653172541
2	1107	1456.578615065705	33.601627251858
2	1110	1460.303509453435	35.270975274455
2	1121	1468.230073820141	37.947014749767
2	1122	1468.779253897226	15.441179398427
2	1123	1469.409634268323	10.555818605768
2	1128	1471.453467039569	0.99783459072
2	1167	1507.316685374657	13.867349776513
2	1178	1522.609004646605	26.55662444108
2	1179	1523.441984212979	8.557604663171
2	1186	1531.210066004728	2.654741879897
2	1223	1567.576103112115	3.202193135711
2	1234	1577.589139781897	12.515355335862
2	1239	1582.284351675076	13.402735051356
2	1264	1622.46648597697	5.576411580429
2	1269	1628.346919896378	1.536114719822
2	1276	1637.754840745315	4.954880049734
2	1281	1650.508499260933	13.684906590976
2	1287	1660.160481604531	1.611773200212
2	1320	1700.170177386142	13.462003080837
2	1327	1711.523055494311	17.343949641132
2	1328	1712.247154016955	6.99492084353
2	1350	1721.093426455114	1.158975379554
2	1358	1732.758106249994	8.161250516114
2	1372	1743.012305475494	2.590973876144
2	1392	1769.6307411483	12.436684667857
2	1407	1794.866584043362	33.58475545852
2	1408	1798.667656412332	36.749547150107
2	1437	1838.428117013513	6.653864630083
2	1449	1870.554069809943	1.840532796252
2	1472	1901.502933920921	2.944489144796
2	1483	1915.148518538969	4.642272516037
2	1540	1970.720577979858	4.112444467366
2	1547	1984.144565598209	7.480928721704
2	1586	2024.355491593225	2.648814794952
2	1628	2076.29129546134	2.331946659055
2	1645	2098.671634418581	6.491197487596
2	1674	2122.330683742636	4.164640757632
2	1706	2171.702190838223	2.547439996591
2	1713	2177.321565411803	0.260258138709
2	1721	2184.459929526471	5.545513131809
2	1731	2198.68276874378	2.868290230065
2	1734	2206.276254096687	6.099081659458
2	1745	2222.368884794303	7.477537529797
2	1746	2227.071288079485	11.2543015342
2	1782	2280.791082649515	0.001808470005
2	1788	2292.542934325833	3.883018548476
2	1825	2334.577343896308	8.690882943547
2	1828	2336.882941233333	1.15387451259
2	1864	2371.58812348353	8.346419725088
2	1865	2372.698603190795	3.125690569903
2	1876	2396.475871631733	11.385764418489
2	1903	2428.323044603587	7.941780052245
2	1914	2441.693118966685	3.637747024649
2	1920	2448.594707483831	1.714795593823
3	278	352.130554891321	2.377412431498
3	332	419.824288542282	0
3	359	445.426883461239	0
3	374	481.155473799364	0
3	395	536.946986058516	0
3	405	541.720738592907	0
3	408	542.013573484638	0.277253529453
3	417	557.490400795264	11.740501069359
3	488	642.852204457678	0
3	495	646.909364677438	0.004931761743
3	521	666.123998518003	0
3	530	673.379073049835	0
3	542	692.296201596188	0
3	548	707.174758416955	0
3	551	709.074450502644	1.757864223309
3	563	718.627327699064	0
3	566	719.093978241006	0
3	571	725.978438086876	0
3	581	740.857761909457	0
3	605	759.785179545867	0
3	608	769.99705848	0
3	613	774.842505725638	1.840756630469
3	624	792.625640676717	18.668099250515
3	627	795.211284919797	14.343433280915
3	671	853.673845421965	0
3	678	864.02193246501	1.222542623133
3	687	879.470842626838	11.372044787567
3	692	883.519975797881	3.242483977966
3	695	886.470748365759	4.293710262072
3	724	912.935758198835	0
3	737	932.202672012874	0
3	743	936.657389288969	0
3	752	946.297682443241	0
3	764	960.738265453186	0
3	817	1042.502595974247	0
3	839	1060.452690583967	0
3	848	1073.028472791389	0
3	853	1081.038108023486	7.058358361585
3	866	1113.293494763991	0
3	875	1132.000155132253	0
3	896	1154.808071207918	0
3	905	1158.547296278815	0
3	922	1170.522199205898	0
3	927	1173.464526148622	1.597048297368
3	928	1176.691994143815	4.557441823405
3	978	1231.608305717097	0
3	1022	1288.624242739881	0
3	1052	1356.036850805122	0
3	1055	1375.167026068546	2.560538623022
3	1069	1405.653119015198	0
3	1074	1417.619102109601	2.229773368669
3	1089	1427.988499731937	5.33341374148
3	1094	1440.036739162998	17.059751349151
3	1107	1456.578615065705	31.546080886725
3	1110	1460.303509453435	30.020450383061
3	1121	1468.230073820141	14.891999321342
3	1122	1468.779253897226	9.925438234671
3	1125	1470.455632448849	0
3	1160	1493.449335598144	0
3	1167	1507.316685374657	11.264305169132
3	1178	1522.609004646605	7.724625096797
3	1185	1528.555324124831	0
3	1220	1564.373909976404	0
3	1223	1567.576103112115	2.50231866608
3	1234	1577.589139781897	8.707523158177
3	1259	1616.890074396541	0
3	1268	1626.810805176556	0
3	1271	1632.799960695581	0
3	1276	1637.754840745315	0.931248075358
3	1286	1658.548708404319	0
3	1313	1686.708174305305	0
3	1320	1700.170177386142	5.991071532963
3	1327	1711.523055494311	6.270822320886
3	1349	1719.93445107556	0
3	1355	1724.59685573388	0
3	1369	1740.42133159935	0
3	1381	1757.194056480443	0
3	1392	1769.6307411483	8.348912563458
3	1407	1794.866584043362	32.948474781137
3	1436	1831.77425238343	0
3	1448	1868.713537013691	0
3	1469	1898.558444776125	0
3	1478	1910.506246022932	0
3	1535	1966.608133512492	0
3	1546	1976.663636876505	0
3	1585	2021.706676798273	0
3	1625	2073.959348802285	0
3	1642	2092.180436930985	0
3	1673	2118.166042985004	0
3	1703	2169.154750841632	0
3	1712	2177.061307273094	0
3	1718	2178.914416394662	0
3	1730	2195.814478513715	0
3	1733	2200.177172437229	0
3	1742	2214.891347264506	0
3	1745	2222.368884794303	6.551898249018
3	1781	2280.78927417951	0
3	1787	2288.659915777357	0
3	1820	2325.886460952761	0
3	1827	2335.729066720743	0
3	1859	2363.241703758442	0
3	1864	2371.58812348353	2.015210862638
3	1873	2385.090107213244	0
3	1898	2420.381264551342	0
3	1913	2438.055371942036	0
3	1919	2446.879911890008	0
4	281	359.877028435229	1
4	284	363.857270407593	1
4	286	364.281579325754	2
4	289	365.319660926311	2
4	293	369.025958534247	1
4	296	371.571606162347	1
4	298	373.021933602689	2
4	302	374.394369190389	1
4	305	380.586737892309	1
4	307	380.773455507738	2
4	309	381.079880531017	3
4	314	385.282838041191	1
4	317	389.528194195091	1
4	320	402.332693867396	1
4	323	410.570738559814	1
4	326	411.557235003992	1
4	329	414.916951278951	1
4	334	420.988374686628	1
4	336	422.376979904902	2
4	340	428.742036836914	2
4	344	432.045263028674	1
4	346	432.203046737249	2
4	348	432.2050252578	3
4	353	436.576276297838	1
4	356	440.090260330419	1
4	362	446.07156664809	1
4	365	452.950572068422	1
4	368	464.98216626876	1
4	371	466.508537944349	1
4	377	483.519226185312	1
4	380	485.38338079234	1
4	383	494.414585735391	1
4	386	516.856476619823	1
4	389	531.948551898821	1
4	392	533.602528745562	1
4	397	537.131923510545	1
4	399	538.035211092567	2
4	401	539.116661413876	3
4	412	550.410316527738	3
4	414	550.771260420898	4
4	416	555.671166899554	5
4	421	568.675831033119	5
4	428	571.878904197543	1
4	431	574.361270478973	1
4	433	575.30280014589	2
4	437	577.925485524079	1
4	440	585.882106010401	1
4	443	586.819208996479	1
4	446	591.521993770654	1
4	448	592.231800149339	2
4	451	593.147345428509	2
4	455	596.713896775803	1
4	457	596.976114510693	2
4	459	599.059332374739	3
4	464	602.120671619459	1
4	467	605.173160244338	1
4	470	607.166311975683	1
4	473	607.415420581756	1
4	476	609.974543461092	1
4	479	611.457147900903	1
4	481	611.646635400173	2
4	485	624.344102418476	1
4	490	645.449065061674	1
4	492	645.911581061579	2
4	497	647.288201271762	3
4	503	652.035072340776	1
4	506	652.920457571756	1
4	509	659.878580800197	1
4	512	661.716472937134	1
4	515	664.874311783073	1
4	517	665.34125291763	2
4	523	670.359256002757	1
4	527	672.593720287241	1
4	532	675.392984365326	1
4	534	675.436090425408	2
4	539	691.303511096305	1
4	545	700.458321212536	1
4	554	711.053678301896	1
4	557	712.485807282965	1
4	559	713.114764345461	2
4	569	725.735851851571	1
4	573	726.138917142281	2
4	575	731.482586837148	3
4	583	742.758261624298	1
4	585	743.861269226911	2
4	587	743.922047846676	3
4	589	744.959703459596	4
4	596	751.806747863553	1
4	598	752.151614005173	2
4	600	752.869361991168	3
4	617	785.889905861342	1
4	619	786.689300032721	2
4	621	787.433687371771	3
4	623	790.475050770681	4
4	626	794.706006147569	5
4	635	803.387445770793	1
4	638	813.455526605933	1
4	640	816.023811507263	2
4	642	816.901352466011	3
4	647	822.273772307649	1
4	650	822.599910632916	1
4	652	825.018932598843	2
4	654	825.141502129451	3
4	659	838.60190933569	1
4	662	847.114126723212	1
4	665	847.87642506019	1
4	667	848.464283995232	2
4	673	858.533648907641	1
4	677	862.869011466018	2
4	680	866.266901210652	3
4	682	867.859523712513	4
4	686	868.573541783429	5
4	694	884.466375915172	6
4	704	894.916269317649	1
4	707	900.100962522919	1
4	710	900.698911959686	1
4	713	906.708633949476	1
4	716	910.422976025054	1
4	718	910.554500021038	2
4	722	912.224119398767	1
4	728	925.881687993459	1
4	731	926.881550525634	1
4	734	930.807867182323	1
4	740	936.301410599012	1
4	746	939.678036793444	1
4	749	943.344180841664	1
4	755	951.221009526064	1
4	758	952.930657243365	1
4	761	954.888703997922	1
4	766	961.091347718175	1
4	768	965.079306943132	2
4	773	981.956070661532	1
4	776	986.659488300329	1
4	778	986.680654883784	2
4	782	987.558291060493	1
4	785	988.786483536632	1
4	788	989.53831759565	1
4	791	992.630971645444	1
4	794	994.651727430122	1
4	797	1007.677340966774	1
4	800	1010.274219610745	1
4	803	1012.86290736857	1
4	806	1016.009542244296	1
4	809	1027.751310133305	1
4	812	1030.287751791844	1
4	815	1042.354853189071	1
4	821	1046.469922274418	1
4	824	1049.518544707472	1
4	827	1051.29556880551	1
4	830	1058.184390132212	1
4	832	1058.241300524386	2
4	835	1059.662031820857	2
4	841	1061.837137322629	1
4	845	1069.020341472692	1
4	852	1075.442818989024	1
4	857	1083.683557336102	1
4	860	1093.017446998939	1
4	863	1110.613539965161	1
4	869	1119.444634801327	1
4	872	1127.241534048919	1
4	878	1135.537704958375	1
4	881	1140.385913051683	1
4	884	1141.932042347996	1
4	886	1142.184874920645	2
4	890	1144.221247928441	1
4	893	1148.790123012344	1
4	898	1154.890904931208	1
4	900	1156.386406377437	2
4	902	1156.760661614129	3
4	907	1159.166283726849	4
4	909	1159.434276226088	5
4	914	1163.953365716502	4
4	917	1168.432950216867	4
4	919	1169.901912249615	5
4	932	1185.573883410004	4
4	934	1185.576017189983	5
4	941	1190.443601890852	1
4	943	1191.594492129903	2
4	945	1193.198836879834	3
4	950	1195.559316105219	1
4	953	1200.29565294919	1
4	956	1203.757964175962	1
4	959	1209.065004357998	1
4	962	1211.939413569725	1
4	965	1215.016784686672	1
4	968	1217.772528869416	1
4	971	1228.845729084797	1
4	974	1230.569476995072	1
4	976	1231.146827290447	2
4	981	1236.778763898723	3
4	983	1237.206659477086	4
4	989	1241.657191637689	1
4	992	1243.949119235652	1
4	995	1253.521354418454	1
4	998	1262.187661331848	1
4	1000	1262.217015887101	2
4	1004	1264.762657876692	1
4	1006	1265.194869768594	2
4	1010	1271.797660164844	1
4	1013	1275.434914325529	1
4	1016	1277.577391013852	1
4	1018	1279.168855540123	2
4	1025	1291.517957756838	1
4	1028	1295.347666577783	1
4	1031	1304.9837907849	1
4	1034	1305.604118428478	1
4	1037	1329.245105504179	1
4	1040	1337.634732036925	1
4	1043	1339.880128332675	1
4	1046	1352.470092406396	1
4	1049	1354.150631433418	1
4	1058	1378.467046024374	1
4	1061	1382.964029345481	1
4	1064	1384.347803866642	1
4	1067	1404.589487443659	1
4	1071	1411.206945014882	2
4	1076	1419.167594791603	3
4	1078	1419.427779406021	4
4	1080	1422.147469800272	5
4	1086	1423.839823110107	6
4	1093	1433.370789378122	7
4	1096	1441.887231514478	8
4	1098	1444.901032292789	9
4	1100	1447.965048863742	10
4	1102	1450.081013532155	11
4	1104	1452.752876970543	12
4	1112	1460.640822766849	13
4	1114	1462.19232444644	14
4	1116	1462.604229739877	15
4	1118	1463.369496307138	16
4	1120	1464.531702691265	17
4	1127	1470.675845592013	18
4	1134	1474.747559630375	15
4	1137	1477.423550440574	15
4	1149	1487.142732621659	6
4	1152	1490.294150504746	6
4	1154	1490.890136236073	7
4	1158	1493.375780174237	6
4	1164	1501.620238563	7
4	1166	1503.509813362262	8
4	1169	1509.866440707721	9
4	1171	1511.911810011117	10
4	1175	1518.48293651913	11
4	1177	1518.859235565549	12
4	1191	1532.868227109375	6
4	1199	1538.732213175733	1
4	1201	1538.988331423826	2
4	1204	1539.645110968323	2
4	1206	1540.03233428899	3
4	1211	1544.688686216914	1
4	1213	1545.066623364695	2
4	1217	1554.871834051164	1
4	1227	1570.14764363098	1
4	1229	1570.212928195805	2
4	1231	1570.806865518058	3
4	1233	1576.222147342082	4
4	1236	1580.944885290296	5
4	1238	1582.139110940096	6
4	1243	1583.871624393051	5
4	1250	1588.914029997004	1
4	1253	1594.282011311397	1
4	1256	1595.78197662681	1
4	1261	1621.790483412929	1
4	1263	1622.09124044095	2
4	1275	1636.829491911117	1
4	1278	1638.552038124945	2
4	1280	1641.964896185277	3
4	1289	1661.06325579011	1
4	1292	1664.063256890365	1
4	1295	1666.038894535985	1
4	1298	1667.096109431549	1
4	1300	1667.735770756512	2
4	1304	1672.222896259305	1
4	1307	1675.714828924273	1
4	1310	1683.364384319041	1
4	1315	1687.087732978369	1
4	1317	1689.673955266356	2
4	1322	1700.846731930152	3
4	1326	1706.947712609774	4
4	1330	1714.477174438978	5
4	1332	1715.111850291791	6
4	1334	1715.641520249184	7
4	1337	1716.753151465202	7
4	1341	1718.05736353107	6
4	1344	1718.248641101044	6
4	1352	1721.992278681313	4
4	1357	1726.16529947315	4
4	1360	1733.178012466273	5
4	1362	1733.605515467038	6
4	1371	1741.734798607626	2
4	1376	1745.88964794241	1
4	1379	1757.123505406625	1
4	1383	1761.023099348345	2
4	1387	1761.7317256994	3
4	1389	1761.848631415313	4
4	1394	1769.763396754837	5
4	1396	1775.079816003719	6
4	1398	1781.773064132319	7
4	1400	1782.691816844586	8
4	1402	1784.208861977264	9
4	1404	1785.471606839115	10
4	1406	1792.196409009896	11
4	1421	1807.354865816251	1
4	1424	1814.645489179336	1
4	1426	1815.808804304429	2
4	1430	1821.456517955234	1
4	1433	1828.049423955977	1
4	1439	1840.236214579913	1
4	1442	1861.209468663812	1
4	1445	1864.158968075576	1
4	1451	1871.233545190134	1
4	1453	1873.267799915488	2
4	1455	1873.6077875532	3
4	1460	1880.174042105123	1
4	1463	1891.467251379145	1
4	1465	1891.925625504888	2
4	1471	1901.204958375503	1
4	1475	1907.348419989015	1
4	1480	1910.598849826022	1
4	1482	1913.207090460262	2
4	1487	1926.126516692928	1
4	1490	1930.426809376531	1
4	1493	1932.000897249263	1
4	1496	1933.401409724062	1
4	1499	1941.760430394862	1
4	1502	1943.241172596115	1
4	1505	1946.979358604608	1
4	1508	1948.777497048225	1
4	1510	1949.190273917339	2
4	1512	1949.238713188098	3
4	1515	1951.288179275109	3
4	1517	1952.55526941939	4
4	1519	1953.974557847571	5
4	1522	1956.485784827803	5
4	1525	1958.027157614692	5
4	1529	1958.450176151393	4
4	1537	1966.749341914246	1
4	1539	1966.90484160184	2
4	1544	1976.368472127121	1
4	1549	1984.585459696914	2
4	1553	1994.383705145405	1
4	1556	1996.523630905644	1
4	1559	1997.52268819622	1
4	1561	1997.537083965383	2
4	1563	1998.216002991895	3
4	1568	2008.973356933521	1
4	1570	2009.305359497489	2
4	1574	2011.414447079121	1
4	1577	2016.47846173718	1
4	1580	2019.123579537335	1
4	1582	2020.305037144536	2
4	1589	2041.769107615885	1
4	1591	2043.016942850542	2
4	1593	2044.863753615106	3
4	1598	2047.704902128936	1
4	1601	2056.376647399061	1
4	1604	2057.55894896753	1
4	1607	2061.728861354513	1
4	1610	2063.145894912825	1
4	1613	2067.358257299065	1
4	1616	2071.604760340977	1
4	1619	2072.798101473696	1
4	1621	2073.12041448547	2
4	1627	2075.702843217881	1
4	1630	2076.747118527278	2
4	1634	2082.591267762213	1
4	1637	2085.532392760399	1
4	1640	2090.337443244581	1
4	1644	2093.196037799144	2
4	1649	2105.159580479204	1
4	1652	2107.506305167925	1
4	1654	2107.670449140871	2
4	1656	2107.806079310526	3
4	1658	2108.938228753291	4
4	1664	2110.200318534467	1
4	1667	2113.146273188082	1
4	1669	2115.469302950319	2
4	1676	2141.826583896154	1
4	1679	2146.171895811422	1
4	1681	2146.219212900942	2
4	1685	2148.463446082619	1
4	1687	2148.627616026109	2
4	1689	2149.38484950126	3
4	1693	2154.615391085153	2
4	1697	2158.634140351369	1
4	1700	2168.099879052162	1
4	1705	2169.811405005584	1
4	1709	2175.433481431818	1
4	1715	2178.512369446227	1
4	1720	2181.581556454761	1
4	1724	2189.308569929486	1
4	1726	2190.287152954667	2
4	1736	2207.178571430402	1
4	1739	2210.347526058778	1
4	1748	2228.376215993017	1
4	1750	2229.904182654877	2
4	1754	2238.419092075022	1
4	1757	2247.175388210955	1
4	1760	2247.2314393525	1
4	1763	2253.551329080491	1
4	1765	2253.779758315942	2
4	1769	2260.243153329897	1
4	1772	2272.038978294793	1
4	1775	2275.126356249493	1
4	1778	2279.283807281889	1
4	1784	2285.958472803556	1
4	1790	2293.51368547194	1
4	1793	2300.66859143972	1
4	1796	2305.638623361734	1
4	1798	2306.5641620343	2
4	1801	2306.868691739438	2
4	1805	2309.298605791248	1
4	1808	2312.490118295609	1
4	1811	2316.930726347174	1
4	1814	2318.479630222868	1
4	1817	2323.813601549844	1
4	1822	2328.274531847954	1
4	1824	2332.19826815642	2
4	1831	2337.579833045393	2
4	1835	2340.581556629582	1
4	1838	2344.375388992991	1
4	1841	2348.141505748199	1
4	1844	2353.131081210407	1
4	1846	2353.785590453364	2
4	1850	2355.502000328094	1
4	1853	2357.410645806427	1
4	1856	2361.410566513535	1
4	1863	2370.10165232649	1
4	1868	2383.323135121174	1
4	1870	2384.451015307186	2
4	1875	2394.36104419564	2
4	1880	2397.855033850574	1
4	1883	2404.449303532333	1
4	1886	2406.750106300478	1
4	1889	2408.6109915723	1
4	1892	2418.070769040521	1
4	1894	2419.64963021074	2
4	1896	2420.067291498195	3
4	1900	2425.215000359197	4
4	1902	2425.314292796781	5
4	1910	2435.046581374034	1
4	1916	2443.967179450011	1
4	1922	2452.150802148856	1
4	1925	2456.551629582122	1
4	1928	2458.164167059657	1
4	1931	2467.433197512215	1
4	1934	2472.434056198355	1
4	1937	2478.419666494406	1
4	1940	2481.912878389171	1
4	1943	2486.928952286728	1
4	1946	2491.988161311926	1
4	1949	2496.506638597895	1
5	281	359.877028435229	0
5	282	360.092653947569	0
5	284	363.857270407593	0
5	286	364.281579325754	1
5	287	364.730081837224	1
5	289	365.319660926311	1
5	290	365.367064090233	1
5	291	367.427495915011	0
5	293	369.025958534247	0
5	294	370.506396922758	0
5	296	371.571606162347	0
5	298	373.021933602689	1
5	299	373.129112254577	1
5	300	374.024752660763	0
5	302	374.394369190389	0
5	303	374.640381872387	0
5	305	380.586737892309	0
5	307	380.773455507738	1
5	309	381.079880531017	2
5	310	382.048921569103	2
5	311	382.47452121299	1
5	312	384.880876804424	0
5	314	385.282838041191	0
5	315	386.561177558965	0
5	317	389.528194195091	0
5	318	391.597141945464	0
5	320	402.332693867396	0
5	321	402.769523299304	0
5	323	410.570738559814	0
5	324	410.67580792237	0
5	326	411.557235003992	0
5	327	412.174689169985	0
5	329	414.916951278951	0
5	330	416.097562278034	0
5	334	420.988374686628	0
5	336	422.376979904902	1
5	338	428.20315984241	1
5	340	428.742036836914	1
5	341	428.999126918144	1
5	342	429.331336738373	0
5	344	432.045263028674	0
5	346	432.203046737249	1
5	348	432.2050252578	2
5	349	432.508201542418	2
5	350	434.258520471721	1
5	351	434.315069041763	0
5	353	436.576276297838	0
5	354	438.650704290926	0
5	356	440.090260330419	0
5	357	441.71019309193	0
5	362	446.07156664809	0
5	363	446.225614509409	0
5	365	452.950572068422	0
5	366	453.040627619676	0
5	368	464.98216626876	0
5	369	465.310770106738	0
5	371	466.508537944349	0
5	372	467.044128104338	0
5	377	483.519226185312	0
5	378	484.264022818588	0
5	380	485.38338079234	0
5	381	486.406000662994	0
5	383	494.414585735391	0
5	384	496.725787504819	0
5	386	516.856476619823	0
5	387	517.13853339091	0
5	389	531.948551898821	0
5	390	532.871003930996	0
5	392	533.602528745562	0
5	393	534.066518361816	0
5	397	537.131923510545	0
5	399	538.035211092567	1
5	401	539.116661413876	2
5	403	541.280618772587	2
5	412	550.410316527738	2
5	414	550.771260420898	3
5	416	555.671166899554	4
5	419	567.896354633556	4
5	421	568.675831033119	4
5	422	569.201517009796	4
5	423	569.382898707034	3
5	424	569.706563774221	2
5	425	570.676371233705	1
5	426	570.846314224373	0
5	428	571.878904197543	0
5	429	572.505634236794	0
5	431	574.361270478973	0
5	433	575.30280014589	1
5	434	575.451285069993	1
5	435	575.63712828359	0
5	437	577.925485524079	0
5	438	580.786835029032	0
5	440	585.882106010401	0
5	441	586.639861580124	0
5	443	586.819208996479	0
5	444	587.962781482396	0
5	446	591.521993770654	0
5	448	592.231800149339	1
5	449	593.060850462213	1
5	451	593.147345428509	1
5	452	595.04849883737	1
5	453	595.337591206599	0
5	455	596.713896775803	0
5	457	596.976114510693	1
5	459	599.059332374739	2
5	460	599.138723984243	2
5	461	600.168581577909	1
5	462	601.857823191815	0
5	464	602.120671619459	0
5	465	602.201749219665	0
5	467	605.173160244338	0
5	468	606.943635065201	0
5	470	607.166311975683	0
5	471	607.318438305478	0
5	473	607.415420581756	0
5	474	607.442891522864	0
5	476	609.974543461092	0
5	477	610.624825758896	0
5	479	611.457147900903	0
5	481	611.646635400173	1
5	482	611.732832558974	1
5	483	612.373637294178	0
5	485	624.344102418476	0
5	486	624.653794015131	0
5	490	645.449065061674	0
5	492	645.911581061579	1
5	497	647.288201271762	2
5	499	648.570375243564	2
5	500	649.048752088962	1
5	501	649.90734200757	0
5	503	652.035072340776	0
5	504	652.687560786237	0
5	506	652.920457571756	0
5	507	654.649001121363	0
5	509	659.878580800197	0
5	510	660.266332367298	0
5	512	661.716472937134	0
5	513	663.192423189403	0
5	515	664.874311783073	0
5	517	665.34125291763	1
5	518	665.448887448424	1
5	519	665.586615198484	0
5	523	670.359256002757	0
5	525	672.186189276236	0
5	527	672.593720287241	0
5	528	672.735458495677	0
5	532	675.392984365326	0
5	534	675.436090425408	1
5	536	676.475252459261	1
5	537	677.184113274375	0
5	539	691.303511096305	0
5	540	692.166884163332	0
5	545	700.458321212536	0
5	546	701.814781960262	0
5	554	711.053678301896	0
5	555	711.528685531635	0
5	557	712.485807282965	0
5	559	713.114764345461	1
5	560	715.949126420688	1
5	561	716.17690155192	0
5	569	725.735851851571	0
5	573	726.138917142281	1
5	575	731.482586837148	2
5	577	736.326392673688	2
5	578	736.779297190886	1
5	579	738.288630843014	0
5	583	742.758261624298	0
5	585	743.861269226911	1
5	587	743.922047846676	2
5	589	744.959703459596	3
5	591	747.364095854814	3
5	592	748.722731856644	2
5	593	750.059349363133	1
5	594	751.524733674572	0
5	596	751.806747863553	0
5	598	752.151614005173	1
5	600	752.869361991168	2
5	601	752.954297807261	2
5	602	753.201952414161	1
5	603	753.307545159404	0
5	617	785.889905861342	0
5	619	786.689300032721	1
5	621	787.433687371771	2
5	623	790.475050770681	3
5	626	794.706006147569	4
5	629	798.186571584622	4
5	630	798.395376098364	3
5	631	799.800750794376	2
5	632	800.524358716973	1
5	633	802.475441300996	0
5	635	803.387445770793	0
5	636	805.32120210669	0
5	638	813.455526605933	0
5	640	816.023811507263	1
5	642	816.901352466011	2
5	643	817.356600859322	2
5	644	817.389754853106	1
5	645	817.910936104931	0
5	647	822.273772307649	0
5	648	822.48703738781	0
5	650	822.599910632916	0
5	652	825.018932598843	1
5	654	825.141502129451	2
5	655	825.332451737565	2
5	656	827.101881531051	1
5	657	828.069254773733	0
5	659	838.60190933569	0
5	660	840.057509869781	0
5	662	847.114126723212	0
5	663	847.204422436864	0
5	665	847.87642506019	0
5	667	848.464283995232	1
5	668	848.624213812156	1
5	669	849.06899449394	0
5	673	858.533648907641	0
5	677	862.869011466018	1
5	680	866.266901210652	2
5	682	867.859523712513	3
5	686	868.573541783429	4
5	694	884.466375915172	5
5	697	891.672995467948	5
5	698	892.239933241739	4
5	699	892.810727094467	3
5	700	892.959227449642	2
5	701	893.637343354185	1
5	702	894.350305086105	0
5	704	894.916269317649	0
5	705	895.577301661785	0
5	707	900.100962522919	0
5	708	900.189788608471	0
5	710	900.698911959686	0
5	711	900.859269803827	0
5	713	906.708633949476	0
5	714	906.98138826348	0
5	716	910.422976025054	0
5	718	910.554500021038	1
5	719	911.250213512823	1
5	720	911.737449268412	0
5	722	912.224119398767	0
5	726	918.564002961401	0
5	728	925.881687993459	0
5	729	926.509306787282	0
5	731	926.881550525634	0
5	732	929.045408402681	0
5	734	930.807867182323	0
5	735	931.387711071722	0
5	740	936.301410599012	0
5	741	936.433876362113	0
5	746	939.678036793444	0
5	747	939.942930280968	0
5	749	943.344180841664	0
5	750	943.40485530982	0
5	755	951.221009526064	0
5	756	951.731913127309	0
5	758	952.930657243365	0
5	759	953.33861734485	0
5	761	954.888703997922	0
5	762	956.09628409242	0
5	766	961.091347718175	0
5	768	965.079306943132	1
5	770	973.1440206488	1
5	771	973.548625106383	0
5	773	981.956070661532	0
5	774	982.391282585091	0
5	776	986.659488300329	0
5	778	986.680654883784	1
5	779	986.715204604221	1
5	780	987.164058173737	0
5	782	987.558291060493	0
5	783	987.966926063667	0
5	785	988.786483536632	0
5	786	989.175766865521	0
5	788	989.53831759565	0
5	789	989.666536487959	0
5	791	992.630971645444	0
5	792	992.817432786282	0
5	794	994.651727430122	0
5	795	995.729185629319	0
5	797	1007.677340966774	0
5	798	1008.092221752984	0
5	800	1010.274219610745	0
5	801	1010.782976108084	0
5	803	1012.86290736857	0
5	804	1013.690761792118	0
5	806	1016.009542244296	0
5	807	1016.341491721226	0
5	809	1027.751310133305	0
5	810	1028.959024550739	0
5	812	1030.287751791844	0
5	813	1030.477946838102	0
5	815	1042.354853189071	0
5	819	1045.242125184498	0
5	821	1046.469922274418	0
5	822	1046.729388735057	0
5	824	1049.518544707472	0
5	825	1049.938731978393	0
5	827	1051.29556880551	0
5	828	1053.288242245568	0
5	830	1058.184390132212	0
5	832	1058.241300524386	1
5	833	1059.612359522064	1
5	835	1059.662031820857	1
5	836	1059.70726180506	1
5	837	1060.109297057532	0
5	841	1061.837137322629	0
5	843	1063.883934547034	0
5	845	1069.020341472692	0
5	846	1069.307290458857	0
5	852	1075.442818989024	0
5	855	1083.30662014678	0
5	857	1083.683557336102	0
5	858	1084.730496220204	0
5	860	1093.017446998939	0
5	861	1093.432250935753	0
5	863	1110.613539965161	0
5	864	1111.141794983113	0
5	869	1119.444634801327	0
5	870	1119.917469183281	0
5	872	1127.241534048919	0
5	873	1127.330394279048	0
5	878	1135.537704958375	0
5	879	1136.124856525861	0
5	881	1140.385913051683	0
5	882	1141.26870440391	0
5	884	1141.932042347996	0
5	886	1142.184874920645	1
5	887	1142.386785998194	1
5	888	1142.718677208122	0
5	890	1144.221247928441	0
5	891	1144.841879951863	0
5	893	1148.790123012344	0
5	894	1149.042385590191	0
5	898	1154.890904931208	0
5	900	1156.386406377437	1
5	902	1156.760661614129	2
5	907	1159.166283726849	3
5	909	1159.434276226088	4
5	911	1162.672039122426	4
5	912	1162.804303341196	3
5	914	1163.953365716502	3
5	915	1166.228545533971	3
5	917	1168.432950216867	3
5	919	1169.901912249615	4
5	920	1170.310146578339	4
5	930	1185.499541443104	3
5	932	1185.573883410004	3
5	934	1185.576017189983	4
5	935	1186.261820682581	4
5	936	1186.787572011914	3
5	937	1189.691849216669	2
5	938	1189.910075991822	1
5	939	1190.052703799369	0
5	941	1190.443601890852	0
5	943	1191.594492129903	1
5	945	1193.198836879834	2
5	946	1193.734842508645	2
5	947	1193.780297161562	1
5	948	1194.015637322048	0
5	950	1195.559316105219	0
5	951	1196.794020095512	0
5	953	1200.29565294919	0
5	954	1202.629230758266	0
5	956	1203.757964175962	0
5	957	1205.702078898698	0
5	959	1209.065004357998	0
5	960	1209.629225214028	0
5	962	1211.939413569725	0
5	963	1213.425058065704	0
5	965	1215.016784686672	0
5	966	1215.25260945496	0
5	968	1217.772528869416	0
5	969	1219.204733942144	0
5	971	1228.845729084797	0
5	972	1229.261611255703	0
5	974	1230.569476995072	0
5	976	1231.146827290447	1
5	981	1236.778763898723	2
5	983	1237.206659477086	3
5	984	1237.531535996414	3
5	985	1237.671726779585	2
5	986	1237.76825057491	1
5	987	1240.100331343369	0
5	989	1241.657191637689	0
5	990	1242.650368926317	0
5	992	1243.949119235652	0
5	993	1245.8330332694	0
5	995	1253.521354418454	0
5	996	1256.406890436761	0
5	998	1262.187661331848	0
5	1000	1262.217015887101	1
5	1001	1264.521696050626	1
5	1002	1264.639066522855	0
5	1004	1264.762657876692	0
5	1006	1265.194869768594	1
5	1007	1265.560860720514	1
5	1008	1265.723120229138	0
5	1010	1271.797660164844	0
5	1011	1272.43719650559	0
5	1013	1275.434914325529	0
5	1014	1276.352778593929	0
5	1016	1277.577391013852	0
5	1018	1279.168855540123	1
5	1019	1279.531003917461	1
5	1020	1279.54571002173	0
5	1025	1291.517957756838	0
5	1026	1292.383739675703	0
5	1028	1295.347666577783	0
5	1029	1296.169025862103	0
5	1031	1304.9837907849	0
5	1032	1305.482971800794	0
5	1034	1305.604118428478	0
5	1035	1305.636809049661	0
5	1037	1329.245105504179	0
5	1038	1329.847876539532	0
5	1040	1337.634732036925	0
5	1041	1337.923338368941	0
5	1043	1339.880128332675	0
5	1044	1340.658482661831	0
5	1046	1352.470092406396	0
5	1047	1352.812560911535	0
5	1049	1354.150631433418	0
5	1050	1355.942060007264	0
5	1058	1378.467046024374	0
5	1059	1378.527358804027	0
5	1061	1382.964029345481	0
5	1062	1383.7993903163	0
5	1064	1384.347803866642	0
5	1065	1384.800582772157	0
5	1067	1404.589487443659	0
5	1071	1411.206945014882	1
5	1076	1419.167594791603	2
5	1078	1419.427779406021	3
5	1080	1422.147469800272	4
5	1086	1423.839823110107	5
5	1093	1433.370789378122	6
5	1096	1441.887231514478	7
5	1098	1444.901032292789	8
5	1100	1447.965048863742	9
5	1102	1450.081013532155	10
5	1104	1452.752876970543	11
5	1112	1460.640822766849	12
5	1114	1462.19232444644	13
5	1116	1462.604229739877	14
5	1118	1463.369496307138	15
5	1120	1464.531702691265	16
5	1127	1470.675845592013	17
5	1129	1472.011864142898	17
5	1130	1472.221286026039	16
5	1131	1472.484693493219	15
5	1132	1473.015436942364	14
5	1134	1474.747559630375	14
5	1135	1476.449688489501	14
5	1137	1477.423550440574	14
5	1138	1477.785700403601	14
5	1139	1479.133913285043	13
5	1140	1482.122892748854	12
5	1141	1482.709457476996	11
5	1142	1482.911360786182	10
5	1143	1483.600205553684	9
5	1144	1484.106925759751	8
5	1145	1484.350131215965	7
5	1146	1485.544810267346	6
5	1147	1486.824922101487	5
5	1149	1487.142732621659	5
5	1150	1488.42398023479	5
5	1152	1490.294150504746	5
5	1154	1490.890136236073	6
5	1155	1491.031510625771	6
5	1156	1492.871621117779	5
5	1158	1493.375780174237	5
5	1164	1501.620238563	6
5	1166	1503.509813362262	7
5	1169	1509.866440707721	8
5	1171	1511.911810011117	9
5	1175	1518.48293651913	10
5	1177	1518.859235565549	11
5	1180	1523.473767702265	11
5	1181	1524.149305918956	10
5	1182	1525.131427106091	9
5	1183	1527.708104219247	8
5	1187	1532.124953230329	7
5	1188	1532.615610933608	6
5	1189	1532.819216495688	5
5	1191	1532.868227109375	5
5	1192	1533.593535584265	5
5	1193	1533.668763157089	4
5	1194	1533.709126774134	3
5	1195	1535.92082675283	2
5	1196	1537.814327328653	1
5	1197	1538.254613910179	0
5	1199	1538.732213175733	0
5	1201	1538.988331423826	1
5	1202	1539.483653997493	1
5	1204	1539.645110968323	1
5	1206	1540.03233428899	2
5	1207	1540.237678151265	2
5	1208	1541.178056189575	1
5	1209	1541.590854294745	0
5	1211	1544.688686216914	0
5	1213	1545.066623364695	1
5	1214	1545.861810562228	1
5	1215	1546.586700705614	0
5	1217	1554.871834051164	0
5	1218	1556.170743553037	0
5	1227	1570.14764363098	0
5	1229	1570.212928195805	1
5	1231	1570.806865518058	2
5	1233	1576.222147342082	3
5	1236	1580.944885290296	4
5	1238	1582.139110940096	5
5	1240	1582.352706504135	5
5	1241	1583.334778558274	4
5	1243	1583.871624393051	4
5	1244	1584.105602839672	4
5	1245	1584.233936406867	3
5	1246	1584.67082129061	2
5	1247	1586.009825318383	1
5	1248	1587.460581656305	0
5	1250	1588.914029997004	0
5	1251	1588.930702436614	0
5	1253	1594.282011311397	0
5	1254	1594.759282218872	0
5	1256	1595.78197662681	0
5	1257	1595.785300875819	0
5	1261	1621.790483412929	0
5	1263	1622.09124044095	1
5	1265	1622.998636348697	1
5	1266	1625.848553283287	0
5	1275	1636.829491911117	0
5	1278	1638.552038124945	1
5	1280	1641.964896185277	2
5	1282	1652.036831495713	2
5	1283	1652.87750255145	1
5	1284	1654.199577488365	0
5	1289	1661.06325579011	0
5	1290	1662.747146327699	0
5	1292	1664.063256890365	0
5	1293	1664.529584182379	0
5	1295	1666.038894535985	0
5	1296	1666.130903071602	0
5	1298	1667.096109431549	0
5	1300	1667.735770756512	1
5	1301	1668.837360236634	1
5	1302	1669.347746571561	0
5	1304	1672.222896259305	0
5	1305	1673.797794583945	0
5	1307	1675.714828924273	0
5	1308	1676.546456547716	0
5	1310	1683.364384319041	0
5	1311	1683.765146350035	0
5	1315	1687.087732978369	0
5	1317	1689.673955266356	1
5	1322	1700.846731930152	2
5	1326	1706.947712609774	3
5	1330	1714.477174438978	4
5	1332	1715.111850291791	5
5	1334	1715.641520249184	6
5	1335	1715.83748954337	6
5	1337	1716.753151465202	6
5	1338	1717.478594889131	6
5	1339	1717.963762509235	5
5	1341	1718.05736353107	5
5	1342	1718.107115080178	5
5	1344	1718.248641101044	5
5	1345	1719.047171408205	5
5	1346	1719.079037160309	4
5	1347	1719.175398984487	3
5	1352	1721.992278681313	3
5	1353	1722.286451955192	3
5	1357	1726.16529947315	3
5	1360	1733.178012466273	4
5	1362	1733.605515467038	5
5	1363	1735.904668677169	5
5	1364	1737.209655410571	4
5	1365	1738.145182627041	3
5	1366	1738.51561301436	2
5	1367	1740.418673829489	1
5	1371	1741.734798607626	1
5	1373	1744.093304721004	1
5	1374	1745.443531716251	0
5	1376	1745.88964794241	0
5	1377	1746.214369076329	0
5	1379	1757.123505406625	0
5	1383	1761.023099348345	1
5	1387	1761.7317256994	2
5	1389	1761.848631415313	3
5	1394	1769.763396754837	4
5	1396	1775.079816003719	5
5	1398	1781.773064132319	6
5	1400	1782.691816844586	7
5	1402	1784.208861977264	8
5	1404	1785.471606839115	9
5	1406	1792.196409009896	10
5	1409	1799.873008464167	10
5	1410	1800.790332518973	9
5	1411	1800.947575957046	8
5	1412	1801.525954373116	7
5	1413	1802.204138309116	6
5	1414	1802.280795098094	5
5	1415	1802.699849971495	4
5	1416	1802.782750077412	3
5	1417	1805.769508644852	2
5	1418	1806.299841020114	1
5	1419	1806.525671001446	0
5	1421	1807.354865816251	0
5	1422	1808.054718794075	0
5	1424	1814.645489179336	0
5	1426	1815.808804304429	1
5	1427	1816.13773691578	1
5	1428	1816.420934690882	0
5	1430	1821.456517955234	0
5	1431	1821.744344539965	0
5	1433	1828.049423955977	0
5	1434	1829.499883072729	0
5	1439	1840.236214579913	0
5	1440	1842.055959973981	0
5	1442	1861.209468663812	0
5	1443	1861.23974713523	0
5	1445	1864.158968075576	0
5	1446	1864.735258069004	0
5	1451	1871.233545190134	0
5	1453	1873.267799915488	1
5	1455	1873.6077875532	2
5	1456	1874.310231530829	2
5	1457	1877.151575405851	1
5	1458	1877.262288095867	0
5	1460	1880.174042105123	0
5	1461	1881.253767260975	0
5	1463	1891.467251379145	0
5	1465	1891.925625504888	1
5	1466	1893.521834304543	1
5	1467	1893.548803099013	0
5	1471	1901.204958375503	0
5	1473	1903.00629530473	0
5	1475	1907.348419989015	0
5	1476	1907.494880510337	0
5	1480	1910.598849826022	0
5	1482	1913.207090460262	1
5	1484	1919.349829659081	1
5	1485	1921.627374772981	0
5	1487	1926.126516692928	0
5	1488	1928.352300936406	0
5	1490	1930.426809376531	0
5	1491	1930.765966328348	0
5	1493	1932.000897249263	0
5	1494	1932.173899726719	0
5	1496	1933.401409724062	0
5	1497	1933.634785175769	0
5	1499	1941.760430394862	0
5	1500	1942.914703139113	0
5	1502	1943.241172596115	0
5	1503	1944.566439994733	0
5	1505	1946.979358604608	0
5	1506	1947.185995597703	0
5	1508	1948.777497048225	0
5	1510	1949.190273917339	1
5	1512	1949.238713188098	2
5	1513	1950.955205125494	2
5	1515	1951.288179275109	2
5	1517	1952.55526941939	3
5	1519	1953.974557847571	4
5	1520	1956.41046773362	4
5	1522	1956.485784827803	4
5	1523	1956.518828373032	4
5	1525	1958.027157614692	4
5	1526	1958.111402267074	4
5	1527	1958.385015780919	3
5	1529	1958.450176151393	3
5	1530	1959.064926767055	3
5	1531	1959.314356538928	2
5	1532	1961.084659992752	1
5	1533	1961.880883315037	0
5	1537	1966.749341914246	0
5	1539	1966.90484160184	1
5	1541	1971.375308013783	1
5	1542	1972.555314261224	0
5	1544	1976.368472127121	0
5	1549	1984.585459696914	1
5	1550	1986.931700193061	1
5	1551	1987.290711927579	0
5	1553	1994.383705145405	0
5	1554	1995.924475518577	0
5	1556	1996.523630905644	0
5	1557	1996.547131423088	0
5	1559	1997.52268819622	0
5	1561	1997.537083965383	1
5	1563	1998.216002991895	2
5	1564	1998.552744131542	2
5	1565	2001.052815135091	1
5	1566	2001.175821774269	0
5	1568	2008.973356933521	0
5	1570	2009.305359497489	1
5	1571	2009.733593389636	1
5	1572	2010.104643793775	0
5	1574	2011.414447079121	0
5	1575	2012.336249673851	0
5	1577	2016.47846173718	0
5	1578	2016.51852085125	0
5	1580	2019.123579537335	0
5	1582	2020.305037144536	1
5	1583	2020.883693750751	1
5	1587	2025.910579096654	0
5	1589	2041.769107615885	0
5	1591	2043.016942850542	1
5	1593	2044.863753615106	2
5	1594	2045.028550440419	2
5	1595	2045.577636836194	1
5	1596	2047.436562897412	0
5	1598	2047.704902128936	0
5	1599	2048.510362528159	0
5	1601	2056.376647399061	0
5	1602	2057.021757302968	0
5	1604	2057.55894896753	0
5	1605	2059.579600710502	0
5	1607	2061.728861354513	0
5	1608	2062.828622599499	0
5	1610	2063.145894912825	0
5	1611	2063.812265760628	0
5	1613	2067.358257299065	0
5	1614	2067.479257744106	0
5	1616	2071.604760340977	0
5	1617	2071.782796924588	0
5	1619	2072.798101473696	0
5	1621	2073.12041448547	1
5	1622	2073.541513435707	1
5	1623	2073.606294926447	0
5	1627	2075.702843217881	0
5	1630	2076.747118527278	1
5	1631	2077.835563155813	1
5	1632	2081.868208443764	0
5	1634	2082.591267762213	0
5	1635	2084.019907187287	0
5	1637	2085.532392760399	0
5	1638	2086.583219624367	0
5	1640	2090.337443244581	0
5	1644	2093.196037799144	1
5	1646	2098.711026404662	1
5	1647	2098.991912325796	0
5	1649	2105.159580479204	0
5	1650	2106.216089258131	0
5	1652	2107.506305167925	0
5	1654	2107.670449140871	1
5	1656	2107.806079310526	2
5	1658	2108.938228753291	3
5	1659	2108.992242044576	3
5	1660	2109.457664462318	2
5	1661	2109.773736336098	1
5	1662	2109.794645375038	0
5	1664	2110.200318534467	0
5	1665	2111.012712277129	0
5	1667	2113.146273188082	0
5	1669	2115.469302950319	1
5	1670	2115.93396161587	1
5	1671	2116.842189491041	0
5	1676	2141.826583896154	0
5	1677	2143.876050559062	0
5	1679	2146.171895811422	0
5	1681	2146.219212900942	1
5	1682	2146.354465882662	1
5	1683	2146.5938261757	0
5	1685	2148.463446082619	0
5	1687	2148.627616026109	1
5	1689	2149.38484950126	2
5	1690	2151.341473134096	2
5	1691	2151.367226945895	1
5	1693	2154.615391085153	1
5	1694	2154.771690639304	1
5	1695	2157.183355634815	0
5	1697	2158.634140351369	0
5	1698	2158.994097386345	0
5	1700	2168.099879052162	0
5	1701	2168.353435701564	0
5	1705	2169.811405005584	0
5	1707	2171.924258308543	0
5	1709	2175.433481431818	0
5	1710	2176.668077105068	0
5	1715	2178.512369446227	0
5	1716	2178.669255680418	0
5	1720	2181.581556454761	0
5	1722	2184.607887943493	0
5	1724	2189.308569929486	0
5	1726	2190.287152954667	1
5	1727	2190.754590900707	1
5	1728	2192.654876673574	0
5	1736	2207.178571430402	0
5	1737	2208.514570676227	0
5	1739	2210.347526058778	0
5	1740	2211.133019599005	0
5	1748	2228.376215993017	0
5	1750	2229.904182654877	1
5	1751	2230.085115482941	1
5	1752	2233.052070719613	0
5	1754	2238.419092075022	0
5	1755	2238.968486657134	0
5	1757	2247.175388210955	0
5	1758	2247.207120587344	0
5	1760	2247.2314393525	0
5	1761	2247.539569567012	0
5	1763	2253.551329080491	0
5	1765	2253.779758315942	1
5	1766	2255.371875504991	1
5	1767	2258.965270617165	0
5	1769	2260.243153329897	0
5	1770	2261.377279332484	0
5	1772	2272.038978294793	0
5	1773	2272.87119632392	0
5	1775	2275.126356249493	0
5	1776	2275.252256796177	0
5	1778	2279.283807281889	0
5	1779	2279.452855137077	0
5	1784	2285.958472803556	0
5	1785	2286.356924644366	0
5	1790	2293.51368547194	0
5	1791	2294.778689856979	0
5	1793	2300.66859143972	0
5	1794	2301.06383228002	0
5	1796	2305.638623361734	0
5	1798	2306.5641620343	1
5	1799	2306.866065933669	1
5	1801	2306.868691739438	1
5	1802	2307.234518237386	1
5	1803	2308.971902896564	0
5	1805	2309.298605791248	0
5	1806	2309.944162015886	0
5	1808	2312.490118295609	0
5	1809	2313.41368714926	0
5	1811	2316.930726347174	0
5	1812	2317.65097038262	0
5	1814	2318.479630222868	0
5	1815	2319.745903335106	0
5	1817	2323.813601549844	0
5	1818	2324.596328298952	0
5	1822	2328.274531847954	0
5	1824	2332.19826815642	1
5	1829	2337.22949055851	1
5	1831	2337.579833045393	1
5	1832	2340.272288466584	1
5	1833	2340.420610849312	0
5	1835	2340.581556629582	0
5	1836	2342.080224968944	0
5	1838	2344.375388992991	0
5	1839	2345.454877396732	0
5	1841	2348.141505748199	0
5	1842	2350.435229553878	0
5	1844	2353.131081210407	0
5	1846	2353.785590453364	1
5	1847	2354.119947129704	1
5	1848	2355.374368798974	0
5	1850	2355.502000328094	0
5	1851	2355.853190806335	0
5	1853	2357.410645806427	0
5	1854	2358.349475340906	0
5	1856	2361.410566513535	0
5	1857	2362.694960721029	0
5	1863	2370.10165232649	0
5	1866	2372.996951378225	0
5	1868	2383.323135121174	0
5	1870	2384.451015307186	1
5	1871	2384.64508744901	1
5	1875	2394.36104419564	1
5	1877	2396.607969695617	1
5	1878	2397.059555333808	0
5	1880	2397.855033850574	0
5	1881	2397.872857949466	0
5	1883	2404.449303532333	0
5	1884	2404.709489769585	0
5	1886	2406.750106300478	0
5	1887	2406.949768731782	0
5	1889	2408.6109915723	0
5	1890	2409.846917408681	0
5	1892	2418.070769040521	0
5	1894	2419.64963021074	1
5	1896	2420.067291498195	2
5	1900	2425.215000359197	3
5	1902	2425.314292796781	4
5	1904	2428.436445185483	4
5	1905	2429.559123732805	3
5	1906	2432.141216550131	2
5	1907	2432.883742468022	1
5	1908	2432.93906154437	0
5	1910	2435.046581374034	0
5	1911	2436.507922207036	0
5	1916	2443.967179450011	0
5	1917	2445.122191822117	0
5	1922	2452.150802148856	0
5	1923	2454.052207810753	0
5	1925	2456.551629582122	0
5	1926	2457.876293062473	0
5	1928	2458.164167059657	0
5	1929	2458.464959169133	0
5	1931	2467.433197512215	0
5	1932	2467.71361952496	0
5	1934	2472.434056198355	0
5	1935	2473.48077462412	0
5	1937	2478.419666494406	0
5	1938	2480.004386494034	0
5	1940	2481.912878389171	0
5	1941	2482.675193153036	0
5	1943	2486.928952286728	0
5	1944	2487.003586690532	0
5	1946	2491.988161311926	0
5	1947	2492.355076258201	0
5	1949	2496.506638597895	0
5	1950	2497.195854152863	0
6	281	359.877028435229	0
6	284	363.857270407593	0
6	287	364.730081837224	0.44850251147
6	290	365.367064090233	0.047403163922
6	293	369.025958534247	0
6	296	371.571606162347	0
6	299	373.129112254577	0.107178651888
6	302	374.394369190389	0
6	305	380.586737892309	0
6	310	382.048921569103	1.275466061365
6	311	382.47452121299	1.394640681973
6	314	385.282838041191	0
6	317	389.528194195091	0
6	320	402.332693867396	0
6	323	410.570738559814	0
6	326	411.557235003992	0
6	329	414.916951278951	0
6	337	427.922919793437	6.934545106809
6	338	428.20315984241	5.826179937508
6	341	428.999126918144	0.25709008123
6	344	432.045263028674	0
6	349	432.508201542418	0.305154805169
6	350	434.258520471721	2.053495213921
6	353	436.576276297838	0
6	356	440.090260330419	0
6	362	446.07156664809	0
6	365	452.950572068422	0
6	368	464.98216626876	0
6	371	466.508537944349	0
6	377	483.519226185312	0
6	380	485.38338079234	0
6	383	494.414585735391	0
6	386	516.856476619823	0
6	389	531.948551898821	0
6	392	533.602528745562	0
6	402	540.103626412954	2.971702902409
6	403	541.280618772587	3.24540768002
6	418	567.564240005452	28.447578591576
6	419	567.896354633556	26.175616040649
6	422	569.201517009796	18.791200482058
6	423	569.382898707034	18.611638286136
6	424	569.706563774221	14.035396874667
6	425	570.676371233705	2.000540200586
6	428	571.878904197543	0
6	431	574.361270478973	0
6	434	575.451285069993	0.148484924103
6	437	577.925485524079	0
6	440	585.882106010401	0
6	443	586.819208996479	0
6	446	591.521993770654	0
6	449	593.060850462213	0.829050312874
6	452	595.04849883737	1.901153408861
6	455	596.713896775803	0
6	460	599.138723984243	2.16260947355
6	461	600.168581577909	1.10924920317
6	464	602.120671619459	0
6	467	605.173160244338	0
6	470	607.166311975683	0
6	473	607.415420581756	0
6	476	609.974543461092	0
6	479	611.457147900903	0
6	482	611.732832558974	0.086197158801
6	485	624.344102418476	0
6	498	648.158271931021	2.709206869347
6	499	648.570375243564	2.658794181985
6	500	649.048752088962	1.7605508172
6	503	652.035072340776	0
6	506	652.920457571756	0
6	509	659.878580800197	0
6	512	661.716472937134	0
6	515	664.874311783073	0
6	518	665.448887448424	0.107634530794
6	524	671.369134696912	1.009878694155
6	527	672.593720287241	0
6	535	675.974953750651	0.581969385325
6	536	676.475252459261	1.039162033853
6	539	691.303511096305	0
6	545	700.458321212536	0
6	554	711.053678301896	0
6	557	712.485807282965	0
6	560	715.949126420688	2.834362075227
6	569	725.735851851571	0
6	576	735.243146366857	9.264708279981
6	577	736.326392673688	10.187475531407
6	578	736.779297190886	5.296710353738
6	590	746.149996156744	3.391734532446
6	591	747.364095854814	3.502826627903
6	592	748.722731856644	4.800684009968
6	593	750.059349363133	5.099645903537
6	596	751.806747863553	0
6	601	752.954297807261	0.802683802088
6	602	753.201952414161	0.332590422993
6	628	797.645015244678	11.755109383336
6	629	798.186571584622	11.497271551901
6	630	798.395376098364	10.961688726593
6	631	799.800750794376	9.325700023695
6	632	800.524358716973	5.818352569404
6	635	803.387445770793	0
6	638	813.455526605933	0
6	643	817.356600859322	1.332789352059
6	644	817.389754853106	0.488402387095
6	647	822.273772307649	0
6	650	822.599910632916	0
6	655	825.332451737565	0.313519138722
6	656	827.101881531051	1.9603794016
6	659	838.60190933569	0
6	662	847.114126723212	0
6	665	847.87642506019	0
6	668	848.624213812156	0.159929816924
6	696	889.271801544583	30.738152636942
6	697	891.672995467948	28.80398400193
6	698	892.239933241739	25.973032031087
6	699	892.810727094467	24.951203381954
6	700	892.959227449642	24.385685666213
6	701	893.637343354185	9.170967439013
6	704	894.916269317649	0
6	707	900.100962522919	0
6	710	900.698911959686	0
6	713	906.708633949476	0
6	716	910.422976025054	0
6	719	911.250213512823	0.695713491785
6	722	912.224119398767	0
6	725	918.474901203841	5.539143005006
6	728	925.881687993459	0
6	731	926.881550525634	0
6	734	930.807867182323	0
6	740	936.301410599012	0
6	746	939.678036793444	0
6	749	943.344180841664	0
6	755	951.221009526064	0
6	758	952.930657243365	0
6	761	954.888703997922	0
6	769	972.108184800654	11.016837082479
6	770	973.1440206488	8.064713705668
6	773	981.956070661532	0
6	776	986.659488300329	0
6	779	986.715204604221	0.034549720437
6	782	987.558291060493	0
6	785	988.786483536632	0
6	788	989.53831759565	0
6	791	992.630971645444	0
6	794	994.651727430122	0
6	797	1007.677340966774	0
6	800	1010.274219610745	0
6	803	1012.86290736857	0
6	806	1016.009542244296	0
6	809	1027.751310133305	0
6	812	1030.287751791844	0
6	815	1042.354853189071	0
6	818	1043.600519331667	1.09792335742
6	821	1046.469922274418	0
6	824	1049.518544707472	0
6	827	1051.29556880551	0
6	830	1058.184390132212	0
6	833	1059.612359522064	1.371058997678
6	836	1059.70726180506	0.045229984203
6	842	1062.221824855093	0.384687532464
6	845	1069.020341472692	0
6	854	1082.559230913177	7.116411924153
6	857	1083.683557336102	0
6	860	1093.017446998939	0
6	863	1110.613539965161	0
6	869	1119.444634801327	0
6	872	1127.241534048919	0
6	878	1135.537704958375	0
6	881	1140.385913051683	0
6	884	1141.932042347996	0
6	887	1142.386785998194	0.201911077549
6	890	1144.221247928441	0
6	893	1148.790123012344	0
6	903	1157.541163817664	2.650258886456
6	910	1162.464871918121	6.078465540684
6	911	1162.672039122426	5.911377508297
6	912	1162.804303341196	4.257007062381
6	915	1166.228545533971	7.062261807122
6	920	1170.310146578339	10.875870352251
6	929	1185.400207500366	21.446841783864
6	930	1185.499541443104	17.066591226237
6	935	1186.261820682581	16.359908432966
6	936	1186.787572011914	16.265372806016
6	937	1189.691849216669	4.117965806665
6	938	1189.910075991822	4.334058801839
6	941	1190.443601890852	0
6	946	1193.734842508645	2.140350378742
6	947	1193.780297161562	0.581460281728
6	950	1195.559316105219	0
6	953	1200.29565294919	0
6	956	1203.757964175962	0
6	959	1209.065004357998	0
6	962	1211.939413569725	0
6	965	1215.016784686672	0
6	968	1217.772528869416	0
6	971	1228.845729084797	0
6	974	1230.569476995072	0
6	979	1236.666448394572	5.519621104125
6	984	1237.531535996414	5.923230279317
6	985	1237.671726779585	0.892962880862
6	986	1237.76825057491	0.561591097824
6	989	1241.657191637689	0
6	992	1243.949119235652	0
6	995	1253.521354418454	0
6	998	1262.187661331848	0
6	1001	1264.521696050626	2.304680163525
6	1004	1264.762657876692	0
6	1007	1265.560860720514	0.36599095192
6	1010	1271.797660164844	0
6	1013	1275.434914325529	0
6	1016	1277.577391013852	0
6	1019	1279.531003917461	0.362148377338
6	1025	1291.517957756838	0
6	1028	1295.347666577783	0
6	1031	1304.9837907849	0
6	1034	1305.604118428478	0
6	1037	1329.245105504179	0
6	1040	1337.634732036925	0
6	1043	1339.880128332675	0
6	1046	1352.470092406396	0
6	1049	1354.150631433418	0
6	1058	1378.467046024374	0
6	1061	1382.964029345481	0
6	1064	1384.347803866642	0
6	1067	1404.589487443659	0
6	1123	1469.409634268323	63.756515253125
6	1128	1471.453467039569	60.246522024687
6	1129	1472.011864142898	52.844269351295
6	1130	1472.221286026039	52.793506620018
6	1131	1472.484693493219	50.337223692947
6	1132	1473.015436942364	49.175613832257
6	1135	1476.449688489501	43.078899111379
6	1138	1477.785700403601	35.898468889123
6	1139	1479.133913285043	34.232880992254
6	1140	1482.122892748854	34.157843885112
6	1141	1482.709457476996	32.628443944841
6	1142	1482.911360786182	30.158483815639
6	1143	1483.600205553684	22.959382786835
6	1144	1484.106925759751	21.914601313311
6	1145	1484.350131215965	21.745901476088
6	1146	1485.544810267346	22.175313960208
6	1147	1486.824922101487	22.293219410222
6	1150	1488.42398023479	17.968347785941
6	1155	1491.031510625771	20.355665033758
6	1156	1492.871621117779	18.124061487404
6	1179	1523.441984212979	46.018433772405
6	1180	1523.473767702265	36.331035080606
6	1181	1524.149305918956	33.85515541421
6	1182	1525.131427106091	34.241290870018
6	1183	1527.708104219247	34.33232404501
6	1186	1531.210066004728	37.760730406584
6	1187	1532.124953230329	30.504714667329
6	1188	1532.615610933608	29.105797571346
6	1189	1532.819216495688	22.952775787967
6	1192	1533.593535584265	21.681725573148
6	1193	1533.668763157089	15.185826637959
6	1194	1533.709126774134	14.849891208585
6	1195	1535.92082675283	7.365502627999
6	1196	1537.814327328653	4.946100219278
6	1199	1538.732213175733	0
6	1202	1539.483653997493	0.495322573667
6	1207	1540.237678151265	0.592567182942
6	1208	1541.178056189575	1.145721900585
6	1211	1544.688686216914	0
6	1214	1545.861810562228	0.795187197533
6	1217	1554.871834051164	0
6	1239	1582.284351675076	12.136708044096
6	1240	1582.352706504135	12.13977830833
6	1241	1583.334778558274	12.527913040216
6	1244	1584.105602839672	7.88345549759
6	1245	1584.233936406867	3.289051116571
6	1246	1584.67082129061	2.531710350514
6	1247	1586.009825318383	2.138200925332
6	1250	1588.914029997004	0
6	1253	1594.282011311397	0
6	1256	1595.78197662681	0
6	1264	1622.46648597697	0.676002564041
6	1265	1622.998636348697	0.907395907747
6	1281	1650.508499260933	13.679007349816
6	1282	1652.036831495713	13.484793370768
6	1283	1652.87750255145	10.912606366173
6	1289	1661.06325579011	0
6	1292	1664.063256890365	0
6	1295	1666.038894535985	0
6	1298	1667.096109431549	0
6	1301	1668.837360236634	1.101589480122
6	1304	1672.222896259305	0
6	1307	1675.714828924273	0
6	1310	1683.364384319041	0
6	1328	1712.247154016955	25.159421038586
6	1335	1715.83748954337	26.163534277014
6	1338	1717.478594889131	16.631862958979
6	1339	1717.963762509235	11.016049899461
6	1342	1718.107115080178	3.6299406412
6	1345	1719.047171408205	3.935321116414
6	1346	1719.079037160309	3.437516911125
6	1347	1719.175398984487	2.422247519285
6	1350	1721.093426455114	3.036062924044
6	1353	1722.286451955192	4.037810854148
6	1358	1732.758106249994	12.823655174434
6	1363	1735.904668677169	13.912389995856
6	1364	1737.209655410571	12.612799676691
6	1365	1738.145182627041	11.979883153891
6	1366	1738.51561301436	5.337600548087
6	1367	1740.418673829489	6.813158362451
6	1372	1743.012305475494	2.590973876144
6	1373	1744.093304721004	2.358506113378
6	1376	1745.88964794241	0
6	1379	1757.123505406625	0
6	1408	1798.667656412332	41.473599931889
6	1409	1799.873008464167	38.849909115822
6	1410	1800.790332518973	39.058606819573
6	1411	1800.947575957046	39.098944541733
6	1412	1801.525954373116	31.762557618279
6	1413	1802.204138309116	27.124322305397
6	1414	1802.280795098094	20.507730965775
6	1415	1802.699849971495	20.008033126909
6	1416	1802.782750077412	18.573888100148
6	1417	1805.769508644852	20.297901805737
6	1418	1806.299841020114	14.103432010218
6	1421	1807.354865816251	0
6	1424	1814.645489179336	0
6	1427	1816.13773691578	0.328932611351
6	1430	1821.456517955234	0
6	1433	1828.049423955977	0
6	1439	1840.236214579913	0
6	1442	1861.209468663812	0
6	1445	1864.158968075576	0
6	1451	1871.233545190134	0
6	1456	1874.310231530829	1.042431615341
6	1457	1877.151575405851	3.543787852651
6	1460	1880.174042105123	0
6	1463	1891.467251379145	0
6	1466	1893.521834304543	1.596208799655
6	1472	1901.502933920921	0.297975545418
6	1475	1907.348419989015	0
6	1483	1915.148518538969	4.549668712947
6	1484	1919.349829659081	6.142739198819
6	1487	1926.126516692928	0
6	1490	1930.426809376531	0
6	1493	1932.000897249263	0
6	1496	1933.401409724062	0
6	1499	1941.760430394862	0
6	1502	1943.241172596115	0
6	1505	1946.979358604608	0
6	1508	1948.777497048225	0
6	1513	1950.955205125494	1.764931208155
6	1520	1956.41046773362	7.171754545522
6	1523	1956.518828373032	5.230649097923
6	1526	1958.111402267074	5.556132847684
6	1527	1958.385015780919	4.410457933348
6	1530	1959.064926767055	2.579141939252
6	1531	1959.314356538928	1.287198924236
6	1532	1961.084659992752	2.634483841359
6	1540	1970.720577979858	3.971236065612
6	1541	1971.375308013783	4.470466411943
6	1544	1976.368472127121	0
6	1547	1984.144565598209	7.480928721704
6	1550	1986.931700193061	2.346240496147
6	1553	1994.383705145405	0
6	1556	1996.523630905644	0
6	1559	1997.52268819622	0
6	1564	1998.552744131542	1.015660166159
6	1565	2001.052815135091	2.836812143196
6	1568	2008.973356933521	0
6	1571	2009.733593389636	0.428233892147
6	1574	2011.414447079121	0
6	1577	2016.47846173718	0
6	1580	2019.123579537335	0
6	1583	2020.883693750751	0.578656606215
6	1586	2024.355491593225	2.648814794952
6	1589	2041.769107615885	0
6	1594	2045.028550440419	2.011607589877
6	1595	2045.577636836194	0.713883221088
6	1598	2047.704902128936	0
6	1601	2056.376647399061	0
6	1604	2057.55894896753	0
6	1607	2061.728861354513	0
6	1610	2063.145894912825	0
6	1613	2067.358257299065	0
6	1616	2071.604760340977	0
6	1619	2072.798101473696	0
6	1622	2073.541513435707	0.421098950237
6	1628	2076.29129546134	0.588452243459
6	1631	2077.835563155813	1.088444628535
6	1634	2082.591267762213	0
6	1637	2085.532392760399	0
6	1640	2090.337443244581	0
6	1645	2098.671634418581	6.491197487596
6	1646	2098.711026404662	5.514988605518
6	1649	2105.159580479204	0
6	1652	2107.506305167925	0
6	1659	2108.992242044576	1.321792903705
6	1660	2109.457664462318	1.651585151792
6	1661	2109.773736336098	0.835507582807
6	1664	2110.200318534467	0
6	1667	2113.146273188082	0
6	1670	2115.93396161587	0.464658665551
6	1676	2141.826583896154	0
6	1679	2146.171895811422	0
6	1682	2146.354465882662	0.13525298172
6	1685	2148.463446082619	0
6	1690	2151.341473134096	2.713857107987
6	1691	2151.367226945895	1.982377444635
6	1694	2154.771690639304	0.156299554151
6	1697	2158.634140351369	0
6	1700	2168.099879052162	0
6	1706	2171.702190838223	1.890785832639
6	1709	2175.433481431818	0
6	1715	2178.512369446227	0
6	1721	2184.459929526471	2.87837307171
6	1724	2189.308569929486	0
6	1727	2190.754590900707	0.46743794604
6	1736	2207.178571430402	0
6	1739	2210.347526058778	0
6	1748	2228.376215993017	0
6	1751	2230.085115482941	0.180932828064
6	1754	2238.419092075022	0
6	1757	2247.175388210955	0
6	1760	2247.2314393525	0
6	1763	2253.551329080491	0
6	1766	2255.371875504991	1.592117189049
6	1769	2260.243153329897	0
6	1772	2272.038978294793	0
6	1775	2275.126356249493	0
6	1778	2279.283807281889	0
6	1784	2285.958472803556	0
6	1790	2293.51368547194	0
6	1793	2300.66859143972	0
6	1796	2305.638623361734	0
6	1799	2306.866065933669	0.301903899369
6	1802	2307.234518237386	0.365826497948
6	1805	2309.298605791248	0
6	1808	2312.490118295609	0
6	1811	2316.930726347174	0
6	1814	2318.479630222868	0
6	1817	2323.813601549844	0
6	1825	2334.577343896308	6.302812048354
6	1828	2336.882941233333	4.684673076913
6	1829	2337.22949055851	1.500423837767
6	1832	2340.272288466584	2.692455421191
6	1835	2340.581556629582	0
6	1838	2344.375388992991	0
6	1841	2348.141505748199	0
6	1844	2353.131081210407	0
6	1847	2354.119947129704	0.33435667634
6	1850	2355.502000328094	0
6	1853	2357.410645806427	0
6	1856	2361.410566513535	0
6	1865	2372.698603190795	2.596950864305
6	1868	2383.323135121174	0
6	1871	2384.64508744901	0.194072141824
6	1876	2396.475871631733	11.385764418489
6	1877	2396.607969695617	2.246925499977
6	1880	2397.855033850574	0
6	1883	2404.449303532333	0
6	1886	2406.750106300478	0
6	1889	2408.6109915723	0
6	1892	2418.070769040521	0
6	1903	2428.323044603587	8.673414392847
6	1904	2428.436445185483	8.369153687288
6	1905	2429.559123732805	9.177859181463
6	1906	2432.141216550131	6.926216190934
6	1907	2432.883742468022	7.569449671241
6	1910	2435.046581374034	0
6	1916	2443.967179450011	0
6	1922	2452.150802148856	0
6	1925	2456.551629582122	0
6	1928	2458.164167059657	0
6	1931	2467.433197512215	0
6	1934	2472.434056198355	0
6	1937	2478.419666494406	0
6	1940	2481.912878389171	0
6	1943	2486.928952286728	0
6	1946	2491.988161311926	0
6	1949	2496.506638597895	0
7	282	360.092653947569	72
7	287	364.730081837224	73
7	290	365.367064090233	74
7	291	367.427495915011	75
7	294	370.506396922758	76
7	299	373.129112254577	77
7	300	374.024752660763	78
7	303	374.640381872387	79
7	310	382.048921569103	80
7	311	382.47452121299	81
7	312	384.880876804424	82
7	315	386.561177558965	83
7	318	391.597141945464	84
7	321	402.769523299304	85
7	324	410.67580792237	86
7	327	412.174689169985	87
7	330	416.097562278034	88
7	338	428.20315984241	89
7	341	428.999126918144	90
7	342	429.331336738373	91
7	349	432.508201542418	92
7	350	434.258520471721	93
7	351	434.315069041763	94
7	354	438.650704290926	95
7	357	441.71019309193	96
7	363	446.225614509409	97
7	366	453.040627619676	98
7	369	465.310770106738	99
7	372	467.044128104338	100
7	378	484.264022818588	101
7	381	486.406000662994	102
7	384	496.725787504819	103
7	387	517.13853339091	104
7	390	532.871003930996	105
7	393	534.066518361816	106
7	403	541.280618772587	107
7	419	567.896354633556	108
7	422	569.201517009796	109
7	423	569.382898707034	110
7	424	569.706563774221	111
7	425	570.676371233705	112
7	426	570.846314224373	113
7	429	572.505634236794	114
7	434	575.451285069993	115
7	435	575.63712828359	116
7	438	580.786835029032	117
7	441	586.639861580124	118
7	444	587.962781482396	119
7	449	593.060850462213	120
7	452	595.04849883737	121
7	453	595.337591206599	122
7	460	599.138723984243	123
7	461	600.168581577909	124
7	462	601.857823191815	125
7	465	602.201749219665	126
7	468	606.943635065201	127
7	471	607.318438305478	128
7	474	607.442891522864	129
7	477	610.624825758896	130
7	482	611.732832558974	131
7	483	612.373637294178	132
7	486	624.653794015131	133
7	499	648.570375243564	134
7	500	649.048752088962	135
7	501	649.90734200757	136
7	504	652.687560786237	137
7	507	654.649001121363	138
7	510	660.266332367298	139
7	513	663.192423189403	140
7	518	665.448887448424	141
7	519	665.586615198484	142
7	525	672.186189276236	143
7	528	672.735458495677	144
7	536	676.475252459261	145
7	537	677.184113274375	146
7	540	692.166884163332	147
7	546	701.814781960262	148
7	555	711.528685531635	149
7	560	715.949126420688	150
7	561	716.17690155192	151
7	577	736.326392673688	152
7	578	736.779297190886	153
7	579	738.288630843014	154
7	591	747.364095854814	155
7	592	748.722731856644	156
7	593	750.059349363133	157
7	594	751.524733674572	158
7	601	752.954297807261	159
7	602	753.201952414161	160
7	603	753.307545159404	161
7	629	798.186571584622	162
7	630	798.395376098364	163
7	631	799.800750794376	164
7	632	800.524358716973	165
7	633	802.475441300996	166
7	636	805.32120210669	167
7	643	817.356600859322	168
7	644	817.389754853106	169
7	645	817.910936104931	170
7	648	822.48703738781	171
7	655	825.332451737565	172
7	656	827.101881531051	173
7	657	828.069254773733	174
7	660	840.057509869781	175
7	663	847.204422436864	176
7	668	848.624213812156	177
7	669	849.06899449394	178
7	697	891.672995467948	179
7	698	892.239933241739	180
7	699	892.810727094467	181
7	700	892.959227449642	182
7	701	893.637343354185	183
7	702	894.350305086105	184
7	705	895.577301661785	185
7	708	900.189788608471	186
7	711	900.859269803827	187
7	714	906.98138826348	188
7	719	911.250213512823	189
7	720	911.737449268412	190
7	726	918.564002961401	191
7	729	926.509306787282	192
7	732	929.045408402681	193
7	735	931.387711071722	194
7	741	936.433876362113	195
7	747	939.942930280968	196
7	750	943.40485530982	197
7	756	951.731913127309	198
7	759	953.33861734485	199
7	762	956.09628409242	200
7	770	973.1440206488	201
7	771	973.548625106383	202
7	774	982.391282585091	203
7	779	986.715204604221	204
7	780	987.164058173737	205
7	783	987.966926063667	206
7	786	989.175766865521	207
7	789	989.666536487959	208
7	792	992.817432786282	209
7	795	995.729185629319	210
7	798	1008.092221752984	211
7	801	1010.782976108084	212
7	804	1013.690761792118	213
7	807	1016.341491721226	214
7	810	1028.959024550739	215
7	813	1030.477946838102	216
7	819	1045.242125184498	217
7	822	1046.729388735057	218
7	825	1049.938731978393	219
7	828	1053.288242245568	220
7	833	1059.612359522064	221
7	836	1059.70726180506	222
7	837	1060.109297057532	223
7	843	1063.883934547034	224
7	846	1069.307290458857	225
7	855	1083.30662014678	226
7	858	1084.730496220204	227
7	861	1093.432250935753	228
7	864	1111.141794983113	229
7	870	1119.917469183281	230
7	873	1127.330394279048	231
7	879	1136.124856525861	232
7	882	1141.26870440391	233
7	887	1142.386785998194	234
7	888	1142.718677208122	235
7	891	1144.841879951863	236
7	894	1149.042385590191	237
7	911	1162.672039122426	238
7	912	1162.804303341196	239
7	915	1166.228545533971	240
7	920	1170.310146578339	241
7	930	1185.499541443104	242
7	935	1186.261820682581	243
7	936	1186.787572011914	244
7	937	1189.691849216669	245
7	938	1189.910075991822	246
7	939	1190.052703799369	247
7	946	1193.734842508645	248
7	947	1193.780297161562	249
7	948	1194.015637322048	250
7	951	1196.794020095512	251
7	954	1202.629230758266	252
7	957	1205.702078898698	253
7	960	1209.629225214028	254
7	963	1213.425058065704	255
7	966	1215.25260945496	256
7	969	1219.204733942144	257
7	972	1229.261611255703	258
7	984	1237.531535996414	259
7	985	1237.671726779585	260
7	986	1237.76825057491	261
7	987	1240.100331343369	262
7	990	1242.650368926317	263
7	993	1245.8330332694	264
7	996	1256.406890436761	265
7	1001	1264.521696050626	266
7	1002	1264.639066522855	267
7	1007	1265.560860720514	268
7	1008	1265.723120229138	269
7	1011	1272.43719650559	270
7	1014	1276.352778593929	271
7	1019	1279.531003917461	272
7	1020	1279.54571002173	273
7	1026	1292.383739675703	274
7	1029	1296.169025862103	275
7	1032	1305.482971800794	276
7	1035	1305.636809049661	277
7	1038	1329.847876539532	278
7	1041	1337.923338368941	279
7	1044	1340.658482661831	280
7	1047	1352.812560911535	281
7	1050	1355.942060007264	282
7	1059	1378.527358804027	283
7	1062	1383.7993903163	284
7	1065	1384.800582772157	285
7	1129	1472.011864142898	286
7	1130	1472.221286026039	287
7	1131	1472.484693493219	288
7	1132	1473.015436942364	289
7	1135	1476.449688489501	290
7	1138	1477.785700403601	291
7	1139	1479.133913285043	292
7	1140	1482.122892748854	293
7	1141	1482.709457476996	294
7	1142	1482.911360786182	295
7	1143	1483.600205553684	296
7	1144	1484.106925759751	297
7	1145	1484.350131215965	298
7	1146	1485.544810267346	299
7	1147	1486.824922101487	300
7	1150	1488.42398023479	301
7	1155	1491.031510625771	302
7	1156	1492.871621117779	303
7	1180	1523.473767702265	304
7	1181	1524.149305918956	305
7	1182	1525.131427106091	306
7	1183	1527.708104219247	307
7	1187	1532.124953230329	308
7	1188	1532.615610933608	309
7	1189	1532.819216495688	310
7	1192	1533.593535584265	311
7	1193	1533.668763157089	312
7	1194	1533.709126774134	313
7	1195	1535.92082675283	314
7	1196	1537.814327328653	315
7	1197	1538.254613910179	316
7	1202	1539.483653997493	317
7	1207	1540.237678151265	318
7	1208	1541.178056189575	319
7	1209	1541.590854294745	320
7	1214	1545.861810562228	321
7	1215	1546.586700705614	322
7	1218	1556.170743553037	323
7	1240	1582.352706504135	324
7	1241	1583.334778558274	325
7	1244	1584.105602839672	326
7	1245	1584.233936406867	327
7	1246	1584.67082129061	328
7	1247	1586.009825318383	329
7	1248	1587.460581656305	330
7	1251	1588.930702436614	331
7	1254	1594.759282218872	332
7	1257	1595.785300875819	333
7	1265	1622.998636348697	334
7	1266	1625.848553283287	335
7	1282	1652.036831495713	336
7	1283	1652.87750255145	337
7	1284	1654.199577488365	338
7	1290	1662.747146327699	339
7	1293	1664.529584182379	340
7	1296	1666.130903071602	341
7	1301	1668.837360236634	342
7	1302	1669.347746571561	343
7	1305	1673.797794583945	344
7	1308	1676.546456547716	345
7	1311	1683.765146350035	346
7	1335	1715.83748954337	347
7	1338	1717.478594889131	348
7	1339	1717.963762509235	349
7	1342	1718.107115080178	350
7	1345	1719.047171408205	351
7	1346	1719.079037160309	352
7	1347	1719.175398984487	353
7	1353	1722.286451955192	354
7	1363	1735.904668677169	355
7	1364	1737.209655410571	356
7	1365	1738.145182627041	357
7	1366	1738.51561301436	358
7	1367	1740.418673829489	359
7	1373	1744.093304721004	360
7	1374	1745.443531716251	361
7	1377	1746.214369076329	362
7	1409	1799.873008464167	363
7	1410	1800.790332518973	364
7	1411	1800.947575957046	365
7	1412	1801.525954373116	366
7	1413	1802.204138309116	367
7	1414	1802.280795098094	368
7	1415	1802.699849971495	369
7	1416	1802.782750077412	370
7	1417	1805.769508644852	371
7	1418	1806.299841020114	372
7	1419	1806.525671001446	373
7	1422	1808.054718794075	374
7	1427	1816.13773691578	375
7	1428	1816.420934690882	376
7	1431	1821.744344539965	377
7	1434	1829.499883072729	378
7	1440	1842.055959973981	379
7	1443	1861.23974713523	380
7	1446	1864.735258069004	381
7	1456	1874.310231530829	382
7	1457	1877.151575405851	383
7	1458	1877.262288095867	384
7	1461	1881.253767260975	385
7	1466	1893.521834304543	386
7	1467	1893.548803099013	387
7	1473	1903.00629530473	388
7	1476	1907.494880510337	389
7	1484	1919.349829659081	390
7	1485	1921.627374772981	391
7	1488	1928.352300936406	392
7	1491	1930.765966328348	393
7	1494	1932.173899726719	394
7	1497	1933.634785175769	395
7	1500	1942.914703139113	396
7	1503	1944.566439994733	397
7	1506	1947.185995597703	398
7	1513	1950.955205125494	399
7	1520	1956.41046773362	400
7	1523	1956.518828373032	401
7	1526	1958.111402267074	402
7	1527	1958.385015780919	403
7	1530	1959.064926767055	404
7	1531	1959.314356538928	405
7	1532	1961.084659992752	406
7	1533	1961.880883315037	407
7	1541	1971.375308013783	408
7	1542	1972.555314261224	409
7	1550	1986.931700193061	410
7	1551	1987.290711927579	411
7	1554	1995.924475518577	412
7	1557	1996.547131423088	413
7	1564	1998.552744131542	414
7	1565	2001.052815135091	415
7	1566	2001.175821774269	416
7	1571	2009.733593389636	417
7	1572	2010.104643793775	418
7	1575	2012.336249673851	419
7	1578	2016.51852085125	420
7	1583	2020.883693750751	421
7	1587	2025.910579096654	422
7	1594	2045.028550440419	423
7	1595	2045.577636836194	424
7	1596	2047.436562897412	425
7	1599	2048.510362528159	426
7	1602	2057.021757302968	427
7	1605	2059.579600710502	428
7	1608	2062.828622599499	429
7	1611	2063.812265760628	430
7	1614	2067.479257744106	431
7	1617	2071.782796924588	432
7	1622	2073.541513435707	433
7	1623	2073.606294926447	434
7	1631	2077.835563155813	435
7	1632	2081.868208443764	436
7	1635	2084.019907187287	437
7	1638	2086.583219624367	438
7	1646	2098.711026404662	439
7	1647	2098.991912325796	440
7	1650	2106.216089258131	441
7	1659	2108.992242044576	442
7	1660	2109.457664462318	443
7	1661	2109.773736336098	444
7	1662	2109.794645375038	445
7	1665	2111.012712277129	446
7	1670	2115.93396161587	447
7	1671	2116.842189491041	448
7	1677	2143.876050559062	449
7	1682	2146.354465882662	450
7	1683	2146.5938261757	451
7	1690	2151.341473134096	452
7	1691	2151.367226945895	453
7	1694	2154.771690639304	454
7	1695	2157.183355634815	455
7	1698	2158.994097386345	456
7	1701	2168.353435701564	457
7	1707	2171.924258308543	458
7	1710	2176.668077105068	459
7	1716	2178.669255680418	460
7	1722	2184.607887943493	461
7	1727	2190.754590900707	462
7	1728	2192.654876673574	463
7	1737	2208.514570676227	464
7	1740	2211.133019599005	465
7	1751	2230.085115482941	466
7	1752	2233.052070719613	467
7	1755	2238.968486657134	468
7	1758	2247.207120587344	469
7	1761	2247.539569567012	470
7	1766	2255.371875504991	471
[...]
8	381	486.406000662994	1.022619870654
8	384	496.725787504819	2.311201769428
8	387	517.13853339091	0.282056771087
8	390	532.871003930996	0.922452032175
8	393	534.066518361816	0.463989616254
8	403	541.280618772587	4.148695262042
8	419	567.896354633556	28.77969321968
8	422	569.201517009796	27.480778416889
8	423	569.382898707034	18.972582179296
8	424	569.706563774221	18.935303353323
8	425	570.676371233705	15.005204334151
8	426	570.846314224373	2.170483191254
8	429	572.505634236794	0.626730039251
8	434	575.451285069993	1.09001459102
8	435	575.63712828359	0.3343281377
8	438	580.786835029032	2.861349504953
8	441	586.639861580124	0.757755569723
8	444	587.962781482396	1.143572485917
8	449	593.060850462213	1.538856691559
8	452	595.04849883737	2.816698688031
8	453	595.337591206599	2.19024577809
8	460	599.138723984243	2.42482720844
8	461	600.168581577909	3.192467067216
8	462	601.857823191815	2.798490817076
8	465	602.201749219665	0.081077600206
8	468	606.943635065201	1.770474820863
8	471	607.318438305478	0.152126329795
8	474	607.442891522864	0.027470941108
8	477	610.624825758896	0.650282297804
8	482	611.732832558974	0.275684658071
8	483	612.373637294178	0.727001894005
8	486	624.653794015131	0.309691596655
8	499	648.570375243564	3.12131018189
8	500	649.048752088962	3.137171027383
8	501	649.90734200757	2.619140735808
8	504	652.687560786237	0.652488445461
8	507	654.649001121363	1.728543549607
8	510	660.266332367298	0.387751567101
8	513	663.192423189403	1.475950252269
8	518	665.448887448424	0.574575665351
8	519	665.586615198484	0.245362280854
8	525	672.186189276236	1.826933273479
8	528	672.735458495677	0.141738208436
8	536	676.475252459261	1.082268093935
8	537	677.184113274375	1.748022848967
8	540	692.166884163332	0.863373067027
8	546	701.814781960262	1.356460747726
8	555	711.528685531635	0.475007229739
8	560	715.949126420688	3.463319137723
8	561	716.17690155192	3.062137206459
8	577	736.326392673688	10.347954586812
8	578	736.779297190886	10.640380048605
8	579	738.288630843014	6.806044005866
8	591	747.364095854814	4.605834230516
8	592	748.722731856644	4.861462629733
8	593	750.059349363133	6.137301516457
8	594	751.524733674572	6.565030214976
8	601	752.954297807261	1.147549943708
8	602	753.201952414161	1.050338408988
8	603	753.307545159404	0.438183168236
8	629	798.186571584622	12.29666572328
8	630	798.395376098364	11.706076065643
8	631	799.800750794376	12.367063422605
8	632	800.524358716973	10.049307946292
8	633	802.475441300996	7.769435153427
8	636	805.32120210669	1.933756335897
8	643	817.356600859322	3.901074253389
8	644	817.389754853106	1.365943345843
8	645	817.910936104931	1.00958363892
8	648	822.48703738781	0.213265080161
8	655	825.332451737565	2.732541104649
8	656	827.101881531051	2.082948932208
8	657	828.069254773733	2.927752644282
8	660	840.057509869781	1.455600534091
8	663	847.204422436864	0.090295713652
8	668	848.624213812156	0.747788751966
8	669	849.06899449394	0.604710498708
8	697	891.672995467948	33.139346560307
8	698	892.239933241739	29.370921775721
8	699	892.810727094467	26.543825883815
8	700	892.959227449642	25.099703737129
8	701	893.637343354185	25.063801570756
8	702	894.350305086105	9.883929170933
8	705	895.577301661785	0.661032344136
8	708	900.189788608471	0.088826085552
8	711	900.859269803827	0.160357844141
8	714	906.98138826348	0.272754314004
8	719	911.250213512823	0.827237487769
8	720	911.737449268412	1.182949247374
8	726	918.564002961401	5.628244762566
8	729	926.509306787282	0.627618793823
8	732	929.045408402681	2.163857877047
8	735	931.387711071722	0.579843889399
8	741	936.433876362113	0.132465763101
8	747	939.942930280968	0.264893487524
8	750	943.40485530982	0.060674468156
8	756	951.731913127309	0.510903601245
8	759	953.33861734485	0.407960101485
8	762	956.09628409242	1.207580094498
8	770	973.1440206488	12.052672930625
8	771	973.548625106383	8.469318163251
8	774	982.391282585091	0.435211923559
8	779	986.715204604221	0.055716303892
8	780	987.164058173737	0.483403289953
8	783	987.966926063667	0.408635003174
8	786	989.175766865521	0.389283328889
8	789	989.666536487959	0.128218892309
8	792	992.817432786282	0.186461140838
8	795	995.729185629319	1.077458199197
8	798	1008.092221752984	0.41488078621
8	801	1010.782976108084	0.508756497339
8	804	1013.690761792118	0.827854423548
8	807	1016.341491721226	0.33194947693
8	810	1028.959024550739	1.207714417434
8	813	1030.477946838102	0.190195046258
8	819	1045.242125184498	2.739529210251
8	822	1046.729388735057	0.259466460639
8	825	1049.938731978393	0.420187270921
8	828	1053.288242245568	1.992673440058
8	833	1059.612359522064	1.427969389852
8	836	1059.70726180506	1.465961280674
8	837	1060.109297057532	0.447265236675
8	843	1063.883934547034	2.046797224405
8	846	1069.307290458857	0.286948986165
8	855	1083.30662014678	7.863801157756
8	858	1084.730496220204	1.046938884102
8	861	1093.432250935753	0.414803936814
8	864	1111.141794983113	0.528255017952
8	870	1119.917469183281	0.472834381954
8	873	1127.330394279048	0.088860230129
8	879	1136.124856525861	0.587151567486
8	882	1141.26870440391	0.882791352227
8	887	1142.386785998194	0.454743650198
8	888	1142.718677208122	0.533802287477
8	891	1144.841879951863	0.620632023422
8	894	1149.042385590191	0.252262577847
8	911	1162.672039122426	6.285632744989
8	912	1162.804303341196	6.043641727067
8	915	1166.228545533971	7.681249255156
8	920	1170.310146578339	11.14386285149
8	930	1185.499541443104	21.546175726602
8	935	1186.261820682581	17.828870465714
8	936	1186.787572011914	16.885659762299
8	937	1189.691849216669	19.169650010771
8	938	1189.910075991822	4.336192581818
8	939	1190.052703799369	4.476686609386
8	946	1193.734842508645	3.291240617793
8	947	1193.780297161562	2.185805031659
8	948	1194.015637322048	0.816800442214
8	951	1196.794020095512	1.234703990293
8	954	1202.629230758266	2.333577809076
8	957	1205.702078898698	1.944114722736
8	960	1209.629225214028	0.56422085603
8	963	1213.425058065704	1.485644495979
8	966	1215.25260945496	0.235824768288
8	969	1219.204733942144	1.432205072728
8	972	1229.261611255703	0.415882170906
8	984	1237.531535996414	6.384708705967
8	985	1237.671726779585	6.063421062488
8	986	1237.76825057491	0.989486676187
8	987	1240.100331343369	2.893671866283
8	990	1242.650368926317	0.993177288628
8	993	1245.8330332694	1.883914033748
8	996	1256.406890436761	2.885536018307
8	1001	1264.521696050626	2.334034718778
8	1002	1264.639066522855	2.422050635754
8	1007	1265.560860720514	0.798202843822
8	1008	1265.723120229138	0.528250460544
8	1011	1272.43719650559	0.639536340746
8	1014	1276.352778593929	0.9178642684
8	1019	1279.531003917461	1.953612903609
8	1020	1279.54571002173	0.376854481607
8	1026	1292.383739675703	0.865781918865
8	1029	1296.169025862103	0.82135928432
8	1032	1305.482971800794	0.499181015894
8	1035	1305.636809049661	0.032690621183
8	1038	1329.847876539532	0.602771035353
8	1041	1337.923338368941	0.288606332016
8	1044	1340.658482661831	0.778354329156
8	1047	1352.812560911535	0.342468505139
8	1050	1355.942060007264	1.791428573846
8	1059	1378.527358804027	0.060312779653
8	1062	1383.7993903163	0.835360970819
8	1065	1384.800582772157	0.452778905515
8	1129	1472.011864142898	60.804919128016
8	1130	1472.221286026039	53.053691234436
8	1131	1472.484693493219	53.056914087198
8	1132	1473.015436942364	50.867967142092
8	1135	1476.449688489501	52.609865379394
8	1138	1477.785700403601	44.414911025479
8	1139	1479.133913285043	37.246681770565
8	1140	1482.122892748854	37.221860456065
8	1141	1482.709457476996	34.744408613254
8	1142	1482.911360786182	32.830347254027
8	1143	1483.600205553684	30.847328583141
8	1144	1484.106925759751	23.466102992902
8	1145	1484.350131215965	22.157806769525
8	1146	1485.544810267346	22.940580527469
8	1147	1486.824922101487	23.455425794349
8	1150	1488.42398023479	23.892277543525
8	1155	1491.031510625771	20.575878176922
8	1156	1492.871621117779	22.195775525766
8	1180	1523.473767702265	46.050217261691
8	1181	1524.149305918956	37.006573297297
8	1182	1525.131427106091	34.837276601345
8	1183	1527.708104219247	36.817967983174
8	1187	1532.124953230329	38.675617632185
8	1188	1532.615610933608	30.995372370608
8	1189	1532.819216495688	29.309403133426
8	1192	1533.593535584265	23.727094876544
8	1193	1533.668763157089	21.756953145972
8	1194	1533.709126774134	15.226190255004
8	1195	1535.92082675283	17.061591187281
8	1196	1537.814327328653	9.259003203822
8	1197	1538.254613910179	5.386386800804
8	1202	1539.483653997493	0.75144082176
8	1207	1540.237678151265	1.249346727439
8	1208	1541.178056189575	1.532945221252
8	1209	1541.590854294745	1.558520005755
8	1214	1545.861810562228	1.173124345314
8	1215	1546.586700705614	1.520077340919
8	1218	1556.170743553037	1.298909501873
8	1240	1582.352706504135	12.205062873155
8	1241	1583.334778558274	13.121850362469
8	1244	1584.105602839672	13.298737321614
8	1245	1584.233936406867	8.011789064785
8	1246	1584.67082129061	3.725936000314
8	1247	1586.009825318383	3.870714378287
8	1248	1587.460581656305	3.588957263254
8	1251	1588.930702436614	0.01667243961
8	1254	1594.759282218872	0.477270907475
8	1257	1595.785300875819	0.003324249009
8	1265	1622.998636348697	1.208152935768
8	1266	1625.848553283287	3.757312842337
8	1282	1652.036831495713	15.207339584596
8	1283	1652.87750255145	14.325464426505
8	1284	1654.199577488365	12.234681303088
8	1290	1662.747146327699	1.683890537589
8	1293	1664.529584182379	0.466327292014
8	1296	1666.130903071602	0.092008535617
8	1301	1668.837360236634	1.741250805085
8	1302	1669.347746571561	1.611975815049
8	1305	1673.797794583945	1.57489832464
8	1308	1676.546456547716	0.831627623443
8	1311	1683.765146350035	0.400762030994
8	1335	1715.83748954337	28.749756565001
8	1338	1717.478594889131	27.804639622775
8	1339	1717.963762509235	17.117030579083
8	1342	1718.107115080178	11.159402470404
8	1345	1719.047171408205	4.569996969227
8	1346	1719.079037160309	3.967186868518
8	1347	1719.175398984487	3.533878735303
8	1353	1722.286451955192	4.229088424122
8	1363	1735.904668677169	15.970217601609
8	1364	1737.209655410571	15.217376729258
8	1365	1738.145182627041	13.548326893161
8	1366	1738.51561301436	12.35031354121
8	1367	1740.418673829489	7.240661363216
8	1373	1744.093304721004	3.671973121654
8	1374	1745.443531716251	3.708733108625
8	1377	1746.214369076329	0.324721133919
8	1409	1799.873008464167	42.678951983724
8	1410	1800.790332518973	39.767233170628
8	1411	1800.947575957046	39.215850257646
8	1412	1801.525954373116	39.677322957803
8	1413	1802.204138309116	32.440741554279
8	1414	1802.280795098094	27.200979094375
8	1415	1802.699849971495	20.926785839176
8	1416	1802.782750077412	20.090933232826
8	1417	1805.769508644852	21.560646667588
8	1418	1806.299841020114	20.828234180999
8	1419	1806.525671001446	14.32926199155
8	1422	1808.054718794075	0.699852977824
8	1427	1816.13773691578	1.492247736444
8	1428	1816.420934690882	0.612130386453
8	1431	1821.744344539965	0.287826584731
8	1434	1829.499883072729	1.450459116752
8	1440	1842.055959973981	1.819745394068
8	1443	1861.23974713523	0.030278471418
8	1446	1864.735258069004	0.576289993428
8	1456	1874.310231530829	3.076686340695
8	1457	1877.151575405851	3.883775490363
8	1458	1877.262288095867	3.654500542667
8	1461	1881.253767260975	1.079725155852
8	1466	1893.521834304543	2.054582925398
8	1467	1893.548803099013	1.623177594125
8	1473	1903.00629530473	1.801336929227
8	1476	1907.494880510337	0.146460521322
8	1484	1919.349829659081	8.750979833059
8	1485	1921.627374772981	8.420284312719
8	1488	1928.352300936406	2.225784243478
8	1491	1930.765966328348	0.339156951817
8	1494	1932.173899726719	0.173002477456
8	1497	1933.634785175769	0.233375451707
8	1500	1942.914703139113	1.154272744251
8	1503	1944.566439994733	1.325267398618
8	1506	1947.185995597703	0.206636993095
8	1513	1950.955205125494	2.177708077269
8	1520	1956.41046773362	7.220193816281
8	1523	1956.518828373032	7.280115184934
8	1526	1958.111402267074	6.823222991965
8	1527	1958.385015780919	5.829746361529
8	1530	1959.064926767055	5.090368919484
8	1531	1959.314356538928	2.828571711125
8	1532	1961.084659992752	3.05750237806
8	1533	1961.880883315037	3.430707163644
8	1541	1971.375308013783	4.625966099537
8	1542	1972.555314261224	5.650472659384
8	1550	1986.931700193061	10.268063316556
8	1551	1987.290711927579	2.705252230665
8	1554	1995.924475518577	1.540770373172
8	1557	1996.547131423088	0.023500517444
8	1564	1998.552744131542	1.030055935322
8	1565	2001.052815135091	3.515731169708
8	1566	2001.175821774269	2.959818782374
8	1571	2009.733593389636	0.760236456115
8	1572	2010.104643793775	0.799284296286
8	1575	2012.336249673851	0.92180259473
8	1578	2016.51852085125	0.04005911407
8	1583	2020.883693750751	1.760114213416
8	1587	2025.910579096654	4.203902298381
8	1594	2045.028550440419	3.259442824534
8	1595	2045.577636836194	2.560693985652
8	1596	2047.436562897412	2.572809282306
8	1599	2048.510362528159	0.805460399223
8	1602	2057.021757302968	0.645109903907
8	1605	2059.579600710502	2.020651742972
8	1608	2062.828622599499	1.099761244986
8	1611	2063.812265760628	0.666370847803
8	1614	2067.479257744106	0.121000445041
8	1617	2071.782796924588	0.178036583611
8	1622	2073.541513435707	0.743411962011
8	1623	2073.606294926447	0.485880440977
8	1631	2077.835563155813	2.132719937932
8	1632	2081.868208443764	5.121089916486
8	1635	2084.019907187287	1.428639425074
8	1638	2086.583219624367	1.050826863968
8	1646	2098.711026404662	6.530589473677
8	1647	2098.991912325796	5.795874526652
8	1650	2106.216089258131	1.056508778927
8	1659	2108.992242044576	1.485936876651
8	1660	2109.457664462318	1.787215321447
8	1661	2109.773736336098	1.967657025572
8	1662	2109.794645375038	0.856416621747
8	1665	2111.012712277129	0.812393742662
8	1670	2115.93396161587	2.787688427788
8	1671	2116.842189491041	1.372886540722
8	1677	2143.876050559062	2.049466662908
8	1682	2146.354465882662	0.18257007124
8	1683	2146.5938261757	0.374613274758
8	1690	2151.341473134096	2.878027051477
8	1691	2151.367226945895	2.739610919786
8	1694	2154.771690639304	5.386841138044
8	1695	2157.183355634815	2.567964549662
8	1698	2158.994097386345	0.359957034976
8	1701	2168.353435701564	0.253556649402
8	1707	2171.924258308543	2.112853302959
8	1710	2176.668077105068	1.23459567325
8	1716	2178.669255680418	0.156886234191
8	1722	2184.607887943493	3.026331488732
8	1727	2190.754590900707	1.446020971221
8	1728	2192.654876673574	2.367723718907
8	1737	2208.514570676227	1.335999245825
8	1740	2211.133019599005	0.785493540227
8	1751	2230.085115482941	1.708899489924
8	1752	2233.052070719613	3.147888064736
8	1755	2238.968486657134	0.549394582112
8	1758	2247.207120587344	0.031732376389
8	1761	2247.539569567012	0.308130214512
8	1766	2255.371875504991	1.8205464245
8	1767	2258.965270617165	5.185512301223
8	1770	2261.377279332484	1.134126002587
8	1773	2272.87119632392	0.832218029127
8	1776	2275.252256796177	0.125900546684
8	1779	2279.452855137077	0.169047855188
8	1785	2286.356924644366	0.39845184081
8	1791	2294.778689856979	1.265004385039
8	1794	2301.06383228002	0.3952408403
8	1799	2306.866065933669	1.227442571935
8	1802	2307.234518237386	0.670356203086
8	1803	2308.971902896564	2.103211157126
8	1806	2309.944162015886	0.645556224638
8	1809	2313.41368714926	0.923568853651
8	1812	2317.65097038262	0.720244035446
8	1815	2319.745903335106	1.266273112238
8	1818	2324.596328298952	0.782726749108
8	1829	2337.22949055851	5.03122240209
8	1832	2340.272288466584	4.543221745841
8	1833	2340.420610849312	2.840777803919
8	1836	2342.080224968944	1.498668339362
8	1839	2345.454877396732	1.079488403741
8	1842	2350.435229553878	2.293723805679
8	1847	2354.119947129704	0.988865919297
8	1848	2355.374368798974	1.58877834561
8	1851	2355.853190806335	0.351190478241
8	1854	2358.349475340906	0.938829534479
8	1857	2362.694960721029	1.284394207494
8	1866	2372.996951378225	2.895299051735
8	1871	2384.64508744901	1.321952327836
8	1877	2396.607969695617	11.517862482373
8	1878	2397.059555333808	2.698511138168
8	1881	2397.872857949466	0.017824098892
8	1884	2404.709489769585	0.260186237252
8	1887	2406.949768731782	0.199662431304
8	1890	2409.846917408681	1.235925836381
8	1904	2428.436445185483	8.786814974743
8	1905	2429.559123732805	9.49183223461
8	1906	2432.141216550131	11.759951998789
8	1907	2432.883742468022	7.668742108825
8	1908	2432.93906154437	7.624768747589
8	1911	2436.507922207036	1.461340833002
8	1917	2445.122191822117	1.155012372106
8	1923	2454.052207810753	1.901405661897
8	1926	2457.876293062473	1.324663480351
8	1929	2458.464959169133	0.300792109476
8	1932	2467.71361952496	0.280422012745
8	1935	2473.48077462412	1.046718425765
8	1938	2480.004386494034	1.584719999628
8	1941	2482.675193153036	0.762314763865
8	1944	2487.003586690532	0.074634403804
8	1947	2492.355076258201	0.366914946275
8	1950	2497.195854152863	0.689215554968
9	332	419.824288542282	1
9	359	445.426883461239	1
9	374	481.155473799364	1
9	395	536.946986058516	1
9	405	541.720738592907	1
9	407	541.736319955185	2
9	410	545.749899725905	2
9	488	642.852204457678	1
9	494	646.904432915695	2
9	521	666.123998518003	1
9	530	673.379073049835	1
9	542	692.296201596188	1
9	548	707.174758416955	1
9	550	707.316586279335	2
9	563	718.627327699064	1
9	566	719.093978241006	1
9	571	725.978438086876	1
9	581	740.857761909457	1
9	605	759.785179545867	1
9	608	769.99705848	1
9	610	773.001749095169	2
9	612	773.957541426202	3
9	615	780.867851638882	3
9	671	853.673845421965	1
9	675	862.799389841877	2
9	684	868.098797839271	2
9	689	880.277491819915	2
9	691	882.177038103687	3
9	724	912.935758198835	1
9	737	932.202672012874	1
9	743	936.657389288969	1
9	752	946.297682443241	1
9	764	960.738265453186	1
9	817	1042.502595974247	1
9	839	1060.452690583967	1
9	848	1073.028472791389	1
9	850	1073.979749661901	2
9	866	1113.293494763991	1
9	875	1132.000155132253	1
9	896	1154.808071207918	1
9	905	1158.547296278815	1
9	922	1170.522199205898	1
9	924	1171.867477851254	2
9	926	1172.13455232041	3
9	978	1231.608305717097	1
9	1022	1288.624242739881	1
9	1052	1356.036850805122	1
9	1054	1372.606487445524	2
9	1069	1405.653119015198	1
9	1073	1415.389328740932	2
9	1082	1422.655085990457	2
9	1084	1422.976987813847	3
9	1088	1425.03253417898	4
9	1091	1430.283059070374	4
9	1106	1453.338074498799	4
9	1109	1458.853815662555	4
9	1125	1470.455632448849	1
9	1160	1493.449335598144	1
9	1162	1496.052380205525	2
9	1173	1514.884379549808	2
9	1185	1528.555324124831	1
9	1220	1564.373909976404	1
9	1222	1565.073784446035	2
9	1225	1568.88161662372	2
9	1259	1616.890074396541	1
9	1268	1626.810805176556	1
9	1271	1632.799960695581	1
9	1273	1636.823592669957	2
9	1286	1658.548708404319	1
9	1313	1686.708174305305	1
9	1319	1694.179105853179	2
9	1324	1705.252233173425	2
9	1349	1719.93445107556	1
9	1355	1724.59685573388	1
9	1369	1740.42133159935	1
9	1381	1757.194056480443	1
9	1385	1761.281828584842	2
9	1391	1761.918109262225	3
9	1436	1831.77425238343	1
9	1448	1868.713537013691	1
9	1469	1898.558444776125	1
9	1478	1910.506246022932	1
9	1535	1966.608133512492	1
9	1546	1976.663636876505	1
9	1585	2021.706676798273	1
9	1625	2073.959348802285	1
9	1642	2092.180436930985	1
9	1673	2118.166042985004	1
9	1703	2169.154750841632	1
9	1712	2177.061307273094	1
9	1718	2178.914416394662	1
9	1730	2195.814478513715	1
9	1733	2200.177172437229	1
9	1742	2214.891347264506	1
9	1744	2215.816986545285	2
9	1781	2280.78927417951	1
9	1787	2288.659915777357	1
9	1820	2325.886460952761	1
9	1827	2335.729066720743	1
9	1859	2363.241703758442	1
9	1861	2369.572912620892	2
9	1873	2385.090107213244	1
9	1898	2420.381264551342	1
9	1913	2438.055371942036	1
9	1919	2446.879911890008	1
10	405	541.720738592907	3
10	571	725.978438086876	4
10	724	912.935758198835	5
10	817	1042.502595974247	6
10	905	1158.547296278815	7
10	922	1170.522199205898	8
10	978	1231.608305717097	9
10	1069	1405.653119015198	10
10	1125	1470.455632448849	11
10	1160	1493.449335598144	12
10	1185	1528.555324124831	13
10	1349	1719.93445107556	14
10	1355	1724.59685573388	15
10	1369	1740.42133159935	16
10	1381	1757.194056480443	17
10	1546	1976.663636876505	18
10	1585	2021.706676798273	19
10	1642	2092.180436930985	20
10	1827	2335.729066720743	21
10	1873	2385.090107213244	22
10	1898	2420.381264551342	23
11	1951	2500	0.2092
12	1951	2500	0.0508

