version 2
run factors_calibration_range_test-115-20230302-19:09:22-12277
attr configname factors_calibration_range_test
attr datetime 20230302-19:09:22
attr experiment factors_calibration_range_test
attr inifile omnetpp.ini
attr iterationvars "$0=10, $1=5"
attr iterationvarsf 10,5-
attr measurement "$0=10, $1=5"
attr network Network
attr processid 12277
attr repetition 15
attr replication #15
attr resultdir results
attr runnumber 115
attr seedset 15
param *.boss.arrival_mean 20
param *.boss.service_mean 10
param *.minion.arrival_mean 5
param *.minion.service_mean 5
param **.minion.arrival_distribution 0
param **.minion.service_distribution 0
param **.boss.arrival_distribution 0
param **.boss.service_distribution 0

vector 0 Network.player minion_defeated_stat:vector ETV
attr source signal_minion_defeated
vector 1 Network.player minion_jobs_queue_number_stat:vector ETV
attr source signal_minion_jobs_queue_number
vector 2 Network.player minion_response_time_stat:vector ETV
attr source signal_minion_response_time
vector 3 Network.player minion_waiting_time_stat:vector ETV
attr source signal_minion_waiting_time
vector 4 Network.player minion_jobs_number_stat:vector ETV
attr source signal_minion_jobs_number
vector 5 Network.player boss_jobs_number_stat:vector ETV
attr source signal_boss_jobs_number
vector 6 Network.player boss_jobs_queue_number_stat:vector ETV
attr source signal_boss_jobs_queue_number
vector 7 Network.player minion_recovered_stat:vector ETV
attr source signal_minion_recovered
vector 8 Network.player boss_waiting_time_stat:vector ETV
attr source signal_boss_waiting_time
vector 9 Network.player boss_defeated_stat:vector ETV
attr source signal_boss_defeated
vector 10 Network.player boss_response_time_stat:vector ETV
attr source signal_boss_response_time
vector 11 Network.player minion_throughput:vector ETV
attr source signal_minion_throughput
vector 12 Network.player boss_throughput:vector ETV
attr source signal_boss_throughput
0	220	350.388489558623	31
0	221	352.044005223974	32
0	224	354.879802554078	33
0	225	355.020891685474	34
0	226	370.586783553182	35
0	233	376.95220951483	36
0	238	377.486423197903	37
0	239	383.707307830271	38
0	254	397.334068911402	39
0	259	406.041602101098	40
0	269	423.370880757624	41
0	276	431.086842098595	42
0	277	433.376386702688	43
0	280	435.442225749691	44
0	281	440.013976150003	45
0	282	440.900843204188	46
0	285	447.350070472186	47
0	286	453.426312759165	48
0	287	454.492200515391	49
0	288	454.904196197909	50
0	289	458.660397296502	51
0	292	465.054101590509	52
0	293	466.77672614979	53
0	294	472.276557859525	54
0	295	475.006399326686	55
0	296	475.757556480667	56
0	297	477.103093590043	57
0	298	478.097580520458	58
0	305	493.713300750613	59
0	306	493.894122952794	60
0	307	498.539028693379	61
0	308	507.890790329243	62
0	360	598.542317579527	63
0	361	604.223296561584	64
0	362	604.445579353777	65
0	363	607.369488126528	66
0	366	608.046081841914	67
0	367	609.795293074767	68
0	400	663.025207278719	69
0	416	686.305701588015	70
0	417	689.081094296258	71
0	420	693.869149496242	72
0	421	697.850208926212	73
0	422	699.695317601004	74
0	423	707.036993211784	75
0	426	713.641535118056	76
0	427	726.409557246901	77
0	433	737.701307226055	78
0	434	743.946904723429	79
0	435	745.675913712218	80
0	439	748.013020596885	81
0	440	750.717935372065	82
0	503	859.440866921933	83
0	510	862.650391078802	84
0	513	869.125052683056	85
0	516	871.21443184082	86
0	519	874.244258683441	87
0	538	910.633844294217	88
0	541	920.750850278364	89
0	546	925.89315204762	90
0	551	927.077261361176	91
0	552	927.129257175622	92
0	555	937.764295311624	93
0	556	942.009865102401	94
0	559	949.32583969333	95
0	562	950.251320932885	96
0	563	951.744498607041	97
0	612	1056.965550231699	98
0	615	1058.527249226571	99
0	618	1064.361874192864	100
0	621	1067.676792114083	101
0	624	1069.198172187	102
0	630	1074.521633785012	103
0	631	1076.499839678673	104
0	632	1077.87812578973	105
0	633	1080.211468607487	106
0	652	1100.039943420664	107
0	653	1100.556715001021	108
0	661	1115.211406580687	109
0	778	1298.341245042998	110
0	785	1309.12830753446	111
0	791	1319.125568825875	112
0	794	1322.816289228776	113
0	801	1327.4890378534	114
0	804	1344.753853749771	115
0	805	1345.282900003615	116
0	806	1346.05972734611	117
0	807	1351.880524631892	118
0	808	1352.539608186392	119
0	847	1409.562542350611	120
0	852	1418.567302209847	121
0	855	1422.819802055589	122
0	858	1436.013876941402	123
0	863	1442.533747767366	124
0	879	1471.516654536872	125
0	880	1473.702259633843	126
0	881	1476.955217941755	127
0	884	1481.13082219919	128
0	885	1482.538406692846	129
0	896	1497.411134239109	130
0	899	1498.084914187477	131
0	900	1498.681618216955	132
0	907	1507.562757071665	133
0	914	1514.686558334118	134
0	922	1521.960699280616	135
0	949	1561.549971232069	136
0	1207	1986.796546579809	137
0	1210	1990.017473983688	138
0	1211	1993.650924533062	139
0	1235	2011.708345776767	140
0	1236	2019.9481156529	141
0	1237	2020.589066090968	142
0	1240	2027.21469779507	143
0	1256	2043.118624724519	144
0	1257	2048.311123151764	145
0	1267	2055.737551875763	146
0	1268	2057.079974613766	147
0	1273	2062.480671622612	148
0	1274	2063.648876530079	149
0	1278	2075.455117003674	150
0	1279	2075.856067525877	151
0	1280	2075.943734431736	152
0	1281	2076.094081201118	153
0	1282	2076.15489931716	154
0	1285	2076.717042971838	155
0	1290	2081.387369893728	156
0	1295	2083.287654784907	157
0	1300	2085.688899230791	158
0	1305	2088.40050899986	159
0	1306	2096.590864166769	160
0	1309	2101.485052836676	161
0	1310	2103.699351974016	162
0	1311	2105.666630253613	163
0	1325	2122.157903811256	164
0	1328	2127.887029113768	165
0	1329	2133.69865527116	166
0	1416	2295.234148525432	167
0	1417	2307.196707677512	168
1	220	350.388489558623	32
1	221	352.044005223974	31
1	223	352.10048643997	31
1	224	354.879802554078	31
1	225	355.020891685474	30
1	226	370.586783553182	29
1	228	370.760019987804	29
1	230	373.555936444486	30
1	232	373.759678010315	31
1	233	376.95220951483	31
1	235	377.247993195287	31
1	237	377.345572584523	32
1	238	377.486423197903	32
1	239	383.707307830271	31
1	241	388.349869439179	31
1	243	389.428333751872	32
1	250	394.222151939486	33
1	252	394.280417831847	34
1	254	397.334068911402	34
1	256	397.861336976077	34
1	258	400.822172387659	35
1	259	406.041602101098	35
1	263	407.5705743153	35
1	265	412.847437638974	36
1	268	420.147033879065	37
1	269	423.370880757624	37
1	271	426.359153553486	37
1	273	429.299540061099	38
1	275	430.77145207279	39
1	276	431.086842098595	39
1	277	433.376386702688	38
1	279	434.228885400795	38
1	280	435.442225749691	38
1	281	440.013976150003	37
1	282	440.900843204188	36
1	284	441.446777028059	36
1	285	447.350070472186	36
1	286	453.426312759165	35
1	287	454.492200515391	34
1	288	454.904196197909	33
1	289	458.660397296502	32
1	291	463.026399868734	32
1	292	465.054101590509	32
1	293	466.77672614979	31
1	294	472.276557859525	30
1	295	475.006399326686	29
1	296	475.757556480667	28
1	297	477.103093590043	27
1	298	478.097580520458	26
1	300	480.01944816702	26
1	302	489.834463842461	27
1	304	493.660455023056	28
1	305	493.713300750613	28
1	306	493.894122952794	27
1	307	498.539028693379	26
1	308	507.890790329243	25
1	310	510.295254264958	25
1	312	513.113467919037	26
1	316	519.992138975258	27
1	320	523.456833483824	28
1	322	526.019182483814	29
1	324	533.284778733531	30
1	331	550.163022619791	31
1	333	552.123336715203	32
1	336	556.221293813166	33
1	338	557.114969393053	34
1	340	559.067823619489	35
1	342	563.884093411293	36
1	345	570.103645842638	37
1	348	575.20962988682	38
1	350	575.452224147909	39
1	354	583.154534787475	40
1	356	585.041168075926	41
1	359	598.178884238224	42
1	360	598.542317579527	42
1	361	604.223296561584	41
1	362	604.445579353777	40
1	363	607.369488126528	39
1	365	607.504399155699	39
1	366	608.046081841914	39
1	367	609.795293074767	38
1	371	616.607986551981	38
1	375	630.138370781647	39
1	379	646.597121550372	40
1	384	650.448484040975	41
1	388	654.472889287636	42
1	390	654.489522210653	43
1	392	654.638579731276	44
1	394	657.260165757935	45
1	396	658.033394135472	46
1	399	660.382666634767	47
1	400	663.025207278719	47
1	402	663.575322980033	47
1	404	664.015563842217	48
1	408	669.745792827122	49
1	410	676.237557307186	50
1	412	682.066815730998	51
1	415	685.579142785919	52
1	416	686.305701588015	52
1	417	689.081094296258	51
1	419	692.053570801172	51
1	420	693.869149496242	51
1	421	697.850208926212	50
1	422	699.695317601004	49
1	423	707.036993211784	48
1	425	709.468442514242	48
1	426	713.641535118056	48
1	427	726.409557246901	47
1	432	732.209013902113	47
1	433	737.701307226055	47
1	434	743.946904723429	46
1	435	745.675913712218	45
1	439	748.013020596885	44
1	440	750.717935372065	43
1	442	750.972514780991	43
1	446	753.46600603785	44
1	448	758.940157948176	45
1	454	762.541358331896	46
1	458	771.986490253363	47
1	462	784.672791238491	48
1	464	789.721521982061	49
1	466	792.164895762002	50
1	469	800.3995456433	51
1	471	803.360871994424	52
1	473	806.974551036564	53
1	475	809.94366777106	54
1	479	810.619162871719	55
1	481	812.146913513994	56
1	484	813.537492786948	57
1	486	826.750533624251	58
1	488	828.171570335675	59
1	490	831.80026799918	60
1	494	837.073839393114	61
1	497	842.528969208664	62
1	499	843.436193972395	63
1	501	852.363694256895	64
1	503	859.440866921933	64
1	505	860.408793670813	64
1	507	860.425910955908	65
1	509	860.937546007924	66
1	510	862.650391078802	66
1	512	865.311766750695	66
1	513	869.125052683056	66
1	515	870.247142880085	66
1	516	871.21443184082	66
1	518	873.595660074348	66
1	519	874.244258683441	66
1	523	884.520891585817	66
1	525	886.119184101328	67
1	527	891.932944221274	68
1	531	893.558045314272	69
1	533	900.774145450141	70
1	536	908.893442794284	71
1	538	910.633844294217	71
1	540	918.236361902723	71
1	541	920.750850278364	71
1	543	921.166818604629	71
1	545	924.544758105067	72
1	546	925.89315204762	72
1	548	926.514292726286	72
1	550	926.615012933472	73
1	551	927.077261361176	73
1	552	927.129257175622	72
1	554	931.460484199922	72
1	555	937.764295311624	72
1	556	942.009865102401	71
1	558	945.028684911283	71
1	559	949.32583969333	71
1	561	949.657801840961	71
1	562	950.251320932885	71
1	563	951.744498607041	70
1	565	957.114500285317	70
1	569	960.517827256041	71
1	573	970.038328189667	72
1	576	976.253589226341	73
1	580	985.354132062826	74
1	584	989.843354502961	75
1	586	994.424713379039	76
1	588	997.657156204399	77
1	590	999.526102754713	78
1	592	1002.204017336833	79
1	594	1008.986093258582	80
1	597	1016.045482988568	81
1	599	1024.450164041474	82
1	601	1024.58376933086	83
1	603	1025.424451465373	84
1	605	1027.951627717149	85
1	609	1044.775910283519	86
1	611	1048.305035954306	87
1	612	1056.965550231699	87
1	614	1057.08171983237	87
1	615	1058.527249226571	87
1	617	1063.857025737025	87
1	618	1064.361874192864	87
1	620	1065.116016413492	87
1	621	1067.676792114083	87
1	623	1068.509477362711	87
1	624	1069.198172187	87
1	626	1071.168523052823	87
1	630	1074.521633785012	87
1	631	1076.499839678673	86
1	632	1077.87812578973	85
1	633	1080.211468607487	84
1	635	1080.394765263891	84
1	637	1081.417474054727	85
1	639	1081.442075033467	86
1	641	1084.267802550208	87
1	643	1085.189539927569	88
1	645	1085.754931914329	89
1	647	1090.357710393324	90
1	649	1091.263816937943	91
1	651	1096.467771789838	92
1	652	1100.039943420664	92
1	653	1100.556715001021	91
1	655	1102.721669477971	91
1	659	1108.10656616471	92
1	661	1115.211406580687	92
1	665	1119.158127295424	92
1	669	1123.096804138085	93
1	673	1128.365416876006	94
1	675	1129.418226530462	95
1	680	1147.484357217398	96
1	682	1148.359896228589	97
1	686	1149.647395268366	98
1	688	1150.833600803432	99
1	690	1152.743534637184	100
1	692	1155.891442472839	101
1	694	1157.155187091861	102
1	696	1157.311446483656	103
1	698	1160.279596830192	104
1	700	1162.249152108443	105
1	706	1165.290750120788	106
1	708	1167.629799527838	107
1	711	1172.284141025205	108
1	719	1184.368893585697	109
1	721	1184.893037402308	110
1	727	1186.163323620173	111
1	729	1188.66036704121	112
1	731	1189.473725620022	113
1	735	1197.670295370666	114
1	737	1203.087400420179	115
1	743	1221.533123622854	116
1	749	1230.490658064168	117
1	751	1233.413520361178	118
1	753	1234.772385594297	119
1	755	1236.39927647368	120
1	757	1239.692699368303	121
1	759	1242.660522308795	122
1	761	1250.050147305146	123
1	765	1251.437641486421	124
1	768	1266.629724002091	125
1	770	1278.625537590468	126
1	772	1279.681916546168	127
1	774	1285.176367843998	128
1	778	1298.341245042998	128
1	785	1309.12830753446	127
1	789	1311.662813505157	127
1	791	1319.125568825875	127
1	793	1319.201448770826	127
1	794	1322.816289228776	127
1	796	1324.207031966092	127
1	798	1324.813138745392	128
1	800	1325.827420687035	129
1	801	1327.4890378534	129
1	803	1337.312542359182	129
1	804	1344.753853749771	129
1	805	1345.282900003615	128
1	806	1346.05972734611	127
1	807	1351.880524631892	126
1	808	1352.539608186392	125
1	810	1355.831145940959	125
1	814	1368.727960785317	126
1	818	1373.019960834067	127
1	826	1381.386942990583	128
1	828	1383.46432679071	129
1	830	1384.026608188626	130
1	832	1385.799760203246	131
1	836	1388.318954555164	132
1	841	1395.019284002828	133
1	846	1408.67242717095	134
1	847	1409.562542350611	134
1	849	1412.784593118008	134
1	851	1418.19503942459	135
1	852	1418.567302209847	135
1	854	1420.341153938854	135
1	855	1422.819802055589	135
1	857	1429.940737395875	135
1	858	1436.013876941402	135
1	860	1438.508325669406	135
1	862	1439.327612660222	136
1	863	1442.533747767366	136
1	865	1443.482085360727	136
1	867	1449.520613472892	137
1	869	1452.528012900288	138
1	871	1452.887718349104	139
1	875	1466.046534316603	140
1	878	1470.389721584042	141
1	879	1471.516654536872	141
1	880	1473.702259633843	140
1	881	1476.955217941755	139
1	883	1479.794677656541	139
1	884	1481.13082219919	139
1	885	1482.538406692846	138
1	887	1487.054120614241	138
1	889	1487.62919788866	139
1	891	1490.515991234395	140
1	893	1490.735471523035	141
1	895	1491.430134500405	142
1	896	1497.411134239109	142
1	898	1498.082415283555	142
1	899	1498.084914187477	142
1	900	1498.681618216955	141
1	902	1498.71775413076	141
1	904	1503.274156943778	142
1	906	1505.340554099959	143
1	907	1507.562757071665	143
1	909	1508.369728313802	143
1	911	1509.254121315521	144
1	913	1510.52148681226	145
1	914	1514.686558334118	145
1	916	1516.166767972106	145
1	920	1519.037171496292	146
1	922	1521.960699280616	146
1	926	1523.939151468374	146
1	928	1533.044892252085	147
1	933	1544.660305467208	148
1	935	1545.386428093617	149
1	940	1553.702106087818	150
1	945	1557.757356777519	151
1	947	1560.778312994031	152
1	949	1561.549971232069	152
1	951	1561.837518655059	152
1	953	1567.450751943713	153
1	957	1585.233723829818	154
1	959	1591.745185493878	155
1	963	1601.309004750005	156
1	965	1602.338574570068	157
1	967	1603.606852264303	158
1	969	1603.883306136076	159
1	971	1609.730843649195	160
1	975	1620.289064541907	161
1	977	1621.610842077804	162
1	981	1625.356233057576	163
1	983	1625.423261025944	164
1	988	1631.800479471565	165
1	990	1632.480306459395	166
1	995	1638.541526989927	167
1	997	1638.647006368497	168
1	999	1643.234881434735	169
1	1002	1651.934585460807	170
1	1005	1661.382532323604	171
1	1007	1664.052129700356	172
1	1011	1669.044939025694	173
1	1013	1670.190160555727	174
1	1017	1671.690087264358	175
1	1019	1672.406074631101	176
1	1021	1675.016990390207	177
1	1025	1677.893780993774	178
1	1029	1686.618800111553	179
1	1031	1687.764330171142	180
1	1033	1688.123734430723	181
1	1038	1693.902409870162	182
1	1041	1699.398459776312	183
1	1045	1704.455415900561	184
1	1047	1705.147451499426	185
1	1049	1706.322217466029	186
1	1051	1712.16731811566	187
1	1059	1718.249891113244	188
1	1063	1721.886769461509	189
1	1067	1725.888727431615	190
1	1071	1748.647872705615	191
1	1073	1750.839479681179	192
1	1075	1753.426092917108	193
1	1077	1754.494877899116	194
1	1084	1763.411805597641	195
1	1086	1766.651947818906	196
1	1088	1769.192050237172	197
1	1090	1773.395750906177	198
1	1092	1774.188161109913	199
1	1094	1777.33027211534	200
1	1098	1783.939780267708	201
1	1103	1792.30087682214	202
1	1105	1796.486616701754	203
1	1107	1799.839769343866	204
1	1109	1805.226176524752	205
1	1111	1805.795839170358	206
1	1113	1806.642306327556	207
1	1115	1808.113257827011	208
1	1119	1817.046127762818	209
1	1121	1820.104706062898	210
1	1123	1822.024126646355	211
1	1126	1842.017485290655	212
1	1128	1844.842234746124	213
1	1132	1856.69197332078	214
1	1136	1859.866509544992	215
1	1144	1885.990439936603	216
1	1148	1890.743574611549	217
1	1150	1893.469390623473	218
1	1155	1904.455047293183	219
1	1157	1906.540681648785	220
1	1161	1919.404827708429	221
1	1163	1921.469959428215	222
1	1165	1925.630007568518	223
1	1167	1927.869340102419	224
1	1169	1929.509578758657	225
1	1172	1935.145038982498	226
1	1174	1935.55870605702	227
1	1176	1943.357365903692	228
1	1178	1944.823952326926	229
1	1180	1948.794344126406	230
1	1182	1955.039725371347	231
1	1188	1962.734595956571	232
1	1190	1962.912676406839	233
1	1192	1966.10124507052	234
1	1194	1966.239319152415	235
1	1200	1984.127289445435	236
1	1202	1985.032970409183	237
1	1204	1985.9096761708	238
1	1206	1986.455961606744	239
1	1207	1986.796546579809	239
1	1209	1987.590385469153	239
1	1210	1990.017473983688	239
1	1211	1993.650924533062	238
1	1213	1996.715035046665	238
1	1215	1998.035561000208	239
1	1217	1998.138608531403	240
1	1221	2000.031509751602	241
1	1223	2001.129777601136	242
1	1225	2002.590451863891	243
1	1227	2004.064026172113	244
1	1229	2008.193965410146	245
1	1232	2009.704306186942	246
1	1234	2010.820848489253	247
1	1235	2011.708345776767	247
1	1236	2019.9481156529	246
1	1237	2020.589066090968	245
1	1239	2022.040097350062	245
1	1240	2027.21469779507	245
1	1242	2028.66852236302	245
1	1244	2029.804812116343	246
1	1246	2031.06453852312	247
1	1250	2031.540608997211	248
1	1252	2036.829491280475	249
1	1254	2039.48547345398	250
1	1256	2043.118624724519	250
1	1257	2048.311123151764	249
1	1261	2049.626230817715	249
1	1263	2054.387693595166	250
1	1266	2055.003839802682	251
1	1267	2055.737551875763	251
1	1268	2057.079974613766	250
1	1270	2058.830541681627	250
1	1272	2060.025692797981	251
1	1273	2062.480671622612	251
1	1274	2063.648876530079	250
1	1278	2075.455117003674	249
1	1279	2075.856067525877	248
1	1280	2075.943734431736	247
1	1281	2076.094081201118	246
1	1282	2076.15489931716	245
1	1284	2076.266669979862	245
1	1285	2076.717042971838	245
1	1287	2079.916073953211	245
1	1289	2081.299583138602	246
1	1290	2081.387369893728	246
1	1292	2081.471500585209	246
1	1294	2082.735471898093	247
1	1295	2083.287654784907	247
1	1297	2085.123439687578	247
1	1299	2085.132919422742	248
1	1300	2085.688899230791	248
1	1302	2086.17254728669	248
1	1304	2088.174008388992	249
1	1305	2088.40050899986	249
1	1306	2096.590864166769	248
1	1308	2097.318126678011	248
1	1309	2101.485052836676	248
1	1310	2103.699351974016	247
1	1311	2105.666630253613	246
1	1313	2109.277267361983	246
1	1315	2110.470369539539	247
1	1319	2114.583128937194	248
1	1321	2118.964176350933	249
1	1323	2119.646548764132	250
1	1325	2122.157903811256	250
1	1327	2124.320468763103	250
1	1328	2127.887029113768	250
1	1329	2133.69865527116	249
1	1333	2141.63853163844	249
1	1335	2145.492583337373	250
1	1337	2152.311184727929	251
1	1339	2155.365027993928	252
1	1341	2156.081132765709	253
1	1343	2156.788175220711	254
1	1347	2161.521079165261	255
1	1349	2165.553421327885	256
1	1351	2168.915797054875	257
1	1358	2186.207192478608	258
1	1362	2189.383885644193	259
1	1364	2190.87406377518	260
1	1366	2202.525065950106	261
1	1368	2202.820874086859	262
1	1370	2203.189142805132	263
1	1373	2206.465941709543	264
1	1375	2207.457451190127	265
1	1377	2214.615568764358	266
1	1379	2214.645212521272	267
1	1381	2215.358784781677	268
1	1392	2250.256756514057	269
1	1394	2251.400415625153	270
1	1398	2264.075289359646	271
1	1400	2264.413659591005	272
1	1402	2264.611243006942	273
1	1404	2268.328886187555	274
1	1406	2272.244390500356	275
1	1408	2278.864454742242	276
1	1410	2279.584010536818	277
1	1413	2284.435319553527	278
1	1415	2293.465734273686	279
1	1416	2295.234148525432	279
1	1417	2307.196707677512	278
1	1419	2308.136887435655	278
1	1421	2309.311325836544	279
1	1425	2317.813756427994	280
1	1429	2323.126533836025	281
1	1431	2323.47261368094	282
1	1433	2325.209481817139	283
1	1435	2326.7607567924	284
1	1439	2331.453057165151	285
1	1442	2340.282245872284	286
1	1446	2358.613950581093	287
1	1448	2365.567164460692	288
1	1453	2371.08096217497	289
1	1455	2371.285340921587	290
1	1457	2371.630099345307	291
1	1459	2374.977285337728	292
1	1465	2376.192059999553	293
1	1467	2377.004649625572	294
1	1471	2380.012718252098	295
1	1473	2380.863030777758	296
1	1475	2383.444846822055	297
1	1479	2386.141780085943	298
1	1481	2386.829418639448	299
1	1485	2388.732003327893	300
1	1487	2392.495211352321	301
1	1489	2393.848934837239	302
1	1491	2394.433842190639	303
1	1493	2397.568973368455	304
1	1495	2397.888866545417	305
1	1497	2409.742803459793	306
1	1499	2409.88364784609	307
1	1501	2410.212686494703	308
1	1505	2413.867405059722	309
1	1507	2415.717674215035	310
1	1509	2418.654691615477	311
1	1511	2420.799567632606	312
1	1513	2421.451599110843	313
1	1517	2426.664337116221	314
1	1522	2457.263822682544	315
2	220	350.388489558623	160.49334623721
2	221	352.044005223974	161.92870066596
2	224	354.879802554078	164.34120830136
2	225	355.020891685474	161.4189521363
2	226	370.586783553182	174.97211002052
2	233	376.95220951483	176.28366983851
2	238	377.486423197903	162.00060925015
2	239	383.707307830271	163.17292246349
2	254	397.334068911402	172.88960663242
2	259	406.041602101098	178.92782383054
2	269	423.370880757624	191.14499934366
2	276	431.086842098595	195.92851950721
2	277	433.376386702688	192.01281981409
2	280	435.442225749691	190.51592465788
2	281	440.013976150003	193.3539229096
2	282	440.900843204188	193.94345428694
2	285	447.350070472186	178.30762148541
2	286	453.426312759165	169.39225844612
2	287	454.492200515391	166.49672131518
2	288	454.904196197909	165.55290966873
2	289	458.660397296502	153.2909119104
2	292	465.054101590509	153.03773965832
2	293	466.77672614979	152.55785206811
2	294	472.276557859525	155.79024245903
2	295	475.006399326686	157.63464045216
2	296	475.757556480667	155.63018930982
2	297	477.103093590043	156.7551497105
2	298	478.097580520458	139.41853396095
2	305	493.713300750613	151.2455266903
2	306	493.894122952794	150.27694668264
2	307	498.539028693379	153.77948860237
2	308	507.890790329243	155.79030388927
2	360	598.542317579527	224.78263956921
2	361	604.223296561584	226.9753033663
2	362	604.445579353777	227.10000676925
2	363	607.369488126528	219.01961868735
2	366	608.046081841914	218.61774809004
2	367	609.795293074767	219.60320780515
2	400	663.025207278719	262.20303489106
2	416	686.305701588015	278.73512727271
2	417	689.081094296258	276.23365665728
2	420	693.869149496242	273.72211561718
2	421	697.850208926212	271.49105537273
2	422	699.695317601004	270.3957775399
2	423	707.036993211784	276.26554113899
2	426	713.641535118056	279.41264971726
2	427	726.409557246901	284.96278021884
2	433	737.701307226055	257.68185905903
2	434	743.946904723429	254.11244088097
2	435	745.675913712218	252.01545868916
2	439	748.013020596885	234.89955267785
2	440	750.717935372065	232.20996682368
2	503	859.440866921933	335.98403343811
2	510	862.650391078802	336.63120859499
2	513	869.125052683056	335.84027394952
2	516	871.21443184082	321.05140922103
2	519	874.244258683441	322.12092196824
2	538	910.633844294217	353.51887490116
2	541	920.750850278364	361.68302665888
2	546	925.89315204762	362.00905863633
2	551	927.077261361176	356.97361551854
2	552	927.129257175622	351.9196272888
2	555	937.764295311624	362.31207116372
2	556	942.009865102401	366.34370282662
2	559	949.32583969333	366.17130490585
2	562	950.251320932885	365.21015285696
2	563	951.744498607041	353.56561436882
2	612	1056.965550231699	444.12345005419
2	615	1058.527249226571	441.91926267459
2	618	1064.361874192864	434.22350341122
2	621	1067.676792114083	421.07967056371
2	624	1069.198172187	422.12697967542
2	630	1074.521633785012	422.89284143436
2	631	1076.499839678673	422.02695039104
2	632	1077.87812578973	423.38860357908
2	633	1080.211468607487	425.57288887621
2	652	1100.039943420664	442.77977766273
2	653	1100.556715001021	442.52332086555
2	661	1115.211406580687	451.63608360065
2	778	1298.341245042998	633.07549649107
2	785	1309.12830753446	627.06149180346
2	791	1319.125568825875	627.0719980247
2	794	1322.816289228776	613.34784671453
2	801	1327.4890378534	596.76587337618
2	804	1344.753853749771	612.54483984766
2	805	1345.282900003615	598.5626966202
2	806	1346.05972734611	595.08721256512
2	807	1351.880524631892	600.07612254467
2	808	1352.539608186392	599.07360214854
2	847	1409.562542350611	647.02118401871
2	852	1418.567302209847	646.58081195648
2	855	1422.819802055589	638.1470108171
2	858	1436.013876941402	646.29235495934
2	863	1442.533747767366	650.36885200536
2	879	1471.516654536872	668.15578254245
2	880	1473.702259633843	666.72770859728
2	881	1476.955217941755	667.01155017069
2	884	1481.13082219919	670.51165932747
2	885	1482.538406692846	670.39149317885
2	896	1497.411134239109	683.87364145216
2	899	1498.084914187477	671.33438056323
2	900	1498.681618216955	670.51004788128
2	907	1507.562757071665	675.76248907248
2	914	1514.686558334118	677.612718941
2	922	1521.960699280616	678.52450530822
2	949	1561.549971232069	700.61242522414
2	1207	1986.796546579809	1116.5494036997
2	1210	1990.017473983688	1116.4218139093
2	1211	1993.650924533062	1113.5498868093
2	1235	2011.708345776767	1125.5891616754
2	1236	2019.9481156529	1128.0151714316
2	1237	2020.589066090968	1127.0310207767
2	1240	2027.21469779507	1126.4405523449
2	1256	2043.118624724519	1124.8822628218
2	1257	2048.311123151764	1127.1443045471
2	1267	2055.737551875763	1129.2232591495
2	1268	2057.079974613766	1130.4649616803
2	1273	2062.480671622612	1131.0201874227
2	1274	2063.648876530079	1118.6201916188
2	1278	2075.455117003674	1118.3406167184
2	1279	2075.856067525877	1116.8693849379
2	1280	2075.943734431736	1115.4259071757
2	1281	2076.094081201118	1106.0557530115
2	1282	2076.15489931716	1099.9013100908
2	1285	2076.717042971838	1091.362910909
2	1290	2081.387369893728	1091.5440153908
2	1295	2083.287654784907	1088.8629414059
2	1300	2085.688899230791	1088.0317430264
2	1305	2088.40050899986	1088.8744062451
2	1306	2096.590864166769	1094.3868468299
2	1309	2101.485052836676	1092.4989595781
2	1310	2103.699351974016	1087.6538689854
2	1311	2105.666630253613	1081.2164662121
2	1325	2122.157903811256	1096.7334523459
2	1328	2127.887029113768	1099.9354013966
2	1329	2133.69865527116	1088.9227449876
2	1416	2295.234148525432	1238.1524286931
2	1417	2307.196707677512	1243.3396819405
3	220	350.388489558623	160.27318500061
3	221	352.044005223974	161.50541097126
3	224	354.879802554078	161.27786300491
3	225	355.020891685474	159.40621815281
3	226	370.586783553182	169.91824387686
3	233	376.95220951483	161.46639556707
3	238	377.486423197903	156.95203783112
3	239	383.707307830271	159.68210790262
3	253	397.130619458553	172.68615717957
3	254	397.334068911402	170.22029064085
3	259	406.041602101098	174.57322331226
3	266	413.446024416266	181.2201430023
3	269	423.370880757624	188.21255816624
3	276	431.086842098595	189.72327521
3	277	433.376386702688	188.45008561087
3	280	435.442225749691	188.78217250929
3	281	440.013976150003	193.05658723275
3	282	440.900843204188	171.85839421741
3	285	447.350070472186	163.31601615914
3	286	453.426312759165	165.43083355895
3	287	454.492200515391	165.14091398621
3	288	454.904196197909	149.53471081181
3	289	458.660397296502	146.64403536431
3	292	465.054101590509	150.83522750883
3	293	466.77672614979	150.2904107493
3	294	472.276557859525	154.904798985
3	295	475.006399326686	154.87903215584
3	296	475.757556480667	155.40961260112
3	297	477.103093590043	138.42404703054
3	298	478.097580520458	135.62980646015
3	305	493.713300750613	150.09612448046
3	306	493.894122952794	149.13458286178
3	307	498.539028693379	146.43854225341
3	308	507.890790329243	137.13077034144
3	346	575.066835706247	201.51089926176
3	357	595.481424177085	221.72174616677
3	360	598.542317579527	221.29432438424
3	361	604.223296561584	226.87772397706
3	362	604.445579353777	216.0957099146
3	363	607.369488126528	217.94115437466
3	366	608.046081841914	217.85399657229
3	367	609.795293074767	215.57314113528
3	377	646.046836105451	251.7664182736
3	382	650.284490323762	252.42315334769
3	397	660.055477275504	259.23330488785
3	400	663.025207278719	255.58567505681
3	413	685.561136209021	277.99056189372
3	416	686.305701588015	273.45826394904
3	417	689.081094296258	268.93406041719
3	420	693.869149496242	267.50999594276
3	421	697.850208926212	268.55066886511
3	422	699.695317601004	268.92386552821
3	423	707.036993211784	272.80810781099
3	426	713.641535118056	272.19475809
3	427	726.409557246901	263.38315737817
3	430	730.776025436502	250.75657726948
3	433	737.701307226055	247.86684338359
3	434	743.946904723429	250.28644970037
3	435	745.675913712218	235.38065944726
3	438	746.940404463577	233.82693654454
3	439	748.013020596885	229.5050520485
3	440	750.717935372065	230.72579639681
3	502	857.931399634493	334.47456615067
3	503	859.440866921933	333.42168443812
3	510	862.650391078802	329.36561234527
3	513	869.125052683056	318.96203006326
3	516	871.21443184082	319.09109512562
3	519	874.244258683441	318.02296487028
3	537	909.695525874504	352.58055648145
3	538	910.633844294217	351.56602067473
3	541	920.750850278364	356.86675686707
3	546	925.89315204762	355.78950620498
3	551	927.077261361176	351.86763147436
3	552	927.129257175622	351.67703302771
3	555	937.764295311624	362.09813303584
3	556	942.009865102401	358.85533031493
3	559	949.32583969333	364.2846716174
3	562	950.251320932885	352.07243669466
3	563	951.744498607041	344.24009945134
3	607	1037.650034984079	424.80793480657
3	612	1056.965550231699	440.35756367972
3	615	1058.527249226571	428.38887844492
3	618	1064.361874192864	417.76475264249
3	621	1067.676792114083	420.60559960251
3	624	1069.198172187	418.74968814602
3	629	1073.847565352052	422.2187730014
3	630	1074.521633785012	420.04874449738
3	631	1076.499839678673	422.01031746802
3	632	1077.87812578973	423.23954605845
3	633	1080.211468607487	422.95130284955
3	652	1100.039943420664	442.00654928519
3	653	1100.556715001021	440.17404836625
3	660	1115.012867112774	451.43754413274
3	661	1115.211406580687	451.19584273847
3	777	1297.824253498138	632.55850494621
3	778	1298.341245042998	628.59545221588
3	781	1302.42855546205	626.19099815486
3	784	1308.383094644484	626.31627891349
3	785	1309.12830753446	623.54916474854
3	790	1317.043349750514	624.98977894934
3	791	1319.125568825875	609.65712631163
3	794	1322.816289228776	592.09312475155
3	801	1327.4890378534	595.28002395129
3	804	1344.753853749771	598.03365036635
3	805	1345.282900003615	594.31038522262
3	806	1346.05972734611	594.25532525888
3	807	1351.880524631892	598.41451859404
3	808	1352.539608186392	593.59945023822
3	844	1404.063455424315	641.52209709242
3	847	1409.562542350611	637.57605209725
3	852	1418.567302209847	633.89451097136
3	855	1422.819802055589	633.09828007353
3	858	1436.013876941402	643.8489811794
3	863	1442.533747767366	642.13420212407
3	876	1468.577029428623	665.2161574342
3	879	1471.516654536872	664.54210350031
3	880	1473.702259633843	663.75859186278
3	881	1476.955217941755	666.33605507004
3	884	1481.13082219919	668.9839086852
3	885	1482.538406692846	669.0009139059
3	896	1497.411134239109	670.66060061486
3	899	1498.084914187477	669.9133438518
3	900	1498.681618216955	666.88135021777
3	907	1507.562757071665	670.48891767855
3	914	1514.686558334118	672.15758912545
3	921	1520.738605198079	677.30241122568
3	922	1521.960699280616	669.59700502372
3	929	1537.978153747246	677.56936007643
3	941	1554.507908125516	694.08199716961
3	948	1561.317381760871	700.37983575295
3	949	1561.549971232069	696.23820448137
3	1198	1982.070470550673	1111.8233276706
3	1207	1986.796546579809	1113.2008865055
3	1210	1990.017473983688	1109.9164362599
3	1211	1993.650924533062	1109.1300329472
3	1230	2008.859832117201	1122.7406480159
3	1235	2011.708345776767	1119.7754015555
3	1236	2019.9481156529	1126.3900703386
3	1237	2020.589066090968	1119.8149206408
3	1240	2027.21469779507	1118.3212550008
3	1255	2041.790383486345	1123.5540215836
3	1256	2043.118624724519	1121.9518061199
3	1257	2048.311123151764	1123.7663650467
3	1264	2054.598615718021	1128.0843229917
3	1267	2055.737551875763	1129.1225389423
3	1268	2057.079974613766	1125.6194904138
3	1273	2062.480671622612	1117.4519867113
3	1274	2063.648876530079	1113.9910746891
3	1277	2075.364224592356	1118.249724307
3	1278	2075.455117003674	1116.4684344157
3	1279	2075.856067525877	1115.3382402698
3	1280	2075.943734431736	1105.9054062421
3	1281	2076.094081201118	1099.8404919748
3	1282	2076.15489931716	1090.8007672543
3	1285	2076.717042971838	1086.8736884689
3	1290	2081.387369893728	1086.9626565147
3	1295	2083.287654784907	1085.6304985805
3	1300	2085.688899230791	1086.1627964761
3	1305	2088.40050899986	1086.196491663
3	1306	2096.590864166769	1087.6047709082
3	1309	2101.485052836676	1085.4395698481
3	1310	2103.699351974016	1079.2491879325
3	1311	2105.666630253613	1081.0828609228
3	1324	2120.586831592418	1095.162380127
3	1325	2122.157903811256	1094.2062760941
3	1328	2127.887029113768	1083.1111188302
3	1329	2133.69865527116	1085.3936193169
3	1411	2280.526506992827	1223.4447871605
3	1416	2295.234148525432	1231.3771227884
3	1417	2307.196707677512	1242.080691264
4	223	352.10048643997	32
4	228	370.760019987804	30
4	230	373.555936444486	31
4	232	373.759678010315	32
4	235	377.247993195287	32
4	237	377.345572584523	33
4	241	388.349869439179	32
4	243	389.428333751872	33
4	250	394.222151939486	34
4	252	394.280417831847	35
4	256	397.861336976077	35
4	258	400.822172387659	36
4	263	407.5705743153	36
4	265	412.847437638974	37
4	268	420.147033879065	38
4	271	426.359153553486	38
4	273	429.299540061099	39
4	275	430.77145207279	40
4	279	434.228885400795	39
4	284	441.446777028059	37
4	291	463.026399868734	33
4	300	480.01944816702	27
4	302	489.834463842461	28
4	304	493.660455023056	29
4	310	510.295254264958	26
4	312	513.113467919037	27
4	316	519.992138975258	28
4	320	523.456833483824	29
4	322	526.019182483814	30
4	324	533.284778733531	31
4	331	550.163022619791	32
4	333	552.123336715203	33
4	336	556.221293813166	34
4	338	557.114969393053	35
4	340	559.067823619489	36
4	342	563.884093411293	37
4	345	570.103645842638	38
4	348	575.20962988682	39
4	350	575.452224147909	40
4	354	583.154534787475	41
4	356	585.041168075926	42
4	359	598.178884238224	43
4	365	607.504399155699	40
4	371	616.607986551981	39
4	375	630.138370781647	40
4	379	646.597121550372	41
4	384	650.448484040975	42
4	388	654.472889287636	43
4	390	654.489522210653	44
4	392	654.638579731276	45
4	394	657.260165757935	46
4	396	658.033394135472	47
4	399	660.382666634767	48
4	402	663.575322980033	48
4	404	664.015563842217	49
4	408	669.745792827122	50
4	410	676.237557307186	51
4	412	682.066815730998	52
4	415	685.579142785919	53
4	419	692.053570801172	52
4	425	709.468442514242	49
4	432	732.209013902113	48
4	442	750.972514780991	44
4	446	753.46600603785	45
4	448	758.940157948176	46
4	454	762.541358331896	47
4	458	771.986490253363	48
4	462	784.672791238491	49
4	464	789.721521982061	50
4	466	792.164895762002	51
4	469	800.3995456433	52
4	471	803.360871994424	53
4	473	806.974551036564	54
4	475	809.94366777106	55
4	479	810.619162871719	56
4	481	812.146913513994	57
4	484	813.537492786948	58
4	486	826.750533624251	59
4	488	828.171570335675	60
4	490	831.80026799918	61
4	494	837.073839393114	62
4	497	842.528969208664	63
4	499	843.436193972395	64
4	501	852.363694256895	65
4	505	860.408793670813	65
4	507	860.425910955908	66
4	509	860.937546007924	67
4	512	865.311766750695	67
4	515	870.247142880085	67
4	518	873.595660074348	67
4	523	884.520891585817	67
4	525	886.119184101328	68
4	527	891.932944221274	69
4	531	893.558045314272	70
4	533	900.774145450141	71
4	536	908.893442794284	72
4	540	918.236361902723	72
4	543	921.166818604629	72
4	545	924.544758105067	73
4	548	926.514292726286	73
4	550	926.615012933472	74
4	554	931.460484199922	73
4	558	945.028684911283	72
4	561	949.657801840961	72
4	565	957.114500285317	71
4	569	960.517827256041	72
4	573	970.038328189667	73
4	576	976.253589226341	74
4	580	985.354132062826	75
4	584	989.843354502961	76
4	586	994.424713379039	77
4	588	997.657156204399	78
4	590	999.526102754713	79
4	592	1002.204017336833	80
4	594	1008.986093258582	81
4	597	1016.045482988568	82
4	599	1024.450164041474	83
4	601	1024.58376933086	84
4	603	1025.424451465373	85
4	605	1027.951627717149	86
4	609	1044.775910283519	87
4	611	1048.305035954306	88
4	614	1057.08171983237	88
4	617	1063.857025737025	88
4	620	1065.116016413492	88
4	623	1068.509477362711	88
4	626	1071.168523052823	88
4	635	1080.394765263891	85
4	637	1081.417474054727	86
4	639	1081.442075033467	87
4	641	1084.267802550208	88
4	643	1085.189539927569	89
4	645	1085.754931914329	90
4	647	1090.357710393324	91
4	649	1091.263816937943	92
4	651	1096.467771789838	93
4	655	1102.721669477971	92
4	659	1108.10656616471	93
4	665	1119.158127295424	93
4	669	1123.096804138085	94
4	673	1128.365416876006	95
4	675	1129.418226530462	96
4	680	1147.484357217398	97
4	682	1148.359896228589	98
4	686	1149.647395268366	99
4	688	1150.833600803432	100
4	690	1152.743534637184	101
4	692	1155.891442472839	102
4	694	1157.155187091861	103
4	696	1157.311446483656	104
4	698	1160.279596830192	105
4	700	1162.249152108443	106
4	706	1165.290750120788	107
4	708	1167.629799527838	108
4	711	1172.284141025205	109
4	719	1184.368893585697	110
4	721	1184.893037402308	111
4	727	1186.163323620173	112
4	729	1188.66036704121	113
4	731	1189.473725620022	114
4	735	1197.670295370666	115
4	737	1203.087400420179	116
4	743	1221.533123622854	117
4	749	1230.490658064168	118
4	751	1233.413520361178	119
4	753	1234.772385594297	120
4	755	1236.39927647368	121
4	757	1239.692699368303	122
4	759	1242.660522308795	123
4	761	1250.050147305146	124
4	765	1251.437641486421	125
4	768	1266.629724002091	126
4	770	1278.625537590468	127
4	772	1279.681916546168	128
4	774	1285.176367843998	129
4	789	1311.662813505157	128
4	793	1319.201448770826	128
4	796	1324.207031966092	128
4	798	1324.813138745392	129
4	800	1325.827420687035	130
4	803	1337.312542359182	130
4	810	1355.831145940959	126
4	814	1368.727960785317	127
4	818	1373.019960834067	128
4	826	1381.386942990583	129
4	828	1383.46432679071	130
4	830	1384.026608188626	131
4	832	1385.799760203246	132
4	836	1388.318954555164	133
4	841	1395.019284002828	134
4	846	1408.67242717095	135
4	849	1412.784593118008	135
4	851	1418.19503942459	136
4	854	1420.341153938854	136
4	857	1429.940737395875	136
4	860	1438.508325669406	136
4	862	1439.327612660222	137
4	865	1443.482085360727	137
4	867	1449.520613472892	138
4	869	1452.528012900288	139
4	871	1452.887718349104	140
4	875	1466.046534316603	141
4	878	1470.389721584042	142
4	883	1479.794677656541	140
4	887	1487.054120614241	139
4	889	1487.62919788866	140
4	891	1490.515991234395	141
4	893	1490.735471523035	142
4	895	1491.430134500405	143
4	898	1498.082415283555	143
4	902	1498.71775413076	142
4	904	1503.274156943778	143
4	906	1505.340554099959	144
4	909	1508.369728313802	144
4	911	1509.254121315521	145
4	913	1510.52148681226	146
4	916	1516.166767972106	146
4	920	1519.037171496292	147
4	926	1523.939151468374	147
4	928	1533.044892252085	148
4	933	1544.660305467208	149
4	935	1545.386428093617	150
4	940	1553.702106087818	151
4	945	1557.757356777519	152
4	947	1560.778312994031	153
4	951	1561.837518655059	153
4	953	1567.450751943713	154
4	957	1585.233723829818	155
4	959	1591.745185493878	156
4	963	1601.309004750005	157
4	965	1602.338574570068	158
4	967	1603.606852264303	159
4	969	1603.883306136076	160
4	971	1609.730843649195	161
4	975	1620.289064541907	162
4	977	1621.610842077804	163
4	981	1625.356233057576	164
4	983	1625.423261025944	165
4	988	1631.800479471565	166
4	990	1632.480306459395	167
4	995	1638.541526989927	168
4	997	1638.647006368497	169
4	999	1643.234881434735	170
4	1002	1651.934585460807	171
4	1005	1661.382532323604	172
4	1007	1664.052129700356	173
4	1011	1669.044939025694	174
4	1013	1670.190160555727	175
4	1017	1671.690087264358	176
4	1019	1672.406074631101	177
4	1021	1675.016990390207	178
4	1025	1677.893780993774	179
4	1029	1686.618800111553	180
4	1031	1687.764330171142	181
4	1033	1688.123734430723	182
4	1038	1693.902409870162	183
4	1041	1699.398459776312	184
4	1045	1704.455415900561	185
4	1047	1705.147451499426	186
4	1049	1706.322217466029	187
4	1051	1712.16731811566	188
4	1059	1718.249891113244	189
4	1063	1721.886769461509	190
4	1067	1725.888727431615	191
4	1071	1748.647872705615	192
4	1073	1750.839479681179	193
4	1075	1753.426092917108	194
4	1077	1754.494877899116	195
4	1084	1763.411805597641	196
4	1086	1766.651947818906	197
4	1088	1769.192050237172	198
4	1090	1773.395750906177	199
4	1092	1774.188161109913	200
4	1094	1777.33027211534	201
4	1098	1783.939780267708	202
4	1103	1792.30087682214	203
4	1105	1796.486616701754	204
4	1107	1799.839769343866	205
4	1109	1805.226176524752	206
4	1111	1805.795839170358	207
4	1113	1806.642306327556	208
4	1115	1808.113257827011	209
4	1119	1817.046127762818	210
4	1121	1820.104706062898	211
4	1123	1822.024126646355	212
4	1126	1842.017485290655	213
4	1128	1844.842234746124	214
4	1132	1856.69197332078	215
4	1136	1859.866509544992	216
4	1144	1885.990439936603	217
4	1148	1890.743574611549	218
4	1150	1893.469390623473	219
4	1155	1904.455047293183	220
4	1157	1906.540681648785	221
4	1161	1919.404827708429	222
4	1163	1921.469959428215	223
4	1165	1925.630007568518	224
4	1167	1927.869340102419	225
4	1169	1929.509578758657	226
4	1172	1935.145038982498	227
4	1174	1935.55870605702	228
4	1176	1943.357365903692	229
4	1178	1944.823952326926	230
4	1180	1948.794344126406	231
4	1182	1955.039725371347	232
4	1188	1962.734595956571	233
4	1190	1962.912676406839	234
4	1192	1966.10124507052	235
4	1194	1966.239319152415	236
4	1200	1984.127289445435	237
4	1202	1985.032970409183	238
4	1204	1985.9096761708	239
4	1206	1986.455961606744	240
4	1209	1987.590385469153	240
4	1213	1996.715035046665	239
4	1215	1998.035561000208	240
4	1217	1998.138608531403	241
4	1221	2000.031509751602	242
4	1223	2001.129777601136	243
4	1225	2002.590451863891	244
4	1227	2004.064026172113	245
4	1229	2008.193965410146	246
4	1232	2009.704306186942	247
4	1234	2010.820848489253	248
4	1239	2022.040097350062	246
4	1242	2028.66852236302	246
4	1244	2029.804812116343	247
4	1246	2031.06453852312	248
4	1250	2031.540608997211	249
4	1252	2036.829491280475	250
4	1254	2039.48547345398	251
4	1261	2049.626230817715	250
4	1263	2054.387693595166	251
4	1266	2055.003839802682	252
4	1270	2058.830541681627	251
4	1272	2060.025692797981	252
4	1284	2076.266669979862	246
4	1287	2079.916073953211	246
4	1289	2081.299583138602	247
4	1292	2081.471500585209	247
4	1294	2082.735471898093	248
4	1297	2085.123439687578	248
4	1299	2085.132919422742	249
4	1302	2086.17254728669	249
4	1304	2088.174008388992	250
4	1308	2097.318126678011	249
4	1313	2109.277267361983	247
4	1315	2110.470369539539	248
4	1319	2114.583128937194	249
4	1321	2118.964176350933	250
4	1323	2119.646548764132	251
4	1327	2124.320468763103	251
4	1333	2141.63853163844	250
4	1335	2145.492583337373	251
4	1337	2152.311184727929	252
4	1339	2155.365027993928	253
4	1341	2156.081132765709	254
4	1343	2156.788175220711	255
4	1347	2161.521079165261	256
4	1349	2165.553421327885	257
4	1351	2168.915797054875	258
4	1358	2186.207192478608	259
4	1362	2189.383885644193	260
4	1364	2190.87406377518	261
4	1366	2202.525065950106	262
4	1368	2202.820874086859	263
4	1370	2203.189142805132	264
4	1373	2206.465941709543	265
4	1375	2207.457451190127	266
4	1377	2214.615568764358	267
4	1379	2214.645212521272	268
4	1381	2215.358784781677	269
4	1392	2250.256756514057	270
4	1394	2251.400415625153	271
4	1398	2264.075289359646	272
4	1400	2264.413659591005	273
4	1402	2264.611243006942	274
4	1404	2268.328886187555	275
4	1406	2272.244390500356	276
4	1408	2278.864454742242	277
4	1410	2279.584010536818	278
4	1413	2284.435319553527	279
4	1415	2293.465734273686	280
4	1419	2308.136887435655	279
4	1421	2309.311325836544	280
4	1425	2317.813756427994	281
4	1429	2323.126533836025	282
4	1431	2323.47261368094	283
4	1433	2325.209481817139	284
4	1435	2326.7607567924	285
4	1439	2331.453057165151	286
4	1442	2340.282245872284	287
4	1446	2358.613950581093	288
4	1448	2365.567164460692	289
4	1453	2371.08096217497	290
4	1455	2371.285340921587	291
4	1457	2371.630099345307	292
4	1459	2374.977285337728	293
4	1465	2376.192059999553	294
4	1467	2377.004649625572	295
4	1471	2380.012718252098	296
4	1473	2380.863030777758	297
4	1475	2383.444846822055	298
4	1479	2386.141780085943	299
4	1481	2386.829418639448	300
4	1485	2388.732003327893	301
4	1487	2392.495211352321	302
4	1489	2393.848934837239	303
4	1491	2394.433842190639	304
4	1493	2397.568973368455	305
4	1495	2397.888866545417	306
4	1497	2409.742803459793	307
4	1499	2409.88364784609	308
4	1501	2410.212686494703	309
4	1505	2413.867405059722	310
4	1507	2415.717674215035	311
4	1509	2418.654691615477	312
4	1511	2420.799567632606	313
4	1513	2421.451599110843	314
4	1517	2426.664337116221	315
4	1522	2457.263822682544	316
5	245	390.19208526962	1
5	247	390.552455599804	2
5	261	407.439532221909	1
5	314	518.507968548388	1
5	318	522.173620324886	2
5	327	548.748816733117	2
5	329	550.067618500052	3
5	352	575.666162275779	1
5	369	612.842100177508	1
5	373	623.411592726827	2
5	381	647.071192511576	1
5	386	651.628792350656	1
5	406	665.26574855193	1
5	429	730.723164477223	1
5	437	746.720203383419	1
5	444	751.804402087226	1
5	450	761.533052013322	2
5	452	762.512293667094	3
5	456	766.941994342124	4
5	477	809.99896328964	2
5	492	836.11272726403	2
5	521	880.101037723776	1
5	529	893.1674807599	2
5	567	958.986682587974	1
5	571	961.113788177775	2
5	578	980.006287846102	2
5	582	986.58770618071	3
5	628	1071.697528192129	1
5	657	1107.464074333445	1
5	663	1117.78384952829	1
5	667	1121.017381211308	2
5	671	1124.43115273652	3
5	677	1130.82600363503	4
5	684	1148.533918641737	4
5	702	1164.363948844049	5
5	713	1174.071106898272	3
5	715	1175.776090639092	4
5	717	1182.736178667829	5
5	723	1185.782939051587	6
5	725	1186.137599269998	7
5	741	1214.244314790628	4
5	747	1226.823743164412	3
5	763	1250.476709292462	4
5	780	1298.650389291879	1
5	783	1308.125086076041	1
5	787	1310.28837300475	1
5	812	1359.796549003241	1
5	816	1370.990339914893	2
5	821	1378.159707347523	2
5	824	1380.964876480297	2
5	834	1386.732170890961	3
5	838	1389.108069391996	4
5	873	1465.193283170876	1
5	918	1518.048533812449	1
5	924	1522.115300919114	1
5	931	1541.428895554315	1
5	937	1550.738110740724	2
5	943	1557.057458542175	1
5	955	1568.331551592928	1
5	961	1594.882472076587	2
5	973	1619.894738349259	3
5	979	1624.084042264992	4
5	985	1626.210616034251	5
5	992	1632.846757884736	5
5	1009	1664.490478429722	3
5	1015	1671.38165525371	4
5	1023	1675.267107061551	5
5	1036	1689.847971375368	3
5	1043	1702.746913519538	3
5	1053	1712.497602514756	4
5	1056	1714.363548584924	4
5	1061	1719.6409964056	4
5	1065	1722.58306476235	5
5	1079	1755.40584379679	4
5	1082	1762.461127702236	4
5	1101	1787.059466435055	2
5	1117	1809.486314153089	3
5	1130	1847.391152781413	3
5	1134	1857.225048866429	4
5	1138	1866.271830798015	5
5	1141	1878.578067492393	5
5	1146	1886.757159903634	5
5	1153	1903.265596083928	5
5	1184	1956.425399870298	3
5	1196	1969.834502793289	2
5	1219	1999.57917616298	1
5	1248	2031.530575653383	1
5	1259	2049.403337861292	1
5	1276	2069.148904070772	1
5	1317	2112.867149498668	1
5	1331	2134.440791909142	1
5	1345	2157.212802221385	2
5	1354	2171.380613717592	2
5	1356	2171.740503012916	3
5	1360	2187.341514577323	4
5	1383	2219.535531233618	4
5	1385	2223.8424989331	5
5	1390	2245.658919910221	3
5	1423	2315.1814443388	1
5	1427	2322.283976249027	2
5	1437	2331.248097080117	3
5	1444	2346.228359067299	3
5	1451	2370.716186367381	3
5	1461	2375.068077861533	4
5	1463	2375.806323096909	5
5	1469	2379.965256529779	6
5	1477	2385.250852286311	7
5	1503	2413.808996696861	6
5	1515	2423.704403934987	7
5	1520	2439.323409864084	7
6	245	390.19208526962	0
6	247	390.552455599804	1
6	248	391.118198328937	1
6	253	397.130619458553	0
6	261	407.439532221909	0
6	266	413.446024416266	0
6	314	518.507968548388	0
6	318	522.173620324886	1
6	325	533.352974131096	1
6	327	548.748816733117	1
6	329	550.067618500052	2
6	334	556.004878995599	2
6	343	567.465524005817	1
6	346	575.066835706247	0
6	352	575.666162275779	0
6	357	595.481424177085	0
6	369	612.842100177508	0
6	373	623.411592726827	1
6	376	639.998311572451	1
6	377	646.046836105451	0
6	381	647.071192511576	0
6	382	650.284490323762	0
6	386	651.628792350656	0
6	397	660.055477275504	0
6	406	665.26574855193	0
6	413	685.561136209021	0
6	429	730.723164477223	0
6	430	730.776025436502	0
6	437	746.720203383419	0
6	438	746.940404463577	0
6	444	751.804402087226	0
6	450	761.533052013322	1
6	452	762.512293667094	2
6	456	766.941994342124	3
6	459	772.560827201072	3
6	460	784.671976288148	2
6	467	793.296617113777	1
6	477	809.99896328964	1
6	482	812.646270259556	1
6	492	836.11272726403	1
6	495	841.692229350027	1
6	502	857.931399634493	0
6	521	880.101037723776	0
6	529	893.1674807599	1
6	534	902.337563845851	1
6	537	909.695525874504	0
6	567	958.986682587974	0
6	571	961.113788177775	1
6	574	970.439936192264	1
6	578	980.006287846102	1
6	582	986.58770618071	2
6	595	1015.331913896704	2
6	606	1037.436616024956	1
6	607	1037.650034984079	0
6	628	1071.697528192129	0
6	629	1073.847565352052	0
6	657	1107.464074333445	0
6	660	1115.012867112774	0
6	663	1117.78384952829	0
6	667	1121.017381211308	1
6	671	1124.43115273652	2
6	677	1130.82600363503	3
6	678	1134.007028412366	3
6	684	1148.533918641737	3
6	702	1164.363948844049	4
6	703	1164.637823128674	4
6	704	1164.874711489807	3
6	709	1168.853377268973	2
6	713	1174.071106898272	2
6	715	1175.776090639092	3
6	717	1182.736178667829	4
6	723	1185.782939051587	5
6	725	1186.137599269998	6
6	732	1194.165823685857	6
6	733	1196.749850912367	5
6	738	1207.809373696937	4
6	739	1208.913777435145	3
6	741	1214.244314790628	3
6	744	1222.46750363704	3
6	745	1224.641579071014	2
6	747	1226.823743164412	2
6	763	1250.476709292462	3
6	766	1258.422488487881	3
6	775	1292.326539302756	2
6	776	1297.431912653494	1
6	777	1297.824253498138	0
6	780	1298.650389291879	0
6	781	1302.42855546205	0
6	783	1308.125086076041	0
6	784	1308.383094644484	0
6	787	1310.28837300475	0
6	790	1317.043349750514	0
6	812	1359.796549003241	0
6	816	1370.990339914893	1
6	819	1375.620106597013	1
6	821	1378.159707347523	1
6	822	1379.124691241884	1
6	824	1380.964876480297	1
6	834	1386.732170890961	2
6	838	1389.108069391996	3
6	839	1390.858736395983	3
6	842	1398.655310358344	2
6	843	1400.59489939115	1
6	844	1404.063455424315	0
6	873	1465.193283170876	0
6	876	1468.577029428623	0
6	918	1518.048533812449	0
6	921	1520.738605198079	0
6	924	1522.115300919114	0
6	929	1537.978153747246	0
6	931	1541.428895554315	0
6	937	1550.738110740724	1
6	938	1553.455149462903	1
6	941	1554.507908125516	0
6	943	1557.057458542175	0
6	948	1561.317381760871	0
6	955	1568.331551592928	0
6	961	1594.882472076587	1
6	973	1619.894738349259	2
6	979	1624.084042264992	3
6	985	1626.210616034251	4
6	986	1626.767224349667	4
6	992	1632.846757884736	4
6	993	1632.908070423757	4
6	1000	1650.948394501144	3
6	1003	1660.17170630485	2
6	1009	1664.490478429722	2
6	1015	1671.38165525371	3
6	1023	1675.267107061551	4
6	1026	1682.971964709084	4
6	1027	1684.139934375323	3
6	1034	1689.346502670944	2
6	1036	1689.847971375368	2
6	1039	1694.482504982523	2
6	1043	1702.746913519538	2
6	1053	1712.497602514756	3
6	1054	1714.071267073509	3
6	1056	1714.363548584924	3
6	1057	1717.107582813619	3
6	1061	1719.6409964056	3
6	1065	1722.58306476235	4
6	1068	1731.884189348514	4
6	1069	1741.01259237592	3
6	1079	1755.40584379679	3
6	1080	1756.666006729659	3
6	1082	1762.461127702236	3
6	1095	1780.762271698698	3
6	1096	1783.604637338706	2
6	1099	1785.602324299285	1
6	1101	1787.059466435055	1
6	1117	1809.486314153089	2
6	1124	1830.957686884121	2
6	1130	1847.391152781413	2
6	1134	1857.225048866429	3
6	1138	1866.271830798015	4
6	1139	1873.973423811954	4
6	1141	1878.578067492393	4
6	1142	1885.791412971681	4
6	1146	1886.757159903634	4
6	1151	1897.415383923316	4
6	1153	1903.265596083928	4
6	1158	1908.687067283518	4
6	1159	1916.85405240421	3
6	1170	1931.118447100715	2
6	1184	1956.425399870298	2
6	1185	1959.561583856588	2
6	1186	1959.912900506041	1
6	1196	1969.834502793289	1
6	1197	1971.026100931683	1
6	1198	1982.070470550673	0
6	1219	1999.57917616298	0
6	1230	2008.859832117201	0
6	1248	2031.530575653383	0
6	1255	2041.790383486345	0
6	1259	2049.403337861292	0
6	1264	2054.598615718021	0
6	1276	2069.148904070772	0
6	1277	2075.364224592356	0
6	1317	2112.867149498668	0
6	1324	2120.586831592418	0
6	1331	2134.440791909142	0
6	1345	2157.212802221385	1
6	1352	2171.273772009366	1
6	1354	2171.380613717592	1
6	1356	2171.740503012916	2
6	1360	2187.341514577323	3
6	1371	2205.622955035872	3
6	1383	2219.535531233618	3
6	1385	2223.8424989331	4
6	1386	2233.707644079314	4
6	1387	2234.270495307538	3
6	1388	2237.299189827106	2
6	1390	2245.658919910221	2
6	1395	2261.653382343978	2
6	1396	2261.747934119114	1
6	1411	2280.526506992827	0
6	1423	2315.1814443388	0
6	1427	2322.283976249027	1
6	1437	2331.248097080117	2
6	1440	2336.903654194086	2
6	1444	2346.228359067299	2
6	1449	2367.479903357686	2
6	1451	2370.716186367381	2
6	1461	2375.068077861533	3
6	1463	2375.806323096909	4
6	1469	2379.965256529779	5
6	1477	2385.250852286311	6
6	1482	2387.160294403977	6
6	1483	2387.186125984128	5
6	1503	2413.808996696861	5
6	1515	2423.704403934987	6
6	1518	2435.307205014108	6
6	1520	2439.323409864084	6
6	1523	2460.295181510609	6
6	1524	2471.164921879027	5
6	1525	2488.523100251252	4
6	1526	2499.946033898474	3
7	245	390.19208526962	13
7	261	407.439532221909	14
7	314	518.507968548388	15
7	352	575.666162275779	16
7	369	612.842100177508	17
7	381	647.071192511576	18
7	386	651.628792350656	19
7	406	665.26574855193	20
7	429	730.723164477223	21
7	437	746.720203383419	22
7	444	751.804402087226	23
7	521	880.101037723776	24
7	567	958.986682587974	25
7	628	1071.697528192129	26
7	657	1107.464074333445	27
7	663	1117.78384952829	28
7	780	1298.650389291879	29
7	783	1308.125086076041	30
7	787	1310.28837300475	31
7	812	1359.796549003241	32
7	873	1465.193283170876	33
7	918	1518.048533812449	34
7	924	1522.115300919114	35
7	931	1541.428895554315	36
7	943	1557.057458542175	37
7	955	1568.331551592928	38
7	1219	1999.57917616298	39
7	1248	2031.530575653383	40
7	1259	2049.403337861292	41
7	1276	2069.148904070772	42
7	1317	2112.867149498668	43
7	1331	2134.440791909142	44
7	1423	2315.1814443388	45
8	245	390.19208526962	0
8	248	391.118198328937	0.565742729133
8	261	407.439532221909	0
8	314	518.507968548388	0
8	325	533.352974131096	11.17935380621
8	334	556.004878995599	7.256062262482
8	343	567.465524005817	17.397905505765
8	352	575.666162275779	0
8	369	612.842100177508	0
8	376	639.998311572451	16.586718845624
8	381	647.071192511576	0
8	386	651.628792350656	0
8	406	665.26574855193	0
8	429	730.723164477223	0
8	437	746.720203383419	0
8	444	751.804402087226	0
8	459	772.560827201072	11.02777518775
8	460	784.671976288148	22.159682621054
8	467	793.296617113777	26.354622771653
8	482	812.646270259556	2.647306969916
8	495	841.692229350027	5.579502085997
8	521	880.101037723776	0
8	534	902.337563845851	9.170083085951
8	567	958.986682587974	0
8	574	970.439936192264	9.326148014489
8	595	1015.331913896704	35.325626050602
8	606	1037.436616024956	50.848909844246
8	628	1071.697528192129	0
8	657	1107.464074333445	0
8	663	1117.78384952829	0
8	678	1134.007028412366	12.989647201058
8	703	1164.637823128674	40.206670392154
8	704	1164.874711489807	34.048707854777
8	709	1168.853377268973	20.319458627236
8	732	1194.165823685857	29.801874841808
8	733	1196.749850912367	22.678744014095
8	738	1207.809373696937	32.033283057845
8	739	1208.913777435145	26.177598767316
8	744	1222.46750363704	36.684564585453
8	745	1224.641579071014	38.503979801016
8	766	1258.422488487881	44.178173697253
8	775	1292.326539302756	65.502796138344
8	776	1297.431912653494	46.955203361032
8	780	1298.650389291879	0
8	783	1308.125086076041	0
8	787	1310.28837300475	0
8	812	1359.796549003241	0
8	819	1375.620106597013	4.62976668212
8	822	1379.124691241884	0.964983894361
8	839	1390.858736395983	9.893859915686
8	842	1398.655310358344	11.923139467383
8	843	1400.59489939115	11.486829999154
8	873	1465.193283170876	0
8	918	1518.048533812449	0
8	924	1522.115300919114	0
8	931	1541.428895554315	0
8	938	1553.455149462903	2.717038722179
8	943	1557.057458542175	0
8	955	1568.331551592928	0
8	986	1626.767224349667	31.88475227308
8	993	1632.908070423757	13.013332074498
8	1000	1650.948394501144	26.864352236152
8	1003	1660.17170630485	33.961090270599
8	1026	1682.971964709084	50.125206824348
8	1027	1684.139934375323	19.649455945601
8	1034	1689.346502670944	17.964847417234
8	1039	1694.482504982523	19.215397920972
8	1054	1714.071267073509	24.223295698141
8	1057	1717.107582813619	14.360669294081
8	1068	1731.884189348514	19.386586833758
8	1069	1741.01259237592	26.649043790996
8	1080	1756.666006729659	37.025010324059
8	1095	1780.762271698698	58.179206936348
8	1096	1783.604637338706	28.198793541916
8	1099	1785.602324299285	23.141196597049
8	1124	1830.957686884121	43.898220449066
8	1139	1873.973423811954	64.487109658865
8	1142	1885.791412971681	38.400260190268
8	1151	1897.415383923316	40.190335056887
8	1158	1908.687067283518	42.415236485503
8	1159	1916.85405240421	38.275984911817
8	1170	1931.118447100715	44.361287197081
8	1185	1959.561583856588	56.29598777266
8	1186	1959.912900506041	3.487500635743
8	1197	1971.026100931683	1.191598138394
8	1219	1999.57917616298	0
8	1248	2031.530575653383	0
8	1259	2049.403337861292	0
8	1276	2069.148904070772	0
8	1317	2112.867149498668	0
8	1331	2134.440791909142	0
8	1352	2171.273772009366	14.060969787981
8	1371	2205.622955035872	34.24234131828
8	1386	2233.707644079314	61.967141066398
8	1387	2234.270495307538	46.928980730215
8	1388	2237.299189827106	17.763658593488
8	1395	2261.653382343978	37.810883410878
8	1396	2261.747934119114	16.089014208893
8	1423	2315.1814443388	0
8	1440	2336.903654194086	14.619677945059
8	1449	2367.479903357686	36.231806277569
8	1482	2387.160294403977	40.931935336678
8	1483	2387.186125984128	16.469939616747
8	1518	2435.307205014108	60.239127152575
8	1523	2460.295181510609	84.4888584137
8	1524	2471.164921879027	91.199665349248
8	1525	2488.523100251252	103.27224796494
8	1526	2499.946033898474	86.137037201613
9	248	391.118198328937	22
9	253	397.130619458553	23
9	266	413.446024416266	24
9	325	533.352974131096	25
9	334	556.004878995599	26
9	343	567.465524005817	27
9	346	575.066835706247	28
9	357	595.481424177085	29
9	376	639.998311572451	30
9	377	646.046836105451	31
9	382	650.284490323762	32
9	397	660.055477275504	33
9	413	685.561136209021	34
9	430	730.776025436502	35
9	438	746.940404463577	36
9	459	772.560827201072	37
9	460	784.671976288148	38
9	467	793.296617113777	39
9	482	812.646270259556	40
9	495	841.692229350027	41
9	502	857.931399634493	42
9	534	902.337563845851	43
9	537	909.695525874504	44
9	574	970.439936192264	45
9	595	1015.331913896704	46
9	606	1037.436616024956	47
9	607	1037.650034984079	48
9	629	1073.847565352052	49
9	660	1115.012867112774	50
9	678	1134.007028412366	51
9	703	1164.637823128674	52
9	704	1164.874711489807	53
9	709	1168.853377268973	54
9	732	1194.165823685857	55
9	733	1196.749850912367	56
9	738	1207.809373696937	57
9	739	1208.913777435145	58
9	744	1222.46750363704	59
9	745	1224.641579071014	60
9	766	1258.422488487881	61
9	775	1292.326539302756	62
9	776	1297.431912653494	63
9	777	1297.824253498138	64
9	781	1302.42855546205	65
9	784	1308.383094644484	66
9	790	1317.043349750514	67
9	819	1375.620106597013	68
9	822	1379.124691241884	69
9	839	1390.858736395983	70
9	842	1398.655310358344	71
9	843	1400.59489939115	72
9	844	1404.063455424315	73
9	876	1468.577029428623	74
9	921	1520.738605198079	75
9	929	1537.978153747246	76
9	938	1553.455149462903	77
9	941	1554.507908125516	78
9	948	1561.317381760871	79
9	986	1626.767224349667	80
9	993	1632.908070423757	81
9	1000	1650.948394501144	82
9	1003	1660.17170630485	83
9	1026	1682.971964709084	84
9	1027	1684.139934375323	85
9	1034	1689.346502670944	86
9	1039	1694.482504982523	87
9	1054	1714.071267073509	88
9	1057	1717.107582813619	89
9	1068	1731.884189348514	90
9	1069	1741.01259237592	91
9	1080	1756.666006729659	92
9	1095	1780.762271698698	93
9	1096	1783.604637338706	94
9	1099	1785.602324299285	95
9	1124	1830.957686884121	96
9	1139	1873.973423811954	97
9	1142	1885.791412971681	98
9	1151	1897.415383923316	99
9	1158	1908.687067283518	100
9	1159	1916.85405240421	101
9	1170	1931.118447100715	102
9	1185	1959.561583856588	103
9	1186	1959.912900506041	104
9	1197	1971.026100931683	105
9	1198	1982.070470550673	106
9	1230	2008.859832117201	107
9	1255	2041.790383486345	108
9	1264	2054.598615718021	109
9	1277	2075.364224592356	110
9	1324	2120.586831592418	111
9	1352	2171.273772009366	112
9	1371	2205.622955035872	113
9	1386	2233.707644079314	114
9	1387	2234.270495307538	115
9	1388	2237.299189827106	116
9	1395	2261.653382343978	117
9	1396	2261.747934119114	118
9	1411	2280.526506992827	119
9	1440	2336.903654194086	120
9	1449	2367.479903357686	121
9	1482	2387.160294403977	122
9	1483	2387.186125984128	123
9	1518	2435.307205014108	124
9	1523	2460.295181510609	125
9	1524	2471.164921879027	126
9	1525	2488.523100251252	127
9	1526	2499.946033898474	128
10	248	391.118198328937	0.926113059317
10	253	397.130619458553	6.578163858749
10	266	413.446024416266	6.006492194357
10	325	533.352974131096	14.845005582708
10	334	556.004878995599	33.831258670713
10	343	567.465524005817	18.7167072727
10	346	575.066835706247	24.999217206195
10	357	595.481424177085	19.815261901306
10	376	639.998311572451	27.156211394943
10	377	646.046836105451	22.635243378624
10	382	650.284490323762	3.213297812186
10	397	660.055477275504	8.426684924848
10	413	685.561136209021	20.295387657091
10	430	730.776025436502	0.052860959279
10	438	746.940404463577	0.220201080158
10	459	772.560827201072	20.756425113846
10	460	784.671976288148	23.138924274826
10	467	793.296617113777	30.784323446683
10	482	812.646270259556	45.704275917432
10	495	841.692229350027	31.693266060387
10	502	857.931399634493	21.818672370463
10	534	902.337563845851	22.236526122075
10	537	909.695525874504	16.528045114604
10	574	970.439936192264	11.45325360429
10	595	1015.331913896704	54.218125718929
10	606	1037.436616024956	57.430328178854
10	607	1037.650034984079	51.062328803369
10	629	1073.847565352052	2.150037159923
10	660	1115.012867112774	7.548792779329
10	678	1134.007028412366	16.223178884076
10	703	1164.637823128674	43.620441917366
10	704	1164.874711489807	40.443558753287
10	709	1168.853377268973	38.027373633943
10	732	1194.165823685857	45.63190504412
10	733	1196.749850912367	32.385902068318
10	738	1207.809373696937	33.738266798665
10	739	1208.913777435145	33.137686796053
10	744	1222.46750363704	39.731324969211
10	745	1224.641579071014	38.858640019427
10	766	1258.422488487881	72.284889217883
10	775	1292.326539302756	78.082224512128
10	776	1297.431912653494	70.608169489082
10	777	1297.824253498138	47.347544205676
10	781	1302.42855546205	3.778166170171
10	784	1308.383094644484	0.258008568443
10	790	1317.043349750514	6.754976745764
10	819	1375.620106597013	15.823557593772
10	822	1379.124691241884	8.134351326991
10	839	1390.858736395983	12.69902904846
10	842	1398.655310358344	17.690433878047
10	843	1400.59489939115	13.862728500189
10	844	1404.063455424315	14.955386032319
10	876	1468.577029428623	3.383746257747
10	921	1520.738605198079	2.69007138563
10	929	1537.978153747246	15.862852828132
10	938	1553.455149462903	12.026253908588
10	941	1554.507908125516	3.769797384792
10	948	1561.317381760871	4.259923218696
10	986	1626.767224349667	58.435672756739
10	993	1632.908070423757	38.02559834717
10	1000	1650.948394501144	31.053656151885
10	1003	1660.17170630485	36.087664039858
10	1026	1682.971964709084	56.761348674833
10	1027	1684.139934375323	51.293176490587
10	1034	1689.346502670944	24.856024241222
10	1039	1694.482504982523	23.100849728813
10	1054	1714.071267073509	38.804160011958
10	1057	1717.107582813619	27.259611438251
10	1068	1731.884189348514	29.137275828976
10	1069	1741.01259237592	28.514989861164
10	1080	1756.666006729659	42.302458144735
10	1095	1780.762271698698	61.121275293098
10	1096	1783.604637338706	61.021572576356
10	1099	1785.602324299285	30.196480502495
10	1124	1830.957686884121	68.496559181885
10	1139	1873.973423811954	86.913957376899
10	1142	1885.791412971681	76.305098818592
10	1151	1897.415383923316	50.024231141903
10	1158	1908.687067283518	51.462018417089
10	1159	1916.85405240421	50.582221606195
10	1170	1931.118447100715	52.540379608322
10	1185	1959.561583856588	72.804423952954
10	1186	1959.912900506041	56.647304422113
10	1197	1971.026100931683	14.600701061385
10	1198	1982.070470550673	12.235967757384
10	1230	2008.859832117201	9.280655954221
10	1255	2041.790383486345	10.259807832962
10	1264	2054.598615718021	5.195277856729
10	1277	2075.364224592356	6.215320521584
10	1324	2120.586831592418	7.71968209375
10	1352	2171.273772009366	36.832980100224
10	1371	2205.622955035872	48.410152814487
10	1386	2233.707644079314	62.327030361722
10	1387	2234.270495307538	62.529992294622
10	1388	2237.299189827106	49.957675249783
10	1395	2261.653382343978	42.11785111036
10	1396	2261.747934119114	37.905435186014
10	1411	2280.526506992827	34.867587082606
10	1440	2336.903654194086	21.722209855286
10	1449	2367.479903357686	45.195927108659
10	1482	2387.160294403977	55.91219732386
10	1483	2387.186125984128	40.957766916829
10	1518	2435.307205014108	64.591018646727
10	1523	2460.295181510609	85.227103649076
10	1524	2471.164921879027	95.358598782118
10	1525	2488.523100251252	108.55784372147
10	1526	2499.946033898474	114.69518161216
11	1527	2500	0.0672
12	1527	2500	0.0512

