version 2
run factors_calibration_range_test-159-20230302-19:09:26-12504
attr configname factors_calibration_range_test
attr datetime 20230302-19:09:26
attr experiment factors_calibration_range_test
attr inifile omnetpp.ini
attr iterationvars "$0=15, $1=3"
attr iterationvarsf 15,3-
attr measurement "$0=15, $1=3"
attr network Network
attr processid 12504
attr repetition 19
attr replication #19
attr resultdir results
attr runnumber 159
attr seedset 19
param *.boss.arrival_mean 20
param *.boss.service_mean 15
param *.minion.arrival_mean 5
param *.minion.service_mean 3
param **.minion.arrival_distribution 0
param **.minion.service_distribution 0
param **.boss.arrival_distribution 0
param **.boss.service_distribution 0

scalar Network.player boss_throughput:mean 0.044
attr source signal_boss_throughput
scalar Network.player boss_throughput:last 0.044
attr source signal_boss_throughput
scalar Network.player boss_defeated_stat:count 99
attr source signal_boss_defeated
scalar Network.player boss_defeated_stat:mean 61
attr source signal_boss_defeated
scalar Network.player boss_waiting_time_stat:mean 18.191897996264
attr source signal_boss_waiting_time
scalar Network.player boss_response_time_stat:mean 34.145538416244
attr source signal_boss_response_time
scalar Network.player minion_throughput:mean 0.0904
attr source signal_minion_throughput
scalar Network.player minion_throughput:last 0.0904
attr source signal_minion_throughput
scalar Network.player minion_recovered_stat:count 26
attr source signal_minion_recovered
scalar Network.player minion_recovered_stat:mean 21.5
attr source signal_minion_recovered
scalar Network.player minion_defeated_stat:count 167
attr source signal_minion_defeated
scalar Network.player minion_defeated_stat:mean 143
attr source signal_minion_defeated
scalar Network.player minion_waiting_time_stat:mean 472.80839979524
attr source signal_minion_waiting_time
scalar Network.player minion_response_time_stat:mean 464.10944123772
attr source signal_minion_response_time

