file 69389 1677780565                                           
version 2
run factors_calibration_range_test-144-20230302-19:09:25-12426
attr configname factors_calibration_range_test
attr datetime 20230302-19:09:25
attr experiment factors_calibration_range_test
attr inifile omnetpp.ini
attr iterationvars "$0=15, $1=3"
attr iterationvarsf 15,3-
attr measurement "$0=15, $1=3"
attr network Network
attr processid 12426
attr repetition 4
attr replication #4
attr resultdir results
attr runnumber 144
attr seedset 4
param *.boss.arrival_mean 20
param *.boss.service_mean 15
param *.minion.arrival_mean 5
param *.minion.service_mean 3
param **.minion.arrival_distribution 0
param **.minion.service_distribution 0
param **.boss.arrival_distribution 0
param **.boss.service_distribution 0

vector 0 Network.player minion_jobs_number_stat:vector ETV
attr source signal_minion_jobs_number
vector 1 Network.player minion_jobs_queue_number_stat:vector ETV
attr source signal_minion_jobs_queue_number
vector 2 Network.player boss_jobs_number_stat:vector ETV
attr source signal_boss_jobs_number
vector 3 Network.player boss_jobs_queue_number_stat:vector ETV
attr source signal_boss_jobs_queue_number
vector 4 Network.player boss_defeated_stat:vector ETV
attr source signal_boss_defeated
vector 5 Network.player boss_response_time_stat:vector ETV
attr source signal_boss_response_time
vector 6 Network.player boss_waiting_time_stat:vector ETV
attr source signal_boss_waiting_time
vector 7 Network.player minion_waiting_time_stat:vector ETV
attr source signal_minion_waiting_time
vector 8 Network.player minion_recovered_stat:vector ETV
attr source signal_minion_recovered
vector 9 Network.player minion_defeated_stat:vector ETV
attr source signal_minion_defeated
vector 10 Network.player minion_response_time_stat:vector ETV
attr source signal_minion_response_time
vector 11 Network.player minion_throughput:vector ETV
attr source signal_minion_throughput
vector 12 Network.player boss_throughput:vector ETV
attr source signal_boss_throughput
0	1968 12032 303 1644 350.639056474814 2491.884321730436 434 5 274 56513 9339167
1	14000 16571 303 1644 350.639056474814 2491.884321730436 598 4 273 74763 11633715
2	30571 2757 307 1646 356.5813254123 2497.177872175454 106 1 8 288 1160
3	33328 5381 307 1646 356.5813254123 2497.177872175454 207 0 7 349 1325
4	38709 2741 318 1640 364.386268949822 2489.976276114341 101 15 115 6565 512575
5	41450 3996 318 1640 364.386268949822 2489.976276114341 101 0.155966555393 136.2253806472 3940.3579993666 283745.98082408
6	45446 3491 318 1640 364.386268949822 2489.976276114341 101 0 113.7059967845 2426.1895572633 162891.55027939
7	48937 8067 396 1377 557.421163690083 2074.732257090002 202 218.46100837343 779.06422976264 104640.22336429 60404941.128345
8	57004 1025 398 1379 560.04194327393 2075.646756539144 38 11 48 1121 37639
9	58029 4595 402 1372 573.169155212343 2066.258865735051 164 84 247 27142 4859566
10	62624 6725 402 1372 573.169155212343 2066.258865735051 164 230.2350579534 791.60332140819 87132.331926358 51152571.440134
11	69349 20 1647 1647 2500 2500 1 0.0988 0.0988 0.0988 0.00976144
12	69369 19 1647 1647 2500 2500 1 0.046 0.046 0.046 0.002116

