file 77348 1677780565                                           
version 2
run factors_calibration_range_test-146-20230302-19:09:25-12436
attr configname factors_calibration_range_test
attr datetime 20230302-19:09:25
attr experiment factors_calibration_range_test
attr inifile omnetpp.ini
attr iterationvars "$0=15, $1=3"
attr iterationvarsf 15,3-
attr measurement "$0=15, $1=3"
attr network Network
attr processid 12436
attr repetition 6
attr replication #6
attr resultdir results
attr runnumber 146
attr seedset 6
param *.boss.arrival_mean 20
param *.boss.service_mean 15
param *.minion.arrival_mean 5
param *.minion.service_mean 3
param **.minion.arrival_distribution 0
param **.minion.service_distribution 0
param **.boss.arrival_distribution 0
param **.boss.service_distribution 0

vector 0 Network.player boss_jobs_number_stat:vector ETV
attr source signal_boss_jobs_number
vector 1 Network.player boss_jobs_queue_number_stat:vector ETV
attr source signal_boss_jobs_queue_number
vector 2 Network.player boss_defeated_stat:vector ETV
attr source signal_boss_defeated
vector 3 Network.player boss_response_time_stat:vector ETV
attr source signal_boss_response_time
vector 4 Network.player boss_waiting_time_stat:vector ETV
attr source signal_boss_waiting_time
vector 5 Network.player minion_jobs_number_stat:vector ETV
attr source signal_minion_jobs_number
vector 6 Network.player minion_jobs_queue_number_stat:vector ETV
attr source signal_minion_jobs_queue_number
vector 7 Network.player minion_waiting_time_stat:vector ETV
attr source signal_minion_waiting_time
vector 8 Network.player minion_defeated_stat:vector ETV
attr source signal_minion_defeated
vector 9 Network.player minion_response_time_stat:vector ETV
attr source signal_minion_response_time
vector 10 Network.player minion_recovered_stat:vector ETV
attr source signal_minion_recovered
vector 11 Network.player minion_throughput:vector ETV
attr source signal_minion_throughput
vector 12 Network.player boss_throughput:vector ETV
attr source signal_boss_throughput
0	1968 2443 167 1511 350.911095348185 2499.404620087199 94 1 9 283 1377
1	4411 4982 167 1511 350.911095348185 2499.404620087199 192 0 8 392 1864
2	9393 2651 168 1509 357.512946629044 2498.785442770853 98 16 113 6321 486129
3	12044 3890 168 1509 357.512946629044 2498.785442770853 98 0.008153812166 155.67883975672 4394.7516859433 356212.04881941
4	15934 3442 168 1509 357.512946629044 2498.785442770853 98 0 153.60585958885 2889.4491284584 232948.5450525
5	19376 11213 170 1508 359.185618884027 2494.523895205927 406 49 206 46636 5860506
6	30589 18007 170 1508 359.185618884027 2494.523895205927 654 48 205 72473 8678245
7	48596 11139 302 1488 589.427055556672 2471.301229756067 280 371.56675611223 969.5796140824 147991.9918908 81927955.072359
8	59735 6814 303 1340 590.407733931979 2198.880516389064 248 5 252 31868 5366100
9	66549 9869 303 1340 590.407733931979 2198.880516389064 248 374.65996697997 751.70266041966 131217.74978348 72522600.130647
10	76418 889 322 1492 614.526701304873 2473.876253655396 32 1 32 528 11440
11	77307 20 1512 1512 2500 2500 1 0.1008 0.1008 0.1008 0.01016064
12	77327 20 1512 1512 2500 2500 1 0.0452 0.0452 0.0452 0.00204304

