version 2
run factors_calibration_range_test-28-20230302-19:09:13-11830
attr configname factors_calibration_range_test
attr datetime 20230302-19:09:13
attr experiment factors_calibration_range_test
attr inifile omnetpp.ini
attr iterationvars "$0=5, $1=3"
attr iterationvarsf 5,3-
attr measurement "$0=5, $1=3"
attr network Network
attr processid 11830
attr repetition 8
attr replication #8
attr resultdir results
attr runnumber 28
attr seedset 8
param *.boss.arrival_mean 20
param *.boss.service_mean 5
param *.minion.arrival_mean 5
param *.minion.service_mean 3
param **.minion.arrival_distribution 0
param **.minion.service_distribution 0
param **.boss.arrival_distribution 0
param **.boss.service_distribution 0

vector 0 Network.player minion_jobs_number_stat:vector ETV
attr source signal_minion_jobs_number
vector 1 Network.player minion_jobs_queue_number_stat:vector ETV
attr source signal_minion_jobs_queue_number
vector 2 Network.player minion_defeated_stat:vector ETV
attr source signal_minion_defeated
vector 3 Network.player minion_response_time_stat:vector ETV
attr source signal_minion_response_time
vector 4 Network.player minion_waiting_time_stat:vector ETV
attr source signal_minion_waiting_time
vector 5 Network.player boss_jobs_number_stat:vector ETV
attr source signal_boss_jobs_number
vector 6 Network.player boss_jobs_queue_number_stat:vector ETV
attr source signal_boss_jobs_queue_number
vector 7 Network.player minion_recovered_stat:vector ETV
attr source signal_minion_recovered
vector 8 Network.player boss_waiting_time_stat:vector ETV
attr source signal_boss_waiting_time
vector 9 Network.player boss_defeated_stat:vector ETV
attr source signal_boss_defeated
vector 10 Network.player boss_response_time_stat:vector ETV
attr source signal_boss_response_time
vector 11 Network.player minion_throughput:vector ETV
attr source signal_minion_throughput
vector 12 Network.player boss_throughput:vector ETV
attr source signal_boss_throughput
0	245	351.637799926793	4
0	248	351.816698403941	4
0	253	364.695313271285	2
0	255	368.522684823544	3
0	257	371.692760173755	4
0	260	372.603368819217	4
0	262	373.873149192764	5
0	266	375.716961854411	6
0	269	379.092379324757	7
0	271	379.322925805971	8
0	274	384.965486513023	8
0	276	386.32831190177	9
0	278	391.302769350812	10
0	282	396.919874809072	9
0	287	399.122997692917	7
0	294	406.748085184797	3
0	296	407.092961365804	4
0	302	413.033485411216	1
0	307	424.089753334037	1
0	309	426.084344635749	2
0	312	434.508279223461	3
0	315	437.914687164074	3
0	320	443.23057265766	1
0	323	446.943534764849	1
0	326	450.416622181292	1
0	328	452.189588074644	2
0	331	457.535363221897	2
0	335	460.645156144872	3
0	337	463.129602107361	4
0	347	484.056737403649	1
0	350	486.029923365209	1
0	354	489.507021353304	2
0	356	493.200794955276	3
0	358	495.738885909479	4
0	362	498.2866600205	4
0	366	504.794685898601	3
0	371	513.646630264471	1
0	377	523.597595920151	1
0	380	525.794211070307	1
0	382	525.926801331636	2
0	386	534.785154743697	3
0	390	536.497727296506	3
0	392	537.164888541197	4
0	395	544.946014203063	4
0	397	548.143375493926	5
0	399	551.197707327139	6
0	402	554.294780736202	6
0	404	554.329543672517	7
0	411	566.036303756393	5
0	413	568.754214102351	6
0	415	570.382614884877	7
0	417	572.390040779668	8
0	419	575.930673941829	9
0	421	580.564300444157	10
0	425	595.091142378991	10
0	428	597.05354749582	10
0	430	597.905085303873	11
0	439	617.788180214507	5
0	446	622.87528397004	4
0	452	627.31175928799	4
0	458	648.788400663674	1
0	460	649.490990520631	2
0	463	652.587015286241	2
0	467	656.267055972851	1
0	471	662.647320261689	2
0	473	664.862986893699	3
0	475	668.959173182527	4
0	477	669.034741252869	5
0	479	680.004342628371	6
0	481	680.511350571874	7
0	486	700.142051138865	8
0	490	707.809873402724	9
0	492	709.480065002263	10
0	496	712.26443938523	11
0	499	715.359408046033	12
0	502	716.462341053865	13
0	512	728.278781844773	13
0	514	733.170962699492	14
0	520	748.284574264957	14
0	526	753.396845087647	11
0	531	759.232893867305	11
0	534	760.811263252927	12
0	539	768.618441322539	12
0	541	769.313704510708	13
0	548	784.402888119425	13
0	551	787.603035480152	13
0	556	793.79876476614	11
0	560	796.275384060453	10
0	562	797.392627349174	11
0	564	799.989269969222	12
0	568	808.202484442745	11
0	570	810.561703389332	12
0	574	815.627375207123	11
0	576	817.355165382959	12
0	580	826.271603749884	13
0	585	830.296274104612	12
0	587	830.838360702512	13
0	589	833.659366252203	14
0	591	834.419999336579	15
0	597	842.076868923725	15
0	599	842.693634864657	16
0	603	848.726402118468	17
0	606	850.780779679242	18
0	613	858.270473952311	17
0	615	859.566073429741	18
0	618	861.263263366638	18
0	622	866.523518523988	19
0	624	867.70412138263	20
0	627	870.352359139445	21
0	631	873.859400389194	20
0	634	880.832954436731	20
0	636	881.547257668249	21
0	638	881.606878861698	22
0	641	882.546749625195	22
0	643	882.735006706535	23
0	645	884.14326956642	24
0	649	889.299754289012	23
0	651	889.517756141463	24
0	653	894.05032020598	25
0	655	895.333736929312	26
0	657	896.676542694865	27
0	660	901.590460127801	27
0	665	906.364773896643	25
0	667	911.394798621472	26
0	670	913.864771228213	26
0	672	917.671255488911	27
0	680	923.157940033367	25
0	685	929.805347061187	23
0	692	933.354291239884	23
0	698	941.7957659953	22
0	703	943.733617045439	20
0	706	946.082484727148	20
0	709	948.494031164437	20
0	713	956.665823290266	19
0	715	959.119776784543	20
0	718	969.706507412251	20
0	723	980.953106858525	18
0	728	985.373304559089	16
0	732	990.122190495021	15
0	737	995.455540424973	13
0	739	1001.113259376419	14
0	742	1002.828783983954	14
0	744	1003.538292634929	15
0	747	1005.996408468457	15
0	750	1007.65925321857	15
0	753	1008.34010177663	15
0	755	1008.479404402972	16
0	757	1009.675842181878	17
0	759	1011.160307503454	18
0	762	1018.193888578894	18
0	765	1020.080181798597	18
0	767	1024.404258454179	19
0	769	1024.884155424699	20
0	773	1029.880231070822	19
0	776	1030.95397286861	19
0	782	1046.752576226319	16
0	785	1048.614975081027	16
0	788	1049.109953421868	16
0	790	1052.691869106662	17
0	793	1053.375132587638	17
0	795	1055.61827862306	18
0	798	1058.228347910092	18
0	802	1065.081146235388	19
0	805	1066.340915638694	20
0	808	1069.633102928039	20
0	811	1073.425207065877	20
0	815	1077.60733911418	19
0	818	1086.484180958285	19
0	826	1105.117932869546	14
0	830	1109.752360234209	15
0	832	1113.101187621736	16
0	834	1114.126413479966	17
0	836	1115.594521777297	18
0	839	1117.995264579741	19
0	853	1137.158031176118	15
0	855	1138.82468292877	16
0	857	1139.684685812502	17
0	859	1145.760064388634	18
0	864	1151.004804842995	19
0	866	1152.468599139936	20
0	868	1152.503707637437	21
0	870	1159.668353036377	22
0	872	1160.131225627519	23
0	874	1161.753328821703	24
0	878	1164.513159242179	25
0	880	1164.744011508123	26
0	885	1168.94185350648	27
0	895	1183.226534022445	28
0	902	1188.44158010453	25
0	905	1192.07240403149	25
0	907	1192.659497015605	26
0	909	1199.417761500128	27
0	912	1201.390431479185	27
0	914	1205.952053586621	28
0	924	1223.544671088769	24
0	934	1249.974695852228	20
0	937	1250.649699232163	20
0	939	1251.518993395461	21
0	941	1251.639645747739	22
0	943	1254.342741666312	23
0	948	1263.560080219163	21
0	950	1267.01934430481	22
0	952	1268.139354166822	23
0	956	1273.87597561694	24
0	958	1276.754835929562	25
0	962	1283.559196107861	25
0	964	1284.935944131438	26
0	966	1285.169875805997	27
0	968	1285.706019863345	28
0	970	1289.87956439917	29
0	972	1290.745513364103	30
0	981	1305.936292586315	24
0	983	1306.160928093904	25
0	986	1316.244025193192	25
0	990	1317.795673463665	26
0	992	1318.948942825411	27
0	995	1329.207298694795	28
0	998	1333.931066356787	28
0	1000	1334.866207334937	29
0	1004	1337.606332499377	28
0	1006	1338.08458517252	29
0	1008	1341.076275015296	30
0	1014	1346.861609210241	27
0	1016	1347.086623632565	28
0	1021	1354.921228510853	26
0	1023	1354.955575395841	27
0	1025	1356.761853158731	28
0	1029	1360.311797990718	27
0	1038	1368.608518665506	24
0	1041	1371.070523150872	24
0	1043	1371.327031254573	25
0	1049	1375.644998940546	22
0	1051	1376.905328250581	23
0	1053	1377.756497218564	24
0	1056	1382.624418915387	24
0	1059	1393.817224337205	24
0	1062	1397.682420548622	24
0	1064	1397.738215324645	25
0	1067	1404.067063682805	25
0	1070	1411.275595309987	25
0	1081	1421.741038760461	22
0	1083	1429.156326488062	23
0	1085	1430.273717001933	24
0	1090	1434.526140916914	23
0	1093	1436.957616527714	23
0	1103	1456.904835129251	18
0	1106	1459.329444621677	19
0	1108	1459.373020550867	20
0	1128	1499.855817071015	3
0	1130	1500.611099877928	4
0	1134	1504.193844576778	3
0	1136	1505.395413488817	4
0	1138	1506.78972257909	5
0	1141	1509.93889493512	5
0	1146	1513.484907020234	5
0	1148	1521.739135736174	6
0	1150	1524.015278372411	7
0	1154	1528.611698995721	8
0	1156	1533.302049086947	9
0	1159	1535.97047980669	10
0	1162	1543.606890915987	11
0	1167	1545.909301841652	11
0	1170	1549.43566014151	12
0	1173	1555.267853077718	12
0	1175	1558.495140822357	13
0	1178	1563.354198099473	13
0	1181	1567.217460007427	13
0	1187	1575.002422054156	10
0	1189	1575.135777312787	11
0	1191	1575.583427387003	12
0	1194	1578.33220132114	12
0	1196	1578.597459328431	13
0	1200	1584.293687031577	14
0	1202	1586.755591603683	15
0	1204	1593.003367431428	16
0	1206	1596.234375016693	17
0	1209	1599.922897583044	18
0	1215	1607.182676808829	15
0	1221	1614.965642686457	14
0	1224	1619.101775237372	15
0	1226	1622.493316484854	16
0	1228	1623.682798026464	17
0	1231	1626.957131948471	17
0	1238	1639.489909538317	13
0	1240	1645.260123667346	14
0	1242	1646.310831954779	15
0	1246	1655.211444728412	14
0	1249	1656.562044564339	14
0	1253	1657.761795688545	13
0	1255	1658.522010579846	14
0	1257	1659.411929680222	15
0	1259	1660.464523704913	16
0	1269	1672.99701586294	11
0	1273	1679.022995690848	11
0	1279	1688.838328874876	8
0	1283	1693.025986514859	7
0	1286	1697.420937225327	7
0	1291	1703.733618407401	5
0	1298	1720.48541705352	1
0	1301	1721.401632652845	1
0	1303	1723.256650002374	2
0	1307	1726.517571608018	1
0	1309	1728.562343789101	2
0	1313	1737.872050573827	1
0	1316	1746.117295975712	1
0	1319	1750.13551693888	1
0	1325	1761.906541176194	1
0	1328	1772.285181156941	1
0	1333	1789.209408208463	1
0	1335	1789.43452621406	2
0	1337	1790.171816684061	3
0	1339	1791.858002747237	4
0	1341	1793.686349592056	5
0	1345	1795.508012847513	5
0	1348	1798.838069831356	5
0	1355	1808.577670535775	1
0	1358	1812.533046126123	1
0	1361	1819.019037714511	1
0	1363	1819.188177137299	2
0	1367	1821.359009031133	1
0	1372	1826.200844257755	1
0	1374	1828.995105729348	2
0	1376	1835.359707369269	3
0	1385	1844.320037215692	1
0	1387	1848.630970850223	2
0	1390	1849.112276161222	2
0	1392	1850.697664065932	3
0	1395	1851.778658602842	3
0	1397	1853.012247427751	4
0	1400	1854.701307781245	4
0	1403	1855.078663893553	4
0	1408	1859.175965286923	2
0	1416	1873.385002004886	2
0	1418	1874.318339534079	3
0	1422	1876.440002625626	3
0	1424	1877.544701984599	4
0	1427	1880.3941810715	4
0	1433	1892.854835624174	5
0	1435	1898.348768219882	6
0	1437	1898.783477728497	7
0	1439	1899.421044710102	8
0	1443	1902.833041822093	9
0	1449	1913.664679562885	9
0	1452	1917.955233038632	9
0	1457	1928.12711764457	7
0	1459	1928.379102246574	8
0	1462	1931.380893320055	8
0	1470	1947.088561952675	3
0	1472	1947.401957192998	4
0	1475	1948.304661644014	4
0	1477	1951.223381894121	5
0	1479	1951.61721155924	6
0	1481	1955.459399056497	7
0	1485	1962.231179810493	6
0	1493	1970.217963956687	1
0	1495	1974.783039459525	2
0	1498	1978.530335331241	2
0	1503	1987.886557241988	2
0	1506	1989.415885605244	3
0	1511	1999.17132913646	1
0	1514	2001.949292475061	1
0	1517	2013.509362017481	1
0	1519	2020.836170289991	2
0	1524	2025.471323969849	2
0	1530	2036.657391371752	3
0	1534	2037.608663926513	4
0	1540	2046.588650103977	5
0	1547	2055.404506088024	4
0	1549	2057.689270887664	5
0	1552	2059.225262037162	5
0	1556	2062.961292661614	4
0	1558	2064.767205318894	5
0	1561	2067.873609402603	5
0	1563	2068.534770653902	6
0	1565	2068.861000087617	7
0	1567	2070.261104805302	8
0	1569	2070.495639251267	9
0	1575	2074.904742758823	10
0	1578	2076.249679005557	11
0	1582	2077.763665527355	11
0	1586	2088.419824401469	10
0	1588	2089.570595974503	11
0	1591	2092.671235103088	11
0	1599	2104.012632775163	9
0	1606	2117.78595232474	5
0	1608	2118.276474946704	6
0	1611	2119.433659678872	6
0	1614	2120.605371924088	6
0	1616	2120.815676719099	7
0	1618	2126.761113615646	8
0	1620	2127.775331523214	9
0	1622	2134.099552236073	10
0	1624	2135.239640069236	11
0	1628	2139.39919756386	10
0	1630	2141.372378327604	11
0	1641	2156.066352493942	10
0	1647	2167.265077840335	9
0	1655	2184.528525225853	6
0	1659	2190.769090593184	6
0	1663	2195.829159183184	5
0	1666	2197.229453237568	5
0	1669	2200.559976721429	5
0	1673	2204.608166406468	6
0	1678	2209.078561151223	5
0	1680	2210.416188768611	6
0	1682	2213.841681851175	7
0	1688	2219.857266925842	7
0	1697	2241.352241115976	1
0	1700	2246.894715182693	1
0	1708	2256.219133469375	1
0	1710	2256.526254306177	2
0	1713	2260.788319405793	3
0	1718	2267.979329995572	1
0	1721	2276.580193741959	1
0	1723	2279.196071265882	2
0	1732	2288.810709340997	2
0	1735	2292.191378402172	2
0	1738	2293.569896954183	2
0	1740	2294.526565863413	3
0	1744	2295.890161293475	4
0	1746	2299.678456093147	5
0	1752	2310.052692067413	3
0	1761	2318.095035526296	4
0	1766	2326.184015378708	5
0	1770	2327.193856818665	6
0	1776	2329.154828735201	7
0	1778	2329.479963503645	8
0	1782	2334.556908181681	9
0	1786	2339.937478268411	10
0	1790	2347.59005721577	11
0	1792	2351.160472727129	12
0	1799	2358.390658677256	13
0	1801	2362.704621907721	14
0	1810	2380.352186899342	11
0	1814	2384.206726504614	10
0	1818	2392.437238142259	9
0	1820	2394.098898734172	10
0	1822	2395.592024354926	11
0	1824	2397.611138163072	12
0	1833	2416.108488752259	9
0	1835	2417.694195729621	10
0	1839	2421.342090138813	9
0	1844	2423.766513436828	10
0	1846	2424.49441463984	11
0	1848	2424.724450029786	12
0	1852	2428.063140862608	13
0	1855	2430.045967997033	14
0	1860	2434.530466423727	14
0	1872	2460.270663757201	6
0	1875	2463.856949318521	6
0	1877	2465.6253789052	7
0	1881	2467.126890446624	8
0	1883	2471.540179719996	9
0	1896	2489.276326785571	9
0	1898	2489.581717572175	10
0	1900	2489.622946252299	11
1	245	351.637799926793	3
1	246	351.763823383332	3
1	248	351.816698403941	3
1	249	356.859024593979	3
1	250	360.710212269982	2
1	251	361.841801950863	1
1	253	364.695313271285	1
1	255	368.522684823544	2
1	257	371.692760173755	3
1	258	372.390588398132	3
1	260	372.603368819217	3
1	262	373.873149192764	4
1	266	375.716961854411	5
1	269	379.092379324757	6
1	271	379.322925805971	7
1	272	381.623544663559	7
1	274	384.965486513023	7
1	276	386.32831190177	8
1	278	391.302769350812	9
1	279	391.95467928158	9
1	280	394.204156142388	8
1	282	396.919874809072	8
1	283	397.582283796993	8
1	284	397.626239503698	7
1	285	398.834291736782	6
1	287	399.122997692917	6
1	288	401.062700665331	6
1	289	402.373485323728	5
1	290	402.510513642805	4
1	291	402.757498062933	3
1	292	404.707687331849	2
1	294	406.748085184797	2
1	296	407.092961365804	3
1	297	407.142901023009	3
1	298	407.469745209115	2
1	299	408.013571597188	1
1	300	408.410879760278	0
1	302	413.033485411216	0
1	303	414.083170042723	0
1	307	424.089753334037	0
1	309	426.084344635749	1
1	312	434.508279223461	2
1	313	435.252077559315	2
1	315	437.914687164074	2
1	316	440.761252829909	2
1	317	440.808160417011	1
1	318	442.159055262272	0
1	320	443.23057265766	0
1	321	443.762996359049	0
1	323	446.943534764849	0
1	324	448.193783265819	0
1	326	450.416622181292	0
1	328	452.189588074644	1
1	329	454.386424024898	1
1	331	457.535363221897	1
1	335	460.645156144872	2
1	337	463.129602107361	3
1	339	475.22571735103	3
1	340	475.87134903284	2
1	341	475.968013022524	1
1	345	478.895365156439	0
1	347	484.056737403649	0
1	348	485.974918989369	0
1	350	486.029923365209	0
1	354	489.507021353304	1
1	356	493.200794955276	2
1	358	495.738885909479	3
1	360	497.761188466923	3
1	362	498.2866600205	3
1	363	501.706757855762	3
1	364	502.173318046886	2
1	366	504.794685898601	2
1	367	506.624586853791	2
1	368	508.560131536564	1
1	369	509.388359742757	0
1	371	513.646630264471	0
1	375	523.198337277805	0
1	377	523.597595920151	0
1	378	524.694297760549	0
1	380	525.794211070307	0
1	382	525.926801331636	1
1	386	534.785154743697	2
1	388	535.947233935956	2
1	390	536.497727296506	2
1	392	537.164888541197	3
1	393	537.59282741108	3
1	395	544.946014203063	3
1	397	548.143375493926	4
1	399	551.197707327139	5
1	400	551.734076688948	5
1	402	554.294780736202	5
1	404	554.329543672517	6
1	405	554.451136028203	6
1	406	559.13565172117	5
1	407	559.667900461493	4
1	411	566.036303756393	4
1	413	568.754214102351	5
1	415	570.382614884877	6
1	417	572.390040779668	7
1	419	575.930673941829	8
1	421	580.564300444157	9
1	423	591.742291489913	9
1	425	595.091142378991	9
1	426	596.915092166292	9
1	428	597.05354749582	9
1	430	597.905085303873	10
1	431	598.995293681022	10
1	432	602.902729411213	9
1	433	613.280614219189	8
1	434	613.464627024847	7
1	435	614.009275710966	6
1	436	615.501354692133	5
1	437	615.927581423985	4
1	439	617.788180214507	4
1	440	618.82856162947	4
1	444	622.083132429866	3
1	446	622.87528397004	3
1	447	625.104837308228	3
1	452	627.31175928799	3
1	453	630.521757532361	3
1	454	640.86037746345	2
1	455	642.49932759044	1
1	456	642.778904283047	0
1	458	648.788400663674	0
1	460	649.490990520631	1
1	461	649.767870995441	1
1	463	652.587015286241	1
1	464	653.72524134815	1
1	465	655.561365014416	0
1	467	656.267055972851	0
1	471	662.647320261689	1
1	473	664.862986893699	2
1	475	668.959173182527	3
1	477	669.034741252869	4
1	479	680.004342628371	5
1	481	680.511350571874	6
1	486	700.142051138865	7
1	490	707.809873402724	8
1	492	709.480065002263	9
1	496	712.26443938523	10
1	499	715.359408046033	11
1	502	716.462341053865	12
1	510	727.163011563481	12
1	512	728.278781844773	12
1	514	733.170962699492	13
1	518	741.437863292337	13
1	520	748.284574264957	13
1	521	748.655422813505	13
1	522	750.172363666502	12
1	523	752.256155026537	11
1	524	752.308729081376	10
1	526	753.396845087647	10
1	527	757.992538373975	10
1	531	759.232893867305	10
1	534	760.811263252927	11
1	535	763.582801187983	11
1	539	768.618441322539	11
1	541	769.313704510708	12
1	546	783.605053713139	12
1	548	784.402888119425	12
1	549	784.643130024249	12
1	551	787.603035480152	12
1	552	790.2256767651	12
1	553	790.807727767158	11
1	554	792.918415436252	10
1	556	793.79876476614	10
1	557	793.883448933324	10
1	558	795.246875825527	9
1	560	796.275384060453	9
1	562	797.392627349174	10
1	564	799.989269969222	11
1	565	800.944106139237	11
1	566	805.336647230651	10
1	568	808.202484442745	10
1	570	810.561703389332	11
1	571	810.640664323732	11
1	572	814.522918139525	10
1	574	815.627375207123	10
1	576	817.355165382959	11
1	580	826.271603749884	12
1	582	828.932924866266	12
1	583	828.979551018136	11
1	585	830.296274104612	11
1	587	830.838360702512	12
1	589	833.659366252203	13
1	591	834.419999336579	14
1	595	837.80434954316	14
1	597	842.076868923725	14
1	599	842.693634864657	15
1	603	848.726402118468	16
1	606	850.780779679242	17
1	610	855.152584175961	17
1	611	856.66801586342	16
1	613	858.270473952311	16
1	615	859.566073429741	17
1	616	860.143908296387	17
1	618	861.263263366638	17
1	622	866.523518523988	18
1	624	867.70412138263	19
1	627	870.352359139445	20
1	628	870.415133008965	20
1	629	872.109299147071	19
1	631	873.859400389194	19
1	632	877.347278771055	19
1	634	880.832954436731	19
1	636	881.547257668249	20
1	638	881.606878861698	21
1	639	882.138164797715	21
1	641	882.546749625195	21
1	643	882.735006706535	22
1	645	884.14326956642	23
1	646	886.79760893828	23
1	647	888.507894390958	22
1	649	889.299754289012	22
1	651	889.517756141463	23
1	653	894.05032020598	24
1	655	895.333736929312	25
1	657	896.676542694865	26
1	658	901.007962744472	26
1	660	901.590460127801	26
1	661	902.297513332713	26
1	662	904.438753388668	25
1	663	905.94272740425	24
1	665	906.364773896643	24
1	667	911.394798621472	25
1	668	913.760222743264	25
1	670	913.864771228213	25
1	672	917.671255488911	26
1	673	918.083470976155	26
1	674	919.701419679862	25
1	678	923.13049743981	24
1	680	923.157940033367	24
1	681	925.624834092631	24
1	682	927.43171413369	23
1	683	929.263698004737	22
1	685	929.805347061187	22
1	686	929.872394687273	22
1	692	933.354291239884	22
1	695	936.680738669687	22
1	696	940.187358101845	21
1	698	941.7957659953	21
1	699	941.845986626654	21
1	700	942.856477545795	20
1	701	943.453210603665	19
1	703	943.733617045439	19
1	704	945.091861788418	19
1	706	946.082484727148	19
1	707	946.53922370123	19
1	709	948.494031164437	19
1	710	949.056662483211	19
1	711	950.495555720803	18
1	713	956.665823290266	18
1	715	959.119776784543	19
1	716	960.787272055318	19
1	718	969.706507412251	19
1	719	970.389577153981	19
1	720	972.857367007215	18
1	721	973.611715990829	17
1	723	980.953106858525	17
1	724	984.43242164127	17
1	725	984.732814870287	16
1	726	985.295386657431	15
1	728	985.373304559089	15
1	729	988.157329023248	15
1	730	988.964519917217	14
1	732	990.122190495021	14
1	733	991.482513315546	14
1	734	992.255975563177	13
1	735	994.762140646429	12
1	737	995.455540424973	12
1	739	1001.113259376419	13
1	740	1001.154148665793	13
1	742	1002.828783983954	13
1	744	1003.538292634929	14
1	745	1004.381057994755	14
1	747	1005.996408468457	14
1	748	1007.559073559924	14
1	750	1007.65925321857	14
1	751	1008.120579182166	14
1	753	1008.34010177663	14
1	755	1008.479404402972	15
1	757	1009.675842181878	16
1	759	1011.160307503454	17
1	760	1018.082579312074	17
1	762	1018.193888578894	17
1	763	1018.575392432303	17
1	765	1020.080181798597	17
1	767	1024.404258454179	18
1	769	1024.884155424699	19
1	770	1025.076295772204	19
1	771	1028.869088638904	18
1	773	1029.880231070822	18
1	774	1030.246758543102	18
1	776	1030.95397286861	18
1	777	1032.513185280656	18
1	778	1033.768056076674	17
1	779	1035.47170692089	16
1	780	1041.176527652522	15
1	782	1046.752576226319	15
1	783	1047.316596470213	15
1	785	1048.614975081027	15
1	786	1048.793068553032	15
1	788	1049.109953421868	15
1	790	1052.691869106662	16
1	791	1052.703120425687	16
1	793	1053.375132587638	16
1	795	1055.61827862306	17
1	796	1055.996627510606	17
1	798	1058.228347910092	17
1	802	1065.081146235388	18
1	805	1066.340915638694	19
1	806	1067.518284259819	19
1	808	1069.633102928039	19
1	809	1072.784508580131	19
1	811	1073.425207065877	19
1	812	1075.601192848258	19
1	813	1076.757859470249	18
1	815	1077.60733911418	18
1	816	1081.361147472742	18
1	818	1086.484180958285	18
1	819	1087.540748872204	18
1	820	1097.864557968124	17
1	821	1098.38075783442	16
1	822	1099.782466775557	15
1	823	1101.53413430785	14
1	824	1104.884991282946	13
1	826	1105.117932869546	13
1	830	1109.752360234209	14
1	832	1113.101187621736	15
1	834	1114.126413479966	16
1	836	1115.594521777297	17
1	839	1117.995264579741	18
1	840	1120.602491468421	18
1	841	1120.695828294022	17
1	842	1124.282455130641	16
1	843	1125.003828765477	15
1	844	1129.925532281743	14
1	853	1137.158031176118	14
1	855	1138.82468292877	15
1	857	1139.684685812502	16
1	859	1145.760064388634	17
1	864	1151.004804842995	18
1	866	1152.468599139936	19
1	868	1152.503707637437	20
1	870	1159.668353036377	21
1	872	1160.131225627519	22
1	874	1161.753328821703	23
1	878	1164.513159242179	24
1	880	1164.744011508123	25
1	885	1168.94185350648	26
1	895	1183.226534022445	27
1	897	1185.868681340108	27
1	898	1187.019063788379	26
1	899	1187.31486580724	25
1	900	1187.837799706142	24
1	902	1188.44158010453	24
1	903	1190.024276378093	24
1	905	1192.07240403149	24
1	907	1192.659497015605	25
1	909	1199.417761500128	26
1	910	1201.248837019309	26
1	912	1201.390431479185	26
1	914	1205.952053586621	27
1	915	1206.328510759279	27
1	916	1207.071772936943	26
1	917	1213.257149535403	25
1	918	1213.693456330583	24
1	922	1219.124854008088	23
1	924	1223.544671088769	23
1	925	1230.44597912755	23
1	929	1238.488981198072	22
1	930	1242.194042345243	21
1	931	1244.377995073149	20
1	932	1247.681404740773	19
1	934	1249.974695852228	19
1	935	1250.094957717965	19
1	937	1250.649699232163	19
1	939	1251.518993395461	20
1	941	1251.639645747739	21
1	943	1254.342741666312	22
1	944	1255.397870789416	22
1	945	1257.848112834664	21
1	946	1260.364158385926	20
1	948	1263.560080219163	20
1	950	1267.01934430481	21
1	952	1268.139354166822	22
1	956	1273.87597561694	23
1	958	1276.754835929562	24
1	960	1278.009342047328	24
1	962	1283.559196107861	24
1	964	1284.935944131438	25
1	966	1285.169875805997	26
1	968	1285.706019863345	27
1	970	1289.87956439917	28
1	972	1290.745513364103	29
1	973	1290.932604384602	29
1	974	1291.842969690444	28
1	975	1292.229402181506	27
1	976	1294.370562075451	26
1	977	1295.007567518404	25
1	978	1299.235291040549	24
1	979	1302.127194670908	23
1	981	1305.936292586315	23
1	983	1306.160928093904	24
1	984	1310.401843272475	24
1	986	1316.244025193192	24
1	990	1317.795673463665	25
1	992	1318.948942825411	26
1	995	1329.207298694795	27
1	996	1331.662658308725	27
1	998	1333.931066356787	27
1	1000	1334.866207334937	28
1	1001	1335.620660391021	28
1	1002	1336.48126318276	27
1	1004	1337.606332499377	27
1	1006	1338.08458517252	28
1	1008	1341.076275015296	29
1	1009	1342.538862765588	29
1	1010	1344.237213195204	28
1	1011	1345.47453569723	27
1	1012	1345.865018269577	26
1	1014	1346.861609210241	26
1	1016	1347.086623632565	27
1	1017	1348.998948957158	27
1	1018	1351.984031847963	26
1	1019	1354.029197765599	25
1	1021	1354.921228510853	25
1	1023	1354.955575395841	26
1	1025	1356.761853158731	27
1	1026	1358.404232876109	27
1	1027	1358.683824117945	26
1	1029	1360.311797990718	26
1	1033	1362.93495184792	26
1	1034	1363.672700798019	25
1	1035	1364.067253857826	24
1	1036	1365.68106607744	23
1	1038	1368.608518665506	23
1	1039	1369.528802518085	23
1	1041	1371.070523150872	23
1	1043	1371.327031254573	24
1	1044	1372.377119746711	24
1	1045	1373.318771050307	23
1	1046	1374.506399828031	22
1	1047	1375.428112371153	21
1	1049	1375.644998940546	21
1	1051	1376.905328250581	22
1	1053	1377.756497218564	23
1	1054	1382.563684818448	23
1	1056	1382.624418915387	23
1	1057	1383.238007541102	23
1	1059	1393.817224337205	23
1	1060	1395.143092782504	23
1	1062	1397.682420548622	23
1	1064	1397.738215324645	24
1	1065	1402.620631496892	24
1	1067	1404.067063682805	24
1	1068	1408.47572556006	24
1	1070	1411.275595309987	24
1	1071	1411.866474926111	24
1	1075	1416.649673320559	23
1	1076	1417.589010625134	22
1	1077	1417.795286832231	21
1	1081	1421.741038760461	21
1	1083	1429.156326488062	22
1	1085	1430.273717001933	23
1	1087	1432.717836141107	23
1	1088	1434.363121170787	22
1	1090	1434.526140916914	22
1	1091	1436.313039494583	22
1	1093	1436.957616527714	22
1	1094	1439.122589619455	22
1	1095	1442.994962119138	21
1	1096	1446.800917045611	20
1	1097	1450.312982977722	19
1	1098	1450.527652963568	18
1	1099	1452.387568237946	17
1	1103	1456.904835129251	17
1	1106	1459.329444621677	18
1	1108	1459.373020550867	19
1	1109	1459.420771830405	19
1	1110	1461.064246145693	18
1	1111	1461.230259906726	17
1	1112	1463.675791243258	16
1	1113	1463.793012047798	15
1	1114	1469.505066067734	14
1	1115	1470.121183905976	13
1	1116	1472.980203189394	12
1	1117	1473.06981809935	11
1	1118	1474.895337002751	10
1	1119	1475.80236464272	9
1	1120	1476.272562587528	8
1	1121	1480.128916765614	7
1	1122	1486.16728537861	6
1	1123	1487.106878151642	5
1	1124	1490.430544390856	4
1	1125	1492.824014826529	3
1	1126	1499.044401121156	2
1	1128	1499.855817071015	2
1	1130	1500.611099877928	3
1	1131	1502.550774238688	3
1	1132	1502.978642092904	2
1	1134	1504.193844576778	2
1	1136	1505.395413488817	3
1	1138	1506.78972257909	4
1	1139	1507.22811731929	4
1	1141	1509.93889493512	4
1	1142	1512.100158069914	4
1	1146	1513.484907020234	4
1	1148	1521.739135736174	5
1	1150	1524.015278372411	6
1	1154	1528.611698995721	7
1	1156	1533.302049086947	8
1	1159	1535.97047980669	9
1	1162	1543.606890915987	10
1	1163	1545.051706643589	10
1	1167	1545.909301841652	10
1	1170	1549.43566014151	11
1	1171	1550.75692266799	11
1	1173	1555.267853077718	11
1	1175	1558.495140822357	12
1	1176	1561.305891687265	12
1	1178	1563.354198099473	12
1	1179	1564.66588645147	12
1	1181	1567.217460007427	12
1	1182	1569.600426803658	12
1	1183	1573.029468983	11
1	1184	1574.326649328993	10
1	1185	1574.985258942142	9
1	1187	1575.002422054156	9
1	1189	1575.135777312787	10
1	1191	1575.583427387003	11
1	1192	1575.636504090993	11
1	1194	1578.33220132114	11
1	1196	1578.597459328431	12
1	1200	1584.293687031577	13
1	1202	1586.755591603683	14
1	1204	1593.003367431428	15
1	1206	1596.234375016693	16
1	1209	1599.922897583044	17
1	1210	1600.355200814059	17
1	1211	1601.199876520484	16
1	1212	1603.529220453989	15
1	1213	1605.092299974594	14
1	1215	1607.182676808829	14
1	1216	1608.39308325161	14
1	1217	1613.710170383333	13
1	1221	1614.965642686457	13
1	1224	1619.101775237372	14
1	1226	1622.493316484854	15
1	1228	1623.682798026464	16
1	1229	1625.829649534257	16
1	1231	1626.957131948471	16
1	1232	1626.975351925027	16
1	1233	1629.569730466528	15
1	1234	1631.61903879182	14
1	1235	1636.494158081319	13
1	1236	1638.674483077439	12
1	1238	1639.489909538317	12
1	1240	1645.260123667346	13
1	1242	1646.310831954779	14
1	1243	1650.217944557406	14
1	1244	1652.734469113542	13
1	1246	1655.211444728412	13
1	1247	1655.892866144894	13
1	1249	1656.562044564339	13
1	1250	1657.209433531426	13
1	1251	1657.391301107137	12
1	1253	1657.761795688545	12
1	1255	1658.522010579846	13
1	1257	1659.411929680222	14
1	1259	1660.464523704913	15
1	1260	1661.130085104905	15
1	1261	1664.468329996694	14
1	1262	1664.49918002214	13
1	1263	1665.234322109541	12
1	1264	1668.123914954441	11
1	1265	1668.887714646811	10
1	1269	1672.99701586294	10
1	1271	1675.211294901783	10
1	1273	1679.022995690848	10
1	1274	1682.71942941581	10
1	1275	1684.088003025015	9
1	1276	1687.064263967387	8
1	1277	1688.609306756536	7
1	1279	1688.838328874876	7
1	1280	1690.752097647955	7
1	1281	1691.979118894738	6
1	1283	1693.025986514859	6
1	1284	1696.290298619382	6
1	1286	1697.420937225327	6
1	1287	1697.962580273839	6
1	1288	1698.619275469223	5
1	1289	1699.032113013282	4
1	1291	1703.733618407401	4
1	1292	1704.850030443438	4
1	1293	1705.246758906204	3
1	1294	1705.39621084521	2
1	1295	1710.918769662974	1
1	1296	1711.391099417063	0
1	1298	1720.48541705352	0
1	1299	1720.842602746819	0
1	1301	1721.401632652845	0
1	1303	1723.256650002374	1
1	1304	1724.540101443748	1
1	1305	1725.667878901565	0
1	1307	1726.517571608018	0
1	1309	1728.562343789101	1
1	1310	1731.2326559979	1
1	1311	1737.061102153808	0
1	1313	1737.872050573827	0
1	1314	1738.271778745116	0
1	1316	1746.117295975712	0
1	1317	1748.562184482971	0
1	1319	1750.13551693888	0
1	1320	1751.614049123532	0
1	1325	1761.906541176194	0
1	1326	1765.952820231384	0
1	1328	1772.285181156941	0
1	1329	1773.885521210108	0
1	1333	1789.209408208463	0
1	1335	1789.43452621406	1
1	1337	1790.171816684061	2
1	1339	1791.858002747237	3
1	1341	1793.686349592056	4
1	1343	1794.845638958824	4
1	1345	1795.508012847513	4
1	1346	1796.517032072459	4
1	1348	1798.838069831356	4
1	1349	1799.05851000591	4
1	1350	1801.544868388583	3
1	1351	1803.695629037667	2
1	1352	1806.753670349149	1
1	1353	1808.361656897428	0
1	1355	1808.577670535775	0
1	1356	1809.056093308761	0
1	1358	1812.533046126123	0
1	1359	1816.873296489809	0
1	1361	1819.019037714511	0
1	1363	1819.188177137299	1
1	1364	1819.70492005077	1
1	1365	1821.072677177503	0
1	1367	1821.359009031133	0
1	1368	1821.511441045274	0
1	1372	1826.200844257755	0
1	1374	1828.995105729348	1
1	1376	1835.359707369269	2
1	1378	1837.774082111528	2
1	1379	1838.207393629355	1
1	1383	1842.323038128546	0
1	1385	1844.320037215692	0
1	1387	1848.630970850223	1
1	1388	1848.882447877976	1
1	1390	1849.112276161222	1
1	1392	1850.697664065932	2
1	1393	1851.459173566042	2
1	1395	1851.778658602842	2
1	1397	1853.012247427751	3
1	1398	1854.575942863241	3
1	1400	1854.701307781245	3
1	1401	1855.048807030181	3
1	1403	1855.078663893553	3
1	1404	1856.26709520144	3
1	1405	1857.110667537617	2
1	1406	1858.739838279601	1
1	1408	1859.175965286923	1
1	1409	1859.477760327655	1
1	1416	1873.385002004886	1
1	1418	1874.318339534079	2
1	1420	1876.015652115745	2
1	1422	1876.440002625626	2
1	1424	1877.544701984599	3
1	1425	1878.245312005801	3
1	1427	1880.3941810715	3
1	1433	1892.854835624174	4
1	1435	1898.348768219882	5
1	1437	1898.783477728497	6
1	1439	1899.421044710102	7
1	1443	1902.833041822093	8
1	1447	1913.579229637576	8
1	1449	1913.664679562885	8
1	1450	1914.518038539768	8
1	1452	1917.955233038632	8
1	1453	1919.905613368553	8
1	1454	1922.154384896671	7
1	1455	1925.411987228471	6
1	1457	1928.12711764457	6
1	1459	1928.379102246574	7
1	1460	1930.685166118334	7
1	1462	1931.380893320055	7
1	1463	1931.748521306888	7
1	1464	1940.141428775	6
1	1465	1941.118643544928	5
1	1466	1942.656067053222	4
1	1467	1944.94396759035	3
1	1468	1945.207081372401	2
1	1470	1947.088561952675	2
1	1472	1947.401957192998	3
1	1473	1947.473891164683	3
1	1475	1948.304661644014	3
1	1477	1951.223381894121	4
1	1479	1951.61721155924	5
1	1481	1955.459399056497	6
1	1482	1959.286457018959	6
1	1483	1961.11257312654	5
1	1485	1962.231179810493	5
1	1486	1963.249454959273	5
1	1487	1965.035692756433	4
1	1488	1965.283816744355	3
1	1489	1965.835501849207	2
1	1490	1966.960319034949	1
1	1491	1968.382355726949	0
1	1493	1970.217963956687	0
1	1495	1974.783039459525	1
1	1496	1975.808733298863	1
1	1498	1978.530335331241	1
1	1499	1984.13960800041	1
1	1503	1987.886557241988	1
1	1506	1989.415885605244	2
1	1507	1989.819493860756	2
1	1508	1992.54453796631	1
1	1509	1996.201329909125	0
1	1511	1999.17132913646	0
1	1512	2001.629810710133	0
1	1514	2001.949292475061	0
1	1515	2003.193765592312	0
1	1517	2013.509362017481	0
1	1519	2020.836170289991	1
1	1520	2021.687706414961	1
1	1524	2025.471323969849	1
1	1530	2036.657391371752	2
1	1534	2037.608663926513	3
1	1540	2046.588650103977	4
1	1544	2052.580187587503	4
1	1545	2053.939355181955	3
1	1547	2055.404506088024	3
1	1549	2057.689270887664	4
1	1550	2058.503555947229	4
1	1552	2059.225262037162	4
1	1553	2060.413530139739	4
1	1554	2062.194470439685	3
1	1556	2062.961292661614	3
1	1558	2064.767205318894	4
1	1559	2065.260423144625	4
1	1561	2067.873609402603	4
1	1563	2068.534770653902	5
1	1565	2068.861000087617	6
1	1567	2070.261104805302	7
1	1569	2070.495639251267	8
1	1575	2074.904742758823	9
1	1578	2076.249679005557	10
1	1580	2077.465191351182	10
1	1582	2077.763665527355	10
1	1583	2082.062139824286	10
1	1584	2084.159090265063	9
1	1586	2088.419824401469	9
1	1588	2089.570595974503	10
1	1589	2091.437143227605	10
1	1591	2092.671235103088	10
1	1592	2094.931618874457	10
1	1596	2100.270123401948	9
1	1597	2102.565141551643	8
1	1599	2104.012632775163	8
1	1600	2106.431159510972	8
1	1601	2107.467806547299	7
1	1602	2107.610897298002	6
1	1603	2111.074840478342	5
1	1604	2113.548431736678	4
1	1606	2117.78595232474	4
1	1608	2118.276474946704	5
1	1609	2119.386607051413	5
1	1611	2119.433659678872	5
1	1612	2119.651558231787	5
1	1614	2120.605371924088	5
1	1616	2120.815676719099	6
1	1618	2126.761113615646	7
1	1620	2127.775331523214	8
1	1622	2134.099552236073	9
1	1624	2135.239640069236	10
1	1625	2137.011806956838	10
1	1626	2137.257062155321	9
1	1628	2139.39919756386	9
1	1630	2141.372378327604	10
1	1631	2142.397896776184	10
1	1635	2148.691031594523	9
1	1641	2156.066352493942	9
1	1644	2163.573902887774	9
1	1645	2164.654420766797	8
1	1647	2167.265077840335	8
1	1648	2167.379792250814	8
1	1649	2169.251232772937	7
1	1650	2170.028154473587	6
1	1651	2173.800819227668	5
1	1655	2184.528525225853	5
1	1657	2185.443193926564	5
1	1659	2190.769090593184	5
1	1660	2192.857213509152	5
1	1661	2193.885694693448	4
1	1663	2195.829159183184	4
1	1664	2196.07898671887	4
1	1666	2197.229453237568	4
1	1667	2199.63320784674	4
1	1669	2200.559976721429	4
1	1673	2204.608166406468	5
1	1675	2206.766974903673	5
1	1676	2208.300647511979	4
1	1678	2209.078561151223	4
1	1680	2210.416188768611	5
1	1682	2213.841681851175	6
1	1683	2216.228962885323	6
1	1688	2219.857266925842	6
1	1689	2220.157095291196	6
1	1690	2227.694550240851	5
1	1691	2229.072649545875	4
1	1692	2232.217943892705	3
1	1693	2232.694122157109	2
1	1694	2233.541932298805	1
1	1695	2233.741089847915	0
1	1697	2241.352241115976	0
1	1698	2243.867464421456	0
1	1700	2246.894715182693	0
1	1701	2248.556706727808	0
1	1708	2256.219133469375	0
1	1710	2256.526254306177	1
1	1713	2260.788319405793	2
1	1714	2264.963617172063	2
1	1715	2266.630186310161	1
1	1716	2266.778538864038	0
1	1718	2267.979329995572	0
1	1719	2269.483491655629	0
1	1721	2276.580193741959	0
1	1723	2279.196071265882	1
1	1730	2286.588664506197	1
1	1732	2288.810709340997	1
1	1733	2290.325341370317	1
1	1735	2292.191378402172	1
1	1736	2293.470596022473	1
1	1738	2293.569896954183	1
1	1740	2294.526565863413	2
1	1744	2295.890161293475	3
1	1746	2299.678456093147	4
1	1748	2302.650136012943	4
1	1749	2303.153205708794	3
1	1750	2304.747169882544	2
1	1752	2310.052692067413	2
1	1761	2318.095035526296	3
1	1766	2326.184015378708	4
1	1770	2327.193856818665	5
1	1776	2329.154828735201	6
1	1778	2329.479963503645	7
1	1782	2334.556908181681	8
1	1786	2339.937478268411	9
1	1790	2347.59005721577	10
1	1792	2351.160472727129	11
1	1799	2358.390658677256	12
1	1801	2362.704621907721	13
1	1802	2363.933758723087	13
1	1803	2367.111679281092	12
1	1807	2377.891075208145	11
1	1808	2378.463515652862	10
1	1810	2380.352186899342	10
1	1811	2382.990011131308	10
1	1812	2383.865446767994	9
1	1814	2384.206726504614	9
1	1815	2385.278799051605	9
1	1816	2391.921607854239	8
1	1818	2392.437238142259	8
1	1820	2394.098898734172	9
1	1822	2395.592024354926	10
1	1824	2397.611138163072	11
1	1825	2402.152545667528	11
1	1826	2402.371992407842	10
1	1830	2410.788549057327	9
1	1831	2412.344611374206	8
1	1833	2416.108488752259	8
1	1835	2417.694195729621	9
1	1836	2418.069064738859	9
1	1837	2420.836731173161	8
1	1839	2421.342090138813	8
1	1844	2423.766513436828	9
1	1846	2424.49441463984	10
1	1848	2424.724450029786	11
1	1852	2428.063140862608	12
1	1855	2430.045967997033	13
1	1856	2432.505162644473	13
1	1860	2434.530466423727	13
1	1862	2435.165467158541	13
1	1863	2436.815236884831	12
1	1864	2437.811759327748	11
1	1865	2438.885022349186	10
1	1866	2438.946688293484	9
1	1867	2442.348491489923	8
1	1868	2445.71108338753	7
1	1869	2449.456899536944	6
1	1870	2451.979812566094	5
1	1872	2460.270663757201	5
1	1873	2463.355078368801	5
1	1875	2463.856949318521	5
1	1877	2465.6253789052	6
1	1881	2467.126890446624	7
1	1883	2471.540179719996	8
1	1894	2488.807680555161	8
1	1896	2489.276326785571	8
1	1898	2489.581717572175	9
1	1900	2489.622946252299	10
1	1901	2496.303979295463	10
1	1902	2496.774067086741	9
2	246	351.763823383332	57
2	249	356.859024593979	58
2	250	360.710212269982	59
2	251	361.841801950863	60
2	258	372.390588398132	61
2	272	381.623544663559	62
2	279	391.95467928158	63
2	280	394.204156142388	64
2	283	397.582283796993	65
2	284	397.626239503698	66
2	285	398.834291736782	67
2	288	401.062700665331	68
2	289	402.373485323728	69
2	290	402.510513642805	70
2	291	402.757498062933	71
2	292	404.707687331849	72
2	297	407.142901023009	73
2	298	407.469745209115	74
2	299	408.013571597188	75
2	300	408.410879760278	76
2	303	414.083170042723	77
2	313	435.252077559315	78
2	316	440.761252829909	79
2	317	440.808160417011	80
2	318	442.159055262272	81
2	321	443.762996359049	82
2	324	448.193783265819	83
2	329	454.386424024898	84
2	339	475.22571735103	85
2	340	475.87134903284	86
2	341	475.968013022524	87
2	345	478.895365156439	88
2	348	485.974918989369	89
2	360	497.761188466923	90
2	363	501.706757855762	91
2	364	502.173318046886	92
2	367	506.624586853791	93
2	368	508.560131536564	94
2	369	509.388359742757	95
2	375	523.198337277805	96
2	378	524.694297760549	97
2	388	535.947233935956	98
2	393	537.59282741108	99
2	400	551.734076688948	100
2	405	554.451136028203	101
2	406	559.13565172117	102
2	407	559.667900461493	103
2	423	591.742291489913	104
2	426	596.915092166292	105
2	431	598.995293681022	106
2	432	602.902729411213	107
2	433	613.280614219189	108
2	434	613.464627024847	109
2	435	614.009275710966	110
2	436	615.501354692133	111
2	437	615.927581423985	112
2	440	618.82856162947	113
2	444	622.083132429866	114
2	447	625.104837308228	115
2	453	630.521757532361	116
2	454	640.86037746345	117
2	455	642.49932759044	118
2	456	642.778904283047	119
2	461	649.767870995441	120
2	464	653.72524134815	121
2	465	655.561365014416	122
2	510	727.163011563481	123
2	518	741.437863292337	124
2	521	748.655422813505	125
2	522	750.172363666502	126
2	523	752.256155026537	127
2	524	752.308729081376	128
2	527	757.992538373975	129
2	535	763.582801187983	130
2	546	783.605053713139	131
2	549	784.643130024249	132
2	552	790.2256767651	133
2	553	790.807727767158	134
2	554	792.918415436252	135
2	557	793.883448933324	136
2	558	795.246875825527	137
2	565	800.944106139237	138
2	566	805.336647230651	139
2	571	810.640664323732	140
2	572	814.522918139525	141
2	582	828.932924866266	142
2	583	828.979551018136	143
2	595	837.80434954316	144
2	610	855.152584175961	145
2	611	856.66801586342	146
2	616	860.143908296387	147
2	628	870.415133008965	148
2	629	872.109299147071	149
2	632	877.347278771055	150
2	639	882.138164797715	151
2	646	886.79760893828	152
2	647	888.507894390958	153
2	658	901.007962744472	154
2	661	902.297513332713	155
2	662	904.438753388668	156
2	663	905.94272740425	157
2	668	913.760222743264	158
2	673	918.083470976155	159
2	674	919.701419679862	160
2	678	923.13049743981	161
2	681	925.624834092631	162
2	682	927.43171413369	163
2	683	929.263698004737	164
2	686	929.872394687273	165
2	695	936.680738669687	166
2	696	940.187358101845	167
2	699	941.845986626654	168
2	700	942.856477545795	169
2	701	943.453210603665	170
2	704	945.091861788418	171
2	707	946.53922370123	172
2	710	949.056662483211	173
2	711	950.495555720803	174
2	716	960.787272055318	175
2	719	970.389577153981	176
2	720	972.857367007215	177
2	721	973.611715990829	178
2	724	984.43242164127	179
2	725	984.732814870287	180
2	726	985.295386657431	181
2	729	988.157329023248	182
2	730	988.964519917217	183
2	733	991.482513315546	184
2	734	992.255975563177	185
2	735	994.762140646429	186
2	740	1001.154148665793	187
2	745	1004.381057994755	188
2	748	1007.559073559924	189
2	751	1008.120579182166	190
2	760	1018.082579312074	191
2	763	1018.575392432303	192
2	770	1025.076295772204	193
2	771	1028.869088638904	194
2	774	1030.246758543102	195
2	777	1032.513185280656	196
2	778	1033.768056076674	197
2	779	1035.47170692089	198
2	780	1041.176527652522	199
2	783	1047.316596470213	200
2	786	1048.793068553032	201
2	791	1052.703120425687	202
2	796	1055.996627510606	203
2	806	1067.518284259819	204
2	809	1072.784508580131	205
2	812	1075.601192848258	206
2	813	1076.757859470249	207
2	816	1081.361147472742	208
2	819	1087.540748872204	209
2	820	1097.864557968124	210
2	821	1098.38075783442	211
2	822	1099.782466775557	212
2	823	1101.53413430785	213
2	824	1104.884991282946	214
2	840	1120.602491468421	215
2	841	1120.695828294022	216
2	842	1124.282455130641	217
2	843	1125.003828765477	218
2	844	1129.925532281743	219
2	897	1185.868681340108	220
2	898	1187.019063788379	221
2	899	1187.31486580724	222
2	900	1187.837799706142	223
2	903	1190.024276378093	224
2	910	1201.248837019309	225
2	915	1206.328510759279	226
2	916	1207.071772936943	227
2	917	1213.257149535403	228
2	918	1213.693456330583	229
2	922	1219.124854008088	230
2	925	1230.44597912755	231
2	929	1238.488981198072	232
2	930	1242.194042345243	233
2	931	1244.377995073149	234
2	932	1247.681404740773	235
2	935	1250.094957717965	236
2	944	1255.397870789416	237
2	945	1257.848112834664	238
2	946	1260.364158385926	239
2	960	1278.009342047328	240
2	973	1290.932604384602	241
2	974	1291.842969690444	242
2	975	1292.229402181506	243
2	976	1294.370562075451	244
2	977	1295.007567518404	245
2	978	1299.235291040549	246
2	979	1302.127194670908	247
2	984	1310.401843272475	248
2	996	1331.662658308725	249
2	1001	1335.620660391021	250
2	1002	1336.48126318276	251
2	1009	1342.538862765588	252
2	1010	1344.237213195204	253
2	1011	1345.47453569723	254
2	1012	1345.865018269577	255
2	1017	1348.998948957158	256
2	1018	1351.984031847963	257
2	1019	1354.029197765599	258
2	1026	1358.404232876109	259
2	1027	1358.683824117945	260
2	1033	1362.93495184792	261
2	1034	1363.672700798019	262
2	1035	1364.067253857826	263
2	1036	1365.68106607744	264
2	1039	1369.528802518085	265
2	1044	1372.377119746711	266
2	1045	1373.318771050307	267
2	1046	1374.506399828031	268
2	1047	1375.428112371153	269
2	1054	1382.563684818448	270
2	1057	1383.238007541102	271
2	1060	1395.143092782504	272
2	1065	1402.620631496892	273
2	1068	1408.47572556006	274
2	1071	1411.866474926111	275
2	1075	1416.649673320559	276
2	1076	1417.589010625134	277
2	1077	1417.795286832231	278
2	1087	1432.717836141107	279
2	1088	1434.363121170787	280
2	1091	1436.313039494583	281
2	1094	1439.122589619455	282
2	1095	1442.994962119138	283
2	1096	1446.800917045611	284
2	1097	1450.312982977722	285
2	1098	1450.527652963568	286
2	1099	1452.387568237946	287
2	1109	1459.420771830405	288
2	1110	1461.064246145693	289
2	1111	1461.230259906726	290
2	1112	1463.675791243258	291
2	1113	1463.793012047798	292
2	1114	1469.505066067734	293
2	1115	1470.121183905976	294
2	1116	1472.980203189394	295
2	1117	1473.06981809935	296
2	1118	1474.895337002751	297
2	1119	1475.80236464272	298
2	1120	1476.272562587528	299
2	1121	1480.128916765614	300
2	1122	1486.16728537861	301
2	1123	1487.106878151642	302
2	1124	1490.430544390856	303
2	1125	1492.824014826529	304
2	1126	1499.044401121156	305
2	1131	1502.550774238688	306
2	1132	1502.978642092904	307
2	1139	1507.22811731929	308
2	1142	1512.100158069914	309
2	1163	1545.051706643589	310
2	1171	1550.75692266799	311
2	1176	1561.305891687265	312
2	1179	1564.66588645147	313
2	1182	1569.600426803658	314
2	1183	1573.029468983	315
2	1184	1574.326649328993	316
2	1185	1574.985258942142	317
2	1192	1575.636504090993	318
2	1210	1600.355200814059	319
2	1211	1601.199876520484	320
2	1212	1603.529220453989	321
2	1213	1605.092299974594	322
2	1216	1608.39308325161	323
2	1217	1613.710170383333	324
2	1229	1625.829649534257	325
2	1232	1626.975351925027	326
2	1233	1629.569730466528	327
2	1234	1631.61903879182	328
2	1235	1636.494158081319	329
2	1236	1638.674483077439	330
2	1243	1650.217944557406	331
2	1244	1652.734469113542	332
2	1247	1655.892866144894	333
2	1250	1657.209433531426	334
2	1251	1657.391301107137	335
2	1260	1661.130085104905	336
2	1261	1664.468329996694	337
2	1262	1664.49918002214	338
2	1263	1665.234322109541	339
2	1264	1668.123914954441	340
2	1265	1668.887714646811	341
2	1271	1675.211294901783	342
2	1274	1682.71942941581	343
2	1275	1684.088003025015	344
2	1276	1687.064263967387	345
2	1277	1688.609306756536	346
2	1280	1690.752097647955	347
2	1281	1691.979118894738	348
2	1284	1696.290298619382	349
2	1287	1697.962580273839	350
2	1288	1698.619275469223	351
2	1289	1699.032113013282	352
2	1292	1704.850030443438	353
2	1293	1705.246758906204	354
2	1294	1705.39621084521	355
2	1295	1710.918769662974	356
2	1296	1711.391099417063	357
2	1299	1720.842602746819	358
2	1304	1724.540101443748	359
2	1305	1725.667878901565	360
2	1310	1731.2326559979	361
2	1311	1737.061102153808	362
2	1314	1738.271778745116	363
2	1317	1748.562184482971	364
2	1320	1751.614049123532	365
2	1326	1765.952820231384	366
2	1329	1773.885521210108	367
2	1343	1794.845638958824	368
2	1346	1796.517032072459	369
2	1349	1799.05851000591	370
2	1350	1801.544868388583	371
2	1351	1803.695629037667	372
2	1352	1806.753670349149	373
2	1353	1808.361656897428	374
2	1356	1809.056093308761	375
2	1359	1816.873296489809	376
2	1364	1819.70492005077	377
2	1365	1821.072677177503	378
2	1368	1821.511441045274	379
2	1378	1837.774082111528	380
2	1379	1838.207393629355	381
2	1383	1842.323038128546	382
2	1388	1848.882447877976	383
2	1393	1851.459173566042	384
2	1398	1854.575942863241	385
2	1401	1855.048807030181	386
2	1404	1856.26709520144	387
2	1405	1857.110667537617	388
2	1406	1858.739838279601	389
2	1409	1859.477760327655	390
2	1420	1876.015652115745	391
2	1425	1878.245312005801	392
2	1447	1913.579229637576	393
2	1450	1914.518038539768	394
2	1453	1919.905613368553	395
2	1454	1922.154384896671	396
2	1455	1925.411987228471	397
2	1460	1930.685166118334	398
2	1463	1931.748521306888	399
2	1464	1940.141428775	400
2	1465	1941.118643544928	401
2	1466	1942.656067053222	402
2	1467	1944.94396759035	403
2	1468	1945.207081372401	404
2	1473	1947.473891164683	405
2	1482	1959.286457018959	406
2	1483	1961.11257312654	407
2	1486	1963.249454959273	408
2	1487	1965.035692756433	409
2	1488	1965.283816744355	410
2	1489	1965.835501849207	411
2	1490	1966.960319034949	412
2	1491	1968.382355726949	413
2	1496	1975.808733298863	414
2	1499	1984.13960800041	415
2	1507	1989.819493860756	416
2	1508	1992.54453796631	417
2	1509	1996.201329909125	418
2	1512	2001.629810710133	419
2	1515	2003.193765592312	420
2	1520	2021.687706414961	421
2	1544	2052.580187587503	422
2	1545	2053.939355181955	423
2	1550	2058.503555947229	424
2	1553	2060.413530139739	425
2	1554	2062.194470439685	426
2	1559	2065.260423144625	427
2	1580	2077.465191351182	428
2	1583	2082.062139824286	429
2	1584	2084.159090265063	430
2	1589	2091.437143227605	431
2	1592	2094.931618874457	432
2	1596	2100.270123401948	433
2	1597	2102.565141551643	434
2	1600	2106.431159510972	435
2	1601	2107.467806547299	436
2	1602	2107.610897298002	437
2	1603	2111.074840478342	438
2	1604	2113.548431736678	439
2	1609	2119.386607051413	440
2	1612	2119.651558231787	441
2	1625	2137.011806956838	442
2	1626	2137.257062155321	443
2	1631	2142.397896776184	444
2	1635	2148.691031594523	445
2	1644	2163.573902887774	446
2	1645	2164.654420766797	447
2	1648	2167.379792250814	448
2	1649	2169.251232772937	449
2	1650	2170.028154473587	450
2	1651	2173.800819227668	451
2	1657	2185.443193926564	452
2	1660	2192.857213509152	453
2	1661	2193.885694693448	454
2	1664	2196.07898671887	455
2	1667	2199.63320784674	456
2	1675	2206.766974903673	457
2	1676	2208.300647511979	458
2	1683	2216.228962885323	459
2	1689	2220.157095291196	460
2	1690	2227.694550240851	461
2	1691	2229.072649545875	462
2	1692	2232.217943892705	463
2	1693	2232.694122157109	464
2	1694	2233.541932298805	465
2	1695	2233.741089847915	466
2	1698	2243.867464421456	467
2	1701	2248.556706727808	468
2	1714	2264.963617172063	469
2	1715	2266.630186310161	470
2	1716	2266.778538864038	471
2	1719	2269.483491655629	472
2	1730	2286.588664506197	473
2	1733	2290.325341370317	474
2	1736	2293.470596022473	475
2	1748	2302.650136012943	476
2	1749	2303.153205708794	477
2	1750	2304.747169882544	478
2	1802	2363.933758723087	479
2	1803	2367.111679281092	480
2	1807	2377.891075208145	481
2	1808	2378.463515652862	482
2	1811	2382.990011131308	483
2	1812	2383.865446767994	484
2	1815	2385.278799051605	485
2	1816	2391.921607854239	486
2	1825	2402.152545667528	487
2	1826	2402.371992407842	488
2	1830	2410.788549057327	489
2	1831	2412.344611374206	490
2	1836	2418.069064738859	491
2	1837	2420.836731173161	492
2	1856	2432.505162644473	493
2	1862	2435.165467158541	494
2	1863	2436.815236884831	495
2	1864	2437.811759327748	496
2	1865	2438.885022349186	497
2	1866	2438.946688293484	498
2	1867	2442.348491489923	499
2	1868	2445.71108338753	500
2	1869	2449.456899536944	501
2	1870	2451.979812566094	502
2	1873	2463.355078368801	503
2	1894	2488.807680555161	504
2	1901	2496.303979295463	505
2	1902	2496.774067086741	506
3	246	351.763823383332	14.963029272636
3	249	356.859024593979	19.250946379468
3	250	360.710212269982	15.585279073489
3	251	361.841801950863	10.20400202407
3	258	372.390588398132	20.573889994191
3	272	381.623544663559	13.100859840015
3	279	391.95467928158	20.261919107825
3	280	394.204156142388	21.600787323171
3	283	397.582283796993	23.709134604229
3	284	397.626239503698	22.234924454816
3	285	398.834291736782	23.117329882371
3	288	401.062700665331	21.970321340574
3	289	402.373485323728	23.050559517757
3	290	402.510513642805	17.545027129782
3	291	402.757498062933	16.429186161163
3	292	404.707687331849	13.404917981037
3	297	407.142901023009	10.223026213937
3	298	407.469745209115	8.346747516198
3	299	408.013571597188	1.265486412391
3	300	408.410879760278	1.317918394474
3	303	414.083170042723	1.049684631507
3	313	435.252077559315	11.162324225278
3	316	440.761252829909	14.67690819416
3	317	440.808160417011	6.29988119355
3	318	442.159055262272	4.244368098198
3	321	443.762996359049	0.532423701389
3	324	448.193783265819	1.25024850097
3	329	454.386424024898	3.969801843606
3	339	475.22571735103	17.690354129133
3	340	475.87134903284	18.105341445297
3	341	475.968013022524	15.322856877652
3	345	478.895365156439	2.346576751795
3	348	485.974918989369	1.91818158572
3	360	497.761188466923	11.403873295925
3	363	501.706757855762	12.199736502458
3	364	502.173318046886	8.97252309161
3	367	506.624586853791	10.885700944312
3	368	508.560131536564	10.273471516064
3	369	509.388359742757	4.593673844156
3	375	523.198337277805	3.836571829242
3	378	524.694297760549	1.096701840398
3	388	535.947233935956	10.02043260432
3	393	537.59282741108	8.325126516685
3	400	551.734076688948	16.948921945251
3	405	554.451136028203	17.953408731697
3	406	559.13565172117	21.970763179973
3	407	559.667900461493	14.72188625843
3	423	591.742291489913	40.544584162774
3	426	596.915092166292	42.62031143009
3	431	598.995293681022	44.665750008505
3	432	602.902729411213	38.602169021595
3	433	613.280614219189	47.244310462796
3	434	613.464627024847	44.710412922496
3	435	614.009275710966	43.626660826089
3	436	615.501354692133	43.111313912465
3	437	615.927581423985	39.996907482156
3	440	618.82856162947	38.264261185313
3	444	622.083132429866	25.029584934046
3	447	625.104837308228	27.199752004355
3	453	630.521757532361	11.510658885973
3	454	640.86037746345	17.98509349341
3	455	642.49932759044	17.147842169826
3	456	642.778904283047	15.467144995057
3	461	649.767870995441	0.979470331767
3	464	653.72524134815	4.234250827519
3	465	655.561365014416	2.974349728175
3	510	727.163011563481	70.615652582464
3	518	741.437863292337	76.574876398638
3	521	748.655422813505	79.696249630978
3	522	750.172363666502	81.137622413633
3	523	752.256155026537	72.251812398166
3	524	752.308729081376	71.797378509502
3	527	757.992538373975	57.85048723511
3	535	763.582801187983	54.10273618572
3	546	783.605053713139	67.142712659274
3	549	784.643130024249	56.364348179476
3	552	790.2256767651	57.054714065608
3	553	790.807727767158	56.896755635733
3	554	792.918415436252	44.633841171295
3	557	793.883448933324	40.486603845677
3	558	795.246875825527	36.250201997639
3	565	800.944106139237	41.711212271932
3	566	805.336647230651	44.525383977724
3	571	810.640664323732	43.983964997467
3	572	814.522918139525	45.904476816986
3	582	828.932924866266	49.482709463479
3	583	828.979551018136	44.576662898711
3	595	837.80434954316	44.00558477702
3	610	855.152584175961	55.163314206739
3	611	856.66801586342	48.465531420675
3	616	860.143908296387	49.582204907055
3	628	870.415133008965	53.059967626006
3	629	872.109299147071	53.125834744166
3	632	877.347278771055	51.075675021171
3	639	882.138164797715	51.841890693103
3	646	886.79760893828	55.959248235768
3	647	888.507894390958	54.848528138755
3	658	901.007962744472	66.587963407893
3	661	902.297513332713	67.048908928441
3	662	904.438753388668	62.361884464943
3	663	905.94272740425	63.249092539593
3	668	913.760222743264	70.392522733982
3	673	918.083470976155	69.357068857687
3	674	919.701419679862	68.92064000062
3	678	923.13049743981	64.860023487499
3	681	925.624834092631	66.05876066289
3	682	927.43171413369	66.168450767052
3	683	929.263698004737	65.424676215977
3	686	929.872394687273	63.348876163285
3	695	936.680738669687	66.328379530242
3	696	940.187358101845	66.327957712651
3	699	941.845986626654	61.013032189923
3	700	942.856477545795	61.309219877546
3	701	943.453210603665	61.846331741967
3	704	945.091861788418	62.545112163223
3	707	946.53922370123	63.804216994695
3	710	949.056662483211	64.913392916791
3	711	950.495555720803	61.195801431791
3	716	960.787272055318	71.269515913855
3	719	970.389577153981	76.339256948001
3	720	972.857367007215	77.523630077903
3	721	973.611715990829	76.935173295964
3	724	984.43242164127	82.841961513469
3	725	984.732814870287	78.368040973644
3	726	985.295386657431	73.900588035959
3	729	988.157329023248	74.292557795035
3	730	988.964519917217	71.293264428306
3	733	991.482513315546	70.989357871299
3	734	992.255975563177	69.09803552981
3	735	994.762140646429	64.956793585242
3	740	1001.154148665793	69.502328762189
3	745	1004.381057994755	71.026766754871
3	748	1007.559073559924	65.763307564624
3	751	1008.120579182166	64.386962136727
3	760	1018.082579312074	72.000094584926
3	763	1018.575392432303	70.081361267866
3	770	1025.076295772204	68.410472481938
3	771	1028.869088638904	69.749311854361
3	774	1030.246758543102	60.540251130851
3	777	1032.513185280656	51.560078422131
3	778	1033.768056076674	48.394751517585
3	779	1035.47170692089	45.349516425869
3	780	1041.176527652522	45.720987227549
3	783	1047.316596470213	46.203337093794
3	786	1048.793068553032	45.964284569078
3	791	1052.703120425687	49.164827790758
3	796	1055.996627510606	50.000219042149
3	806	1067.518284259819	59.178182483189
3	809	1072.784508580131	64.305104177159
3	812	1075.601192848258	65.92535066638
3	813	1076.757859470249	65.597551966795
3	816	1081.361147472742	63.167258893848
3	819	1087.540748872204	67.460567073607
3	820	1097.864557968124	73.460299513945
3	821	1098.38075783442	73.496602409721
3	822	1099.782466775557	69.902235704735
3	823	1101.53413430785	70.58016143924
3	824	1104.884991282946	58.132415056627
3	840	1120.602491468421	71.492538046553
3	841	1120.695828294022	68.00395918736
3	842	1124.282455130641	70.907322543003
3	843	1125.003828765477	69.385550142417
3	844	1129.925532281743	71.697184371651
3	897	1185.868681340108	116.23557841207
3	898	1187.019063788379	113.5938567225
3	899	1187.31486580724	109.70752669306
3	900	1187.837799706142	101.35361874786
3	903	1190.024276378093	84.906343508547
3	910	1201.248837019309	92.887054268117
3	915	1206.328510759279	96.57615052507
3	916	1207.071772936943	93.970585315207
3	917	1213.257149535403	99.130736055437
3	918	1213.693456330583	98.098934553286
3	922	1219.124854008088	86.430257289332
3	925	1230.44597912755	94.337171543812
3	929	1238.488981198072	99.664298269302
3	930	1242.194042345243	102.50935653274
3	931	1244.377995073149	98.617930684515
3	932	1247.681404740773	96.676599897778
3	935	1250.094957717965	97.626358578029
3	944	1255.397870789416	102.89416315198
3	945	1257.848112834664	98.179759798287
3	946	1260.364158385926	100.23293275841
3	960	1278.009342047328	113.49618280515
3	973	1290.932604384602	126.18859287648
3	974	1291.842969690444	122.90111618396
3	975	1292.229402181506	115.31310252131
3	976	1294.370562075451	111.14402805301
3	977	1295.007567518404	106.56598741387
3	978	1299.235291040549	107.16288700906
3	979	1302.127194670908	109.4676976553
3	984	1310.401843272475	110.98408177235
3	996	1331.662658308725	125.7106047221
3	1001	1335.620660391021	119.32934618793
3	1002	1336.48126318276	112.93659209399
3	1009	1342.538862765588	111.78374680537
3	1010	1344.237213195204	94.262517342976
3	1011	1345.47453569723	94.824836465067
3	1012	1345.865018269577	94.346024874116
3	1017	1348.998948957158	97.359303209419
3	1018	1351.984031847963	97.641290181651
3	1019	1354.029197765599	90.469117546436
3	1026	1358.404232876109	91.384888571299
3	1027	1358.683824117945	90.544469951123
3	1033	1362.93495184792	89.05897623098
3	1034	1363.672700798019	86.917864868457
3	1035	1364.067253857826	80.508057749965
3	1036	1365.68106607744	80.745121946002
3	1039	1369.528802518085	84.358926712088
3	1044	1372.377119746711	86.671099883366
3	1045	1373.318771050307	83.439206651137
3	1046	1374.506399828031	83.760886463928
3	1047	1375.428112371153	69.491819784838
3	1054	1382.563684818448	76.402756724544
3	1057	1383.238007541102	66.99398234791
3	1060	1395.143092782504	77.78123754329
3	1065	1402.620631496892	84.824958033227
3	1068	1408.47572556006	89.526782734649
3	1071	1411.866474926111	82.659176231316
3	1075	1416.649673320559	81.783465985622
3	1076	1417.589010625134	79.982678125757
3	1077	1417.795286832231	79.710701659711
3	1087	1432.717836141107	85.856226930866
3	1088	1434.363121170787	87.276497538222
3	1091	1436.313039494583	81.39181098373
3	1094	1439.122589619455	84.167014223614
3	1095	1442.994962119138	86.233108960407
3	1096	1446.800917045611	86.489119054893
3	1097	1450.312982977722	88.626627552553
3	1098	1450.527652963568	81.919134298062
3	1099	1452.387568237946	81.317045087074
3	1109	1459.420771830405	83.775772889859
3	1110	1461.064246145693	84.158917895112
3	1111	1461.230259906726	83.473762688162
3	1112	1463.675791243258	81.051372327871
3	1113	1463.793012047798	69.975787710593
3	1114	1469.505066067734	71.822645519112
3	1115	1470.121183905976	72.382968581331
3	1116	1472.980203189394	68.913139506589
3	1117	1473.06981809935	61.794222789363
3	1118	1474.895337002751	61.752295810011
3	1119	1475.80236464272	56.582567164682
3	1120	1476.272562587528	54.531523827067
3	1121	1480.128916765614	50.972590277552
3	1122	1486.16728537861	55.893568376677
3	1123	1487.106878151642	52.580737234728
3	1124	1490.430544390856	53.472927863142
3	1125	1492.824014826529	37.449055735605
3	1126	1499.044401121156	42.139565991905
3	1131	1502.550774238688	43.221329617011
3	1132	1502.978642092904	43.605621542037
3	1139	1507.22811731929	7.372300248275
3	1142	1512.100158069914	11.489058191986
3	1163	1545.051706643589	39.656293154772
3	1171	1550.75692266799	40.81802773287
3	1176	1561.305891687265	48.692059100372
3	1179	1564.66588645147	51.180979431236
3	1182	1569.600426803658	47.861291067484
3	1183	1573.029468983	49.014190610589
3	1184	1574.326649328993	45.714950333272
3	1185	1574.985258942142	41.683209855195
3	1192	1575.636504090993	39.666024284303
3	1210	1600.355200814059	54.836452106191
3	1211	1601.199876520484	55.290574678832
3	1212	1603.529220453989	54.093560312479
3	1213	1605.092299974594	49.824446896876
3	1216	1608.39308325161	49.897942429253
3	1217	1613.710170383333	50.35597228386
3	1229	1625.829649534257	50.827227480101
3	1232	1626.975351925027	51.83957461224
3	1233	1629.569730466528	53.986303079525
3	1234	1631.61903879182	53.28683747068
3	1235	1636.494158081319	57.896698752888
3	1236	1638.674483077439	58.752377205438
3	1243	1650.217944557406	65.924257525829
3	1244	1652.734469113542	65.978877509859
3	1247	1655.892866144894	62.889498713466
3	1250	1657.209433531426	60.975058514733
3	1251	1657.391301107137	57.468403524093
3	1260	1661.130085104905	53.947408296076
3	1261	1664.468329996694	49.820785218831
3	1262	1664.49918002214	49.533537335683
3	1263	1665.234322109541	46.132546872169
3	1264	1668.123914954441	45.630598469587
3	1265	1668.887714646811	45.204916620347
3	1271	1675.211294901783	35.721385363466
3	1274	1682.71942941581	37.459305748464
3	1275	1684.088003025015	37.777171070236
3	1276	1687.064263967387	31.852819238975
3	1277	1688.609306756536	32.047262192197
3	1280	1690.752097647955	32.99030195941
3	1281	1691.979118894738	33.457108314892
3	1284	1696.290298619382	36.87836893916
3	1287	1697.962580273839	37.498056568926
3	1288	1698.619275469223	29.491748884773
3	1289	1699.032113013282	26.035097150342
3	1292	1704.850030443438	25.82703475259
3	1293	1705.246758906204	16.408430031328
3	1294	1705.39621084521	12.370224330351
3	1295	1710.918769662974	13.497832437647
3	1296	1711.391099417063	7.657481009662
3	1299	1720.842602746819	0.357185693299
3	1304	1724.540101443748	3.138468790903
3	1305	1725.667878901565	2.411228899191
3	1310	1731.2326559979	4.715084389882
3	1311	1737.061102153808	8.498758364707
3	1314	1738.271778745116	0.399728171289
3	1317	1748.562184482971	2.444888507259
3	1320	1751.614049123532	1.478532184652
3	1326	1765.952820231384	4.04627905519
3	1329	1773.885521210108	1.600340053167
3	1343	1794.845638958824	5.636230750361
3	1346	1796.517032072459	7.082505858399
3	1349	1799.05851000591	8.886693321849
3	1350	1801.544868388583	9.686865641346
3	1351	1803.695629037667	10.009279445611
3	1352	1806.753670349149	11.245657501636
3	1353	1808.361656897428	9.523587066072
3	1356	1809.056093308761	0.478422772986
3	1359	1816.873296489809	4.340250363686
3	1364	1819.70492005077	0.685882336259
3	1365	1821.072677177503	1.884500040204
3	1368	1821.511441045274	0.152432014141
3	1378	1837.774082111528	11.573237853773
3	1379	1838.207393629355	9.212287900007
3	1383	1842.323038128546	3.822389484695
3	1388	1848.882447877976	4.562410662284
3	1393	1851.459173566042	2.828202715819
3	1398	1854.575942863241	5.463666702019
3	1401	1855.048807030181	4.351142964249
3	1404	1856.26709520144	4.488436598598
3	1405	1857.110667537617	4.098420109866
3	1406	1858.739838279601	4.038530498356
3	1409	1859.477760327655	4.399096434102
3	1420	1876.015652115745	5.153245368599
3	1425	1878.245312005801	4.860310000915
3	1447	1913.579229637576	36.034527652977
3	1450	1914.518038539768	34.123857468268
3	1453	1919.905613368553	38.409452599434
3	1454	1922.154384896671	29.299549272497
3	1455	1925.411987228471	27.063219008589
3	1460	1930.685166118334	31.901688389837
3	1463	1931.748521306888	32.327476596786
3	1464	1940.141428775	37.308386952907
3	1465	1941.118643544928	37.877228973758
3	1466	1942.656067053222	28.991387490337
3	1467	1944.94396759035	26.988734551718
3	1468	1945.207081372401	17.079963727831
3	1473	1947.473891164683	19.094788918109
3	1482	1959.286457018959	27.905563698904
3	1483	1961.11257312654	14.024011173865
3	1486	1963.249454959273	15.847497766275
3	1487	1965.035692756433	16.731031112419
3	1488	1965.283816744355	14.060434850234
3	1489	1965.835501849207	14.218290289967
3	1490	1966.960319034949	11.500919978452
3	1491	1968.382355726949	6.151175916456
3	1496	1975.808733298863	5.590769342176
3	1499	1984.13960800041	9.356568540885
3	1507	1989.819493860756	2.879741930748
3	1508	1992.54453796631	4.657980724322
3	1509	1996.201329909125	6.785444303881
3	1512	2001.629810710133	2.458481573673
3	1515	2003.193765592312	1.244473117251
3	1520	2021.687706414961	8.17834439748
3	1544	2052.580187587503	27.108863617654
3	1545	2053.939355181955	17.281963810203
3	1550	2058.503555947229	20.894892020716
3	1553	2060.413530139739	13.824880035762
3	1554	2062.194470439685	12.632454001329
3	1559	2065.260423144625	9.855917056601
3	1580	2077.465191351182	18.23992931402
3	1583	2082.062139824286	19.100847162672
3	1584	2084.159090265063	19.391884946169
3	1589	2091.437143227605	23.563533825002
3	1592	2094.931618874457	26.396848220555
3	1596	2100.270123401948	30.009018596646
3	1597	2102.565141551643	32.069502300376
3	1600	2106.431159510972	32.847633192442
3	1601	2107.467806547299	32.563063788476
3	1602	2107.610897298002	31.361218292445
3	1603	2111.074840478342	33.311174950987
3	1604	2113.548431736678	25.128607335209
3	1609	2119.386607051413	29.81601107691
3	1612	2119.651558231787	26.980323128699
3	1625	2137.011806956838	41.8830394404
3	1626	2137.257062155321	33.244429380158
3	1631	2142.397896776184	24.611944451444
3	1635	2148.691031594523	29.257371915651
3	1644	2163.573902887774	42.758226168675
3	1645	2164.654420766797	37.893307151151
3	1648	2167.379792250814	39.6044607276
3	1649	2169.251232772937	35.151680536864
3	1650	2170.028154473587	34.788514404351
3	1651	2173.800819227668	34.401621663808
3	1657	2185.443193926564	41.580370549282
3	1660	2192.857213509152	43.934276042345
3	1661	2193.885694693448	37.819342199506
3	1664	2196.07898671887	28.813908878535
3	1667	2199.63320784674	16.589002531003
3	1675	2206.766974903673	15.997884310489
3	1676	2208.300647511979	12.471488328795
3	1683	2216.228962885323	18.999509647755
3	1689	2220.157095291196	17.722051887564
3	1690	2227.694550240851	23.086383834383
3	1691	2229.072649545875	19.994088394652
3	1692	2232.217943892705	21.801755124094
3	1693	2232.694122157109	18.852440305934
3	1694	2233.541932298805	16.753488170762
3	1695	2233.741089847915	13.883822922073
3	1698	2243.867464421456	2.51522330548
3	1701	2248.556706727808	1.661991545115
3	1714	2264.963617172063	8.744483702688
3	1715	2266.630186310161	10.103932003984
3	1716	2266.778538864038	5.990219458245
3	1719	2269.483491655629	1.504161660057
3	1730	2286.588664506197	7.392593240315
3	1733	2290.325341370317	10.635094012862
3	1736	2293.470596022473	4.659886681476
3	1748	2302.650136012943	9.08023905876
3	1749	2303.153205708794	8.626639845381
3	1750	2304.747169882544	9.981398271727
3	1802	2363.933758723087	64.25530262994
3	1803	2367.111679281092	57.058987213679
3	1807	2377.891075208145	59.796039681849
3	1808	2378.463515652862	52.279500274154
3	1811	2382.990011131308	55.796154312643
3	1812	2383.865446767994	54.710618032793
3	1815	2385.278799051605	55.79883554796
3	1816	2391.921607854239	57.364699672558
3	1825	2402.152545667528	62.215067399117
3	1826	2402.371992407842	54.781935192072
3	1830	2410.788549057327	52.397890380071
3	1831	2412.344611374206	49.639989466485
3	1836	2418.069064738859	47.850254003994
3	1837	2420.836731173161	40.484544273819
3	1856	2432.505162644473	38.406263910301
3	1862	2435.165467158541	37.554328995469
3	1863	2436.815236884831	28.054732372626
3	1864	2437.811759327748	21.703270575489
3	1865	2438.885022349186	21.190826619565
3	1866	2438.946688293484	17.604598154671
3	1867	2442.348491489923	19.402555422423
3	1868	2445.71108338753	21.944569950702
3	1869	2449.456899536944	24.962484897104
3	1870	2451.979812566094	27.255362536308
3	1873	2463.355078368801	35.952425451774
3	1894	2488.807680555161	58.761712558128
3	1901	2496.303979295463	63.552243191948
3	1902	2496.774067086741	62.243600663014
4	246	351.763823383332	14.155745168821
4	249	356.859024593979	11.734091397486
4	250	360.710212269982	9.072412343189
4	251	361.841801950863	10.025103546922
4	258	372.390588398132	7.695275126847
4	267	376.452877082859	7.930192259315
4	272	381.623544663559	9.930784489804
4	279	391.95467928158	19.351310462363
4	280	394.204156142388	20.331006949624
4	283	397.582283796993	22.190968748111
4	284	397.626239503698	21.909277649287
4	285	398.834291736782	19.741912412025
4	288	401.062700665331	21.73977485936
4	289	402.373485323728	17.407998810705
4	290	402.510513642805	16.182201741035
4	291	402.757498062933	11.454728712121
4	292	404.707687331849	7.787812522777
4	297	407.142901023009	8.019903330092
4	298	407.469745209115	0.721660024318
4	299	408.013571597188	0.920610231384
4	302	413.033485411216	0
4	310	428.285051721609	4.195298387572
4	313	435.252077559315	9.167732923566
4	316	440.761252829909	6.252973606448
4	317	440.808160417011	2.893473252937
4	320	443.23057265766	0
4	323	446.943534764849	0
4	326	450.416622181292	0
4	329	454.386424024898	2.196835950254
4	338	474.98865254556	17.453289323663
4	339	475.22571735103	17.459709763487
4	340	475.87134903284	15.226192887968
4	341	475.968013022524	12.838410915163
4	344	477.751610388222	1.202821983578
4	347	484.056737403649	0
4	350	486.029923365209	0
4	359	497.685695660876	11.328380489878
4	360	497.761188466923	8.254167113619
4	363	501.706757855762	8.505962900486
4	364	502.173318046886	6.434432137407
4	367	506.624586853791	8.337926833291
4	368	508.560131536564	3.765445637963
4	371	513.646630264471	0
4	374	521.171188623144	1.809423174581
4	377	523.597595920151	0
4	380	525.794211070307	0
4	387	535.506429871272	9.579628539636
4	388	535.947233935956	6.679533041561
4	393	537.59282741108	2.807672667383
4	400	551.734076688948	15.236349392442
4	405	554.451136028203	17.286247487006
4	406	559.13565172117	14.189637518107
4	407	559.667900461493	11.524524967567
4	422	586.878864834208	35.681157507069
4	423	591.742291489913	37.447510753711
4	426	596.915092166292	42.585548493775
4	431	598.995293681022	34.694733291404
4	432	602.902729411213	36.86642565482
4	433	613.280614219189	44.526400116838
4	434	613.464627024847	43.08201213997
4	435	614.009275710966	41.619234931298
4	436	615.501354692133	39.570680750304
4	437	615.927581423985	35.363280979828
4	440	618.82856162947	23.737419250479
4	443	621.457658757041	24.404111261221
4	444	622.083132429866	24.178047125993
4	447	625.104837308228	7.316657093721
4	450	626.379732136594	7.368633490206
4	453	630.521757532361	7.646473562321
4	454	640.86037746345	15.508892042836
4	455	642.49932759044	15.18756830245
4	458	648.788400663674	0
4	461	649.767870995441	0.27688047481
4	464	653.72524134815	1.138226061909
4	467	656.267055972851	0
4	509	725.71626145367	69.168902472653
4	510	727.163011563481	64.515691301792
4	517	740.172456031577	75.309469137878
4	518	741.437863292337	72.47869010981
4	521	748.655422813505	79.620681560636
4	522	750.172363666502	70.168021038131
4	523	752.256155026537	71.744804454663
4	524	752.308729081376	52.166677942511
4	527	757.992538373975	50.182664971251
4	532	759.796953700521	50.316888698258
4	535	763.582801187983	51.318361802753
4	542	770.52129807755	55.161890031517
4	545	783.076401160694	66.614060106829
4	546	783.605053713139	55.326271868366
4	549	784.643130024249	51.472167324757
4	552	790.2256767651	56.314704633675
4	553	790.807727767158	42.523153502201
4	554	792.918415436252	39.521570348605
4	557	793.883448933324	34.886775105436
4	558	795.246875825527	36.013981958222
4	565	800.944106139237	40.13284288631
4	566	805.336647230651	38.679947904386
4	571	810.640664323732	42.022223001193
4	572	814.522918139525	45.209213628817
4	581	828.467569237987	49.0173538352
4	582	828.932924866266	44.530036746841
4	583	828.979551018136	41.376515537984
4	594	837.755112640667	43.956347874527
4	595	837.80434954316	41.528965482707
4	604	850.587979110059	53.195351760885
4	609	853.471295946451	53.482025977229
4	610	855.152584175961	46.950099733216
4	611	856.66801586342	46.106312474088
4	616	860.143908296387	44.516533089264
4	625	869.230322184583	51.875156801624
4	628	870.415133008965	51.43166860606
4	629	872.109299147071	45.837695397187
4	632	877.347278771055	47.051004666443
4	639	882.138164797715	51.299804095203
4	646	886.79760893828	53.138242686077
4	647	888.507894390958	54.087895054379
4	658	901.007962744472	65.7593583402
4	661	902.297513332713	60.220644408988
4	662	904.438753388668	61.745118524011
4	663	905.94272740425	62.575027394968
4	668	913.760222743264	65.033820624796
4	673	918.083470976155	67.302691296913
4	674	919.701419679862	66.592332756736
4	677	922.557309556843	64.286835604532
4	678	923.13049743981	63.564424010069
4	681	925.624834092631	64.361570725993
4	682	927.43171413369	63.59269234493
4	683	929.263698004737	62.740179480749
4	686	929.872394687273	62.168273304643
4	694	934.487167339232	64.134808199787
4	695	936.680738669687	62.821338280493
4	696	940.187358101845	59.354403665114
4	699	941.845986626654	60.298728958405
4	700	942.856477545795	61.249598684097
4	701	943.453210603665	60.90646097847
4	704	945.091861788418	62.356855081883
4	707	946.53922370123	62.39595413481
4	710	949.056662483211	59.756908194199
4	711	950.495555720803	60.97779957934
4	716	960.787272055318	66.736951849338
4	719	970.389577153981	75.055840224669
4	720	972.857367007215	76.18082431235
4	721	973.611715990829	72.021255863028
4	724	984.43242164127	78.067647744627
4	725	984.732814870287	73.338016248815
4	726	985.295386657431	71.430615429218
4	729	988.157329023248	70.486073534337
4	730	988.964519917217	68.47136447297
4	733	991.482513315546	68.324573282179
4	734	992.255975563177	62.45062850199
4	735	994.762140646429	63.110320742825
4	740	1001.154148665793	67.799857425909
4	745	1004.381057994755	62.585291999455
4	748	1007.559073559924	63.825456514485
4	751	1008.120579182166	62.038094455018
4	760	1018.082579312074	69.588548147637
4	763	1018.575392432303	61.909569142037
4	770	1025.076295772204	65.956518987661
4	771	1028.869088638904	59.162581226653
4	774	1030.246758543102	49.293651684577
4	777	1032.513185280656	47.139880721567
4	778	1033.768056076674	43.645865581653
4	779	1035.47170692089	40.016166495917
4	780	1041.176527652522	40.063268276103
4	783	1047.316596470213	44.487812486259
4	786	1048.793068553032	45.254775918103
4	791	1052.703120425687	46.70671195723
4	796	1055.996627510606	48.337374292036
4	803	1065.759693866257	57.419592089627
4	806	1067.518284259819	59.038879856847
4	809	1072.784508580131	63.108666398253
4	812	1075.601192848258	64.440885344804
4	813	1076.757859470249	58.563970891355
4	816	1081.361147472742	61.280965674145
4	819	1087.540748872204	63.136490418025
4	820	1097.864557968124	72.980402543425
4	821	1098.38075783442	68.500526763598
4	822	1099.782466775557	68.828493906947
4	823	1101.53413430785	54.781558081531
4	824	1104.884991282946	56.270016201919
4	837	1115.656707159248	66.54675373738
4	840	1120.602491468421	67.910622361759
4	841	1120.695828294022	67.320695706384
4	842	1124.282455130641	68.664176507581
4	843	1125.003828765477	66.775480855385
4	844	1129.925532281743	71.406601492155
4	847	1134.376552513114	69.295406277726
4	891	1176.203307319422	109.86239168073
4	896	1185.612073974925	115.97897104689
4	897	1185.868681340108	112.44347427423
4	898	1187.019063788379	109.4117246742
4	899	1187.31486580724	100.83068484896
4	900	1187.837799706142	82.719866836596
4	903	1190.024276378093	81.662493626901
4	910	1201.248837019309	91.4964767851
4	915	1206.328510759279	93.227323137543
4	916	1207.071772936943	92.945359456977
4	917	1213.257149535403	97.662627758106
4	918	1213.693456330583	95.698191750842
4	921	1217.466512215077	84.771915496321
4	922	1219.124854008088	83.01604642435
4	925	1230.44597912755	93.287947951432
4	928	1234.266874963928	95.442192035158
4	929	1238.488981198072	98.80429538557
4	930	1242.194042345243	96.433977956609
4	931	1244.377995073149	93.373190230154
4	932	1247.681404740773	95.212805600837
4	935	1250.094957717965	97.591250080528
4	944	1255.397870789416	95.729517753039
4	945	1257.848112834664	97.716887207145
4	946	1260.364158385926	98.610829564223
4	959	1277.089681267859	112.57652202568
4	960	1278.009342047328	113.2653305392
4	973	1290.932604384602	121.99075087812
4	974	1291.842969690444	114.92667003025
4	975	1292.229402181506	109.00286815906
4	976	1294.370562075451	105.92898197092
4	977	1295.007567518404	102.93516348691
4	978	1299.235291040549	106.57579402494
4	979	1302.127194670908	102.70943317078
4	984	1310.401843272475	109.01141179329
4	993	1328.03107468209	122.07902109547
4	996	1331.662658308725	115.37134410564
4	1001	1335.620660391021	112.07598930225
4	1002	1336.48126318276	105.72614722255
4	1009	1342.538862765588	92.56416691336
4	1010	1344.237213195204	93.587513963041
4	1011	1345.47453569723	93.955542301769
4	1012	1345.865018269577	94.225372521838
4	1017	1348.998948957158	94.656207290846
4	1018	1351.984031847963	88.4239516288
4	1019	1354.029197765599	87.009853460789
4	1026	1358.404232876109	90.264878709287
4	1027	1358.683824117945	86.001354792614
4	1032	1362.017841407566	88.141865790626
4	1033	1362.93495184792	86.180115918358
4	1034	1363.672700798019	80.113504690158
4	1035	1364.067253857826	79.131309726388
4	1036	1365.68106607744	80.511190271443
4	1039	1369.528802518085	83.82278265474
4	1044	1372.377119746711	82.497555347541
4	1045	1373.318771050307	82.573257686204
4	1046	1374.506399828031	68.570107241716
4	1047	1375.428112371153	69.267184277249
4	1054	1382.563684818448	66.319659625256
4	1057	1383.238007541102	65.876152301888
4	1060	1395.143092782504	77.347419318839
4	1065	1402.620631496892	83.671688671481
4	1068	1408.47572556006	79.268426865265
4	1071	1411.866474926111	77.935408569324
4	1074	1414.099123901939	79.232916567002
4	1075	1416.649673320559	79.043340821182
4	1076	1417.589010625134	79.504425452614
4	1077	1417.795286832231	76.719011816935
4	1086	1431.509958238804	84.648349028563
4	1087	1432.717836141107	85.631212508542
4	1088	1434.363121170787	79.441892659934
4	1091	1436.313039494583	81.357464098742
4	1094	1439.122589619455	82.360736460724
4	1095	1442.994962119138	82.68316412842
4	1096	1446.800917045611	85.114561620442
4	1097	1450.312982977722	81.704464312216
4	1098	1450.527652963568	79.457129812696
4	1099	1452.387568237946	81.060536983373
4	1104	1457.953797209876	82.30879826933
4	1109	1459.420771830405	82.515443579824
4	1110	1461.064246145693	83.307748927129
4	1111	1461.230259906726	78.605840991339
4	1112	1463.675791243258	69.858566906053
4	1113	1463.793012047798	66.110591499176
4	1114	1469.505066067734	71.766850743089
4	1115	1470.121183905976	66.054120223171
4	1116	1472.980203189394	61.704607879407
4	1117	1473.06981809935	59.92677690661
4	1118	1474.895337002751	55.675539524713
4	1119	1475.80236464272	54.061325882259
4	1120	1476.272562587528	47.116236099466
4	1121	1480.128916765614	49.855199763681
4	1122	1486.16728537861	51.641144461696
4	1123	1487.106878151642	50.149261623928
4	1124	1490.430544390856	35.055585299932
4	1125	1492.824014826529	35.919179697278
4	1126	1499.044401121156	39.714956499479
4	1131	1502.550774238688	43.177753687821
4	1132	1502.978642092904	3.122825021889
4	1139	1507.22811731929	6.617017441362
4	1142	1512.100158069914	7.906313493136
4	1160	1542.511482998172	37.116069509355
[...]
4	1856	2432.505162644473	36.913138289547
4	1861	2434.72696948832	37.115831325248
4	1862	2435.165467158541	26.404962646336
4	1863	2436.815236884831	20.706748132572
4	1864	2437.811759327748	20.117563598127
4	1865	2438.885022349186	17.542932210373
4	1866	2438.946688293484	16.000752225984
4	1867	2442.348491489923	18.581978053095
4	1868	2445.71108338753	21.21666874769
4	1869	2449.456899536944	24.732449507158
4	1870	2451.979812566094	24.577159649067
4	1873	2463.355078368801	35.291937506193
4	1893	2484.32236483539	54.276396838357
4	1894	2488.807680555161	56.055944451646
4	1901	2496.303979295463	61.773512871736
4	1902	2496.774067086741	36.50340332954
5	264	375.391315048882	1
5	305	416.09885070976	1
5	333	457.766007587543	1
5	343	476.548788404644	1
5	352	486.357315170998	1
5	373	519.361765448563	1
5	384	529.267700894395	1
5	409	564.300560389618	1
5	442	619.011098646388	1
5	449	625.351485420614	1
5	469	656.547358981017	1
5	483	692.763323156002	2
5	488	703.740050135436	2
5	494	710.380849687831	3
5	504	720.453856391853	2
5	507	723.431017966754	2
5	516	733.910972131425	1
5	529	758.996673827888	1
5	537	766.656699326265	1
5	544	779.450215402787	1
5	578	818.983464402905	1
5	593	835.248604404272	1
5	601	843.367700009282	1
5	608	853.109086923126	1
5	620	863.83902178876	1
5	676	920.493155444247	1
5	688	931.651819903604	1
5	690	933.345352980081	2
5	800	1058.518930789588	1
5	828	1108.361782751192	1
5	846	1132.694596718756	1
5	849	1136.108807583738	1
5	851	1136.333826018112	2
5	862	1148.078871593158	2
5	876	1163.720581410365	3
5	883	1168.488416785386	3
5	889	1173.076299037651	2
5	893	1176.916299660197	1
5	920	1216.291314203088	1
5	927	1230.755115960214	1
5	954	1272.682469325331	1
5	988	1317.361855239214	1
5	1031	1361.686355425169	1
5	1073	1413.14304119274	1
5	1079	1419.219797478038	1
5	1101	1455.374959090924	1
5	1144	1512.613832586893	1
5	1152	1526.463072663728	2
5	1165	1545.518748707868	1
5	1198	1579.922105872001	1
5	1219	1614.647544777863	1
5	1267	1669.12752658445	1
5	1322	1752.69058199458	1
5	1331	1784.36714221366	1
5	1370	1826.11813210479	1
5	1381	1838.500648643851	1
5	1411	1862.163813384079	1
5	1414	1870.862406747146	1
5	1429	1881.496160769119	1
5	1431	1883.79523115591	2
5	1445	1903.24141457117	1
5	1501	1986.939751930008	1
5	1522	2024.452246727987	1
5	1526	2027.727541502782	2
5	1528	2030.661302349244	3
5	1532	2037.18732466916	4
5	1542	2049.562016438356	1
5	1571	2073.58352631853	1
5	1573	2074.263168382427	2
5	1594	2095.128767516438	1
5	1633	2143.862823377282	1
5	1637	2148.922937466807	1
5	1639	2150.669734305564	2
5	1653	2183.044205315737	1
5	1671	2202.435043403632	1
5	1685	2216.788444128043	1
5	1703	2249.729384129566	1
5	1706	2251.367958607534	1
5	1725	2279.690247357455	1
5	1727	2280.385384205945	2
5	1742	2294.765771610817	1
5	1754	2311.466960642226	1
5	1756	2314.816185985176	2
5	1759	2318.058885096036	2
5	1763	2321.349749090659	3
5	1768	2326.870960380821	3
5	1772	2327.4267847295	4
5	1774	2328.107968982309	5
5	1780	2332.981509177791	6
5	1795	2354.319388697645	2
5	1805	2370.218810734865	1
5	1828	2408.760504512205	1
5	1841	2422.9459360675	1
5	1850	2427.402652917027	1
5	1858	2432.751736103515	1
5	1879	2465.658478271555	1
5	1885	2472.320315154536	2
5	1888	2473.889202106358	2
5	1891	2478.649007051707	2
5	1904	2498.862924785266	1
6	264	375.391315048882	0
6	267	376.452877082859	0
6	305	416.09885070976	0
6	310	428.285051721609	0
6	333	457.766007587543	0
6	338	474.98865254556	0
6	343	476.548788404644	0
6	344	477.751610388222	0
6	352	486.357315170998	0
6	359	497.685695660876	0
6	373	519.361765448563	0
6	374	521.171188623144	0
6	384	529.267700894395	0
6	387	535.506429871272	0
6	409	564.300560389618	0
6	422	586.878864834208	0
6	442	619.011098646388	0
6	443	621.457658757041	0
6	449	625.351485420614	0
6	450	626.379732136594	0
6	469	656.547358981017	0
6	483	692.763323156002	1
6	484	692.864500273431	1
6	488	703.740050135436	1
6	494	710.380849687831	2
6	497	715.290266955163	2
6	500	715.422295031566	1
6	504	720.453856391853	1
6	505	722.355451729889	1
6	507	723.431017966754	1
6	508	724.458636052457	1
6	509	725.71626145367	0
6	516	733.910972131425	0
6	517	740.172456031577	0
6	529	758.996673827888	0
6	532	759.796953700521	0
6	537	766.656699326265	0
6	542	770.52129807755	0
6	544	779.450215402787	0
6	545	783.076401160694	0
6	578	818.983464402905	0
6	581	828.467569237987	0
6	593	835.248604404272	0
6	594	837.755112640667	0
6	601	843.367700009282	0
6	604	850.587979110059	0
6	608	853.109086923126	0
6	609	853.471295946451	0
6	620	863.83902178876	0
6	625	869.230322184583	0
6	676	920.493155444247	0
6	677	922.557309556843	0
6	688	931.651819903604	0
6	690	933.345352980081	1
6	693	934.431674416005	1
6	694	934.487167339232	0
6	800	1058.518930789588	0
6	803	1065.759693866257	0
6	828	1108.361782751192	0
6	837	1115.656707159248	0
6	846	1132.694596718756	0
6	847	1134.376552513114	0
6	849	1136.108807583738	0
6	851	1136.333826018112	1
6	860	1146.494912721454	1
6	862	1148.078871593158	1
6	876	1163.720581410365	2
6	881	1166.349841767036	2
6	883	1168.488416785386	2
6	886	1170.163339130812	2
6	887	1172.718694317962	1
6	889	1173.076299037651	1
6	890	1173.15964241773	1
6	891	1176.203307319422	0
6	893	1176.916299660197	0
6	896	1185.612073974925	0
6	920	1216.291314203088	0
6	921	1217.466512215077	0
6	927	1230.755115960214	0
6	928	1234.266874963928	0
6	954	1272.682469325331	0
6	959	1277.089681267859	0
6	988	1317.361855239214	0
6	993	1328.03107468209	0
6	1031	1361.686355425169	0
6	1032	1362.017841407566	0
6	1073	1413.14304119274	0
6	1074	1414.099123901939	0
6	1079	1419.219797478038	0
6	1086	1431.509958238804	0
6	1101	1455.374959090924	0
6	1104	1457.953797209876	0
6	1144	1512.613832586893	0
6	1152	1526.463072663728	1
6	1157	1533.588758894924	1
6	1160	1542.511482998172	0
6	1165	1545.518748707868	0
6	1168	1546.365434320981	0
6	1198	1579.922105872001	0
6	1207	1599.158546080068	0
6	1219	1614.647544777863	0
6	1222	1617.544838278715	0
6	1267	1669.12752658445	0
6	1270	1673.954468898264	0
6	1322	1752.69058199458	0
6	1323	1752.912652511472	0
6	1331	1784.36714221366	0
6	1342	1794.565195428115	0
6	1370	1826.11813210479	0
6	1377	1837.536494347759	0
6	1381	1838.500648643851	0
6	1382	1839.931577299194	0
6	1411	1862.163813384079	0
6	1412	1862.583255820495	0
6	1414	1870.862406747146	0
6	1419	1876.012979832493	0
6	1429	1881.496160769119	0
6	1431	1883.79523115591	1
6	1440	1900.013757905231	1
6	1441	1901.800352648649	0
6	1445	1903.24141457117	0
6	1446	1911.903692606742	0
6	1501	1986.939751930008	0
6	1504	1988.347327886568	0
6	1522	2024.452246727987	0
6	1526	2027.727541502782	1
6	1528	2030.661302349244	2
6	1532	2037.18732466916	3
6	1535	2037.748273289583	3
6	1536	2041.696824587789	2
6	1537	2042.886910112381	1
6	1538	2043.524718331723	0
6	1542	2049.562016438356	0
6	1543	2050.310073293457	0
6	1571	2073.58352631853	0
6	1573	2074.263168382427	1
6	1576	2075.684618661842	1
6	1579	2077.45716668429	0
6	1594	2095.128767516438	0
6	1595	2100.124235631169	0
6	1633	2143.862823377282	0
6	1634	2144.02732633626	0
6	1637	2148.922937466807	0
6	1639	2150.669734305564	1
6	1642	2157.828575973087	1
6	1643	2162.737954251503	0
6	1653	2183.044205315737	0
6	1656	2185.239737963008	0
6	1671	2202.435043403632	0
6	1674	2206.342482211404	0
6	1685	2216.788444128043	0
6	1686	2218.13053337151	0
6	1703	2249.729384129566	0
6	1704	2251.072627032836	0
6	1706	2251.367958607534	0
6	1711	2259.466292237981	0
6	1725	2279.690247357455	0
6	1727	2280.385384205945	1
6	1728	2280.652934238308	1
6	1729	2285.281015368432	0
6	1742	2294.765771610817	0
6	1747	2300.743067949671	0
6	1754	2311.466960642226	0
6	1756	2314.816185985176	1
6	1757	2314.869400251368	1
6	1759	2318.058885096036	1
6	1763	2321.349749090659	2
6	1764	2321.460661274425	2
6	1768	2326.870960380821	2
6	1772	2327.4267847295	3
6	1774	2328.107968982309	4
6	1780	2332.981509177791	5
6	1783	2334.979793616136	5
6	1784	2337.053960433048	4
6	1787	2342.347723405079	3
6	1788	2346.133988564157	2
6	1793	2351.813214512701	1
6	1795	2354.319388697645	1
6	1796	2355.01411389156	1
6	1797	2356.881467571888	0
6	1805	2370.218810734865	0
6	1806	2372.946819034866	0
6	1828	2408.760504512205	0
6	1829	2409.400480523668	0
6	1841	2422.9459360675	0
6	1842	2423.742337706199	0
6	1850	2427.402652917027	0
6	1853	2428.244262375269	0
6	1858	2432.751736103515	0
6	1861	2434.72696948832	0
6	1879	2465.658478271555	0
6	1885	2472.320315154536	1
6	1886	2472.923042162618	1
6	1888	2473.889202106358	1
6	1889	2477.548865404294	1
6	1891	2478.649007051707	1
6	1892	2481.141219960295	1
6	1893	2484.32236483539	0
6	1904	2498.862924785266	0
7	264	375.391315048882	13
7	333	457.766007587543	14
7	343	476.548788404644	15
7	352	486.357315170998	16
7	373	519.361765448563	17
7	384	529.267700894395	18
7	409	564.300560389618	19
7	442	619.011098646388	20
7	449	625.351485420614	21
7	469	656.547358981017	22
7	516	733.910972131425	23
7	529	758.996673827888	24
7	537	766.656699326265	25
7	544	779.450215402787	26
7	578	818.983464402905	27
7	593	835.248604404272	28
7	601	843.367700009282	29
7	608	853.109086923126	30
7	620	863.83902178876	31
7	676	920.493155444247	32
7	688	931.651819903604	33
7	800	1058.518930789588	34
7	828	1108.361782751192	35
7	846	1132.694596718756	36
7	849	1136.108807583738	37
7	893	1176.916299660197	38
7	920	1216.291314203088	39
7	927	1230.755115960214	40
7	954	1272.682469325331	41
7	988	1317.361855239214	42
7	1031	1361.686355425169	43
7	1073	1413.14304119274	44
7	1079	1419.219797478038	45
7	1101	1455.374959090924	46
7	1144	1512.613832586893	47
7	1165	1545.518748707868	48
7	1198	1579.922105872001	49
7	1219	1614.647544777863	50
7	1267	1669.12752658445	51
7	1381	1838.500648643851	52
7	1411	1862.163813384079	53
7	1414	1870.862406747146	54
7	1429	1881.496160769119	55
7	1445	1903.24141457117	56
7	1501	1986.939751930008	57
7	1522	2024.452246727987	58
7	1542	2049.562016438356	59
7	1571	2073.58352631853	60
7	1594	2095.128767516438	61
7	1633	2143.862823377282	62
7	1637	2148.922937466807	63
7	1653	2183.044205315737	64
7	1671	2202.435043403632	65
7	1685	2216.788444128043	66
7	1725	2279.690247357455	67
7	1742	2294.765771610817	68
7	1754	2311.466960642226	69
7	1805	2370.218810734865	70
7	1828	2408.760504512205	71
7	1841	2422.9459360675	72
7	1850	2427.402652917027	73
7	1858	2432.751736103515	74
7	1879	2465.658478271555	75
7	1904	2498.862924785266	76
8	264	375.391315048882	0
8	305	416.09885070976	0
8	333	457.766007587543	0
8	343	476.548788404644	0
8	352	486.357315170998	0
8	373	519.361765448563	0
8	384	529.267700894395	0
8	409	564.300560389618	0
8	442	619.011098646388	0
8	449	625.351485420614	0
8	469	656.547358981017	0
8	484	692.864500273431	0.101177117429
8	497	715.290266955163	11.550216819727
8	500	715.422295031566	5.041445343735
8	505	722.355451729889	1.901595338036
8	508	724.458636052457	1.027618085703
8	516	733.910972131425	0
8	529	758.996673827888	0
8	537	766.656699326265	0
8	544	779.450215402787	0
8	578	818.983464402905	0
8	593	835.248604404272	0
8	601	843.367700009282	0
8	608	853.109086923126	0
8	620	863.83902178876	0
8	676	920.493155444247	0
8	688	931.651819903604	0
8	693	934.431674416005	1.086321435924
8	800	1058.518930789588	0
8	828	1108.361782751192	0
8	846	1132.694596718756	0
8	849	1136.108807583738	0
8	860	1146.494912721454	10.161086703342
8	881	1166.349841767036	18.270970173878
8	886	1170.163339130812	6.442757720447
8	887	1172.718694317962	4.230277532576
8	890	1173.15964241773	0.083343380079
8	893	1176.916299660197	0
8	920	1216.291314203088	0
8	927	1230.755115960214	0
8	954	1272.682469325331	0
8	988	1317.361855239214	0
8	1031	1361.686355425169	0
8	1073	1413.14304119274	0
8	1079	1419.219797478038	0
8	1101	1455.374959090924	0
8	1144	1512.613832586893	0
8	1157	1533.588758894924	7.125686231196
8	1165	1545.518748707868	0
8	1198	1579.922105872001	0
8	1219	1614.647544777863	0
8	1267	1669.12752658445	0
8	1322	1752.69058199458	0
8	1331	1784.36714221366	0
8	1370	1826.11813210479	0
8	1381	1838.500648643851	0
8	1411	1862.163813384079	0
8	1414	1870.862406747146	0
8	1429	1881.496160769119	0
8	1440	1900.013757905231	16.218526749321
8	1445	1903.24141457117	0
8	1501	1986.939751930008	0
8	1522	2024.452246727987	0
8	1535	2037.748273289583	10.020731786801
8	1536	2041.696824587789	11.035522238545
8	1537	2042.886910112381	5.699585443221
8	1542	2049.562016438356	0
8	1571	2073.58352631853	0
8	1576	2075.684618661842	1.421450279415
8	1594	2095.128767516438	0
8	1633	2143.862823377282	0
8	1637	2148.922937466807	0
8	1642	2157.828575973087	7.158841667523
8	1653	2183.044205315737	0
8	1671	2202.435043403632	0
8	1685	2216.788444128043	0
8	1703	2249.729384129566	0
8	1706	2251.367958607534	0
8	1725	2279.690247357455	0
8	1728	2280.652934238308	0.267550032363
8	1742	2294.765771610817	0
8	1754	2311.466960642226	0
8	1757	2314.869400251368	0.053214266192
8	1764	2321.460661274425	3.401776178389
8	1783	2334.979793616136	13.630044525477
8	1784	2337.053960433048	10.183000052227
8	1787	2342.347723405079	14.920938675579
8	1788	2346.133988564157	18.026019581848
8	1793	2351.813214512701	18.83170533491
8	1796	2355.01411389156	0.694725193915
8	1805	2370.218810734865	0
8	1828	2408.760504512205	0
8	1841	2422.9459360675	0
8	1850	2427.402652917027	0
8	1858	2432.751736103515	0
8	1879	2465.658478271555	0
8	1886	2472.923042162618	0.602727008082
8	1889	2477.548865404294	3.659663297936
8	1892	2481.141219960295	2.492212908588
8	1904	2498.862924785266	0
9	267	376.452877082859	24
9	310	428.285051721609	25
9	338	474.98865254556	26
9	344	477.751610388222	27
9	359	497.685695660876	28
9	374	521.171188623144	29
9	387	535.506429871272	30
9	422	586.878864834208	31
9	443	621.457658757041	32
9	450	626.379732136594	33
9	484	692.864500273431	34
9	497	715.290266955163	35
9	500	715.422295031566	36
9	505	722.355451729889	37
9	508	724.458636052457	38
9	509	725.71626145367	39
9	517	740.172456031577	40
9	532	759.796953700521	41
9	542	770.52129807755	42
9	545	783.076401160694	43
9	581	828.467569237987	44
9	594	837.755112640667	45
9	604	850.587979110059	46
9	609	853.471295946451	47
9	625	869.230322184583	48
9	677	922.557309556843	49
9	693	934.431674416005	50
9	694	934.487167339232	51
9	803	1065.759693866257	52
9	837	1115.656707159248	53
9	847	1134.376552513114	54
9	860	1146.494912721454	55
9	881	1166.349841767036	56
9	886	1170.163339130812	57
9	887	1172.718694317962	58
9	890	1173.15964241773	59
9	891	1176.203307319422	60
9	896	1185.612073974925	61
9	921	1217.466512215077	62
9	928	1234.266874963928	63
9	959	1277.089681267859	64
9	993	1328.03107468209	65
9	1032	1362.017841407566	66
9	1074	1414.099123901939	67
9	1086	1431.509958238804	68
9	1104	1457.953797209876	69
9	1157	1533.588758894924	70
9	1160	1542.511482998172	71
9	1168	1546.365434320981	72
9	1207	1599.158546080068	73
9	1222	1617.544838278715	74
9	1270	1673.954468898264	75
9	1323	1752.912652511472	76
9	1342	1794.565195428115	77
9	1377	1837.536494347759	78
9	1382	1839.931577299194	79
9	1412	1862.583255820495	80
9	1419	1876.012979832493	81
9	1440	1900.013757905231	82
9	1441	1901.800352648649	83
9	1446	1911.903692606742	84
9	1504	1988.347327886568	85
9	1535	2037.748273289583	86
9	1536	2041.696824587789	87
9	1537	2042.886910112381	88
9	1538	2043.524718331723	89
9	1543	2050.310073293457	90
9	1576	2075.684618661842	91
9	1579	2077.45716668429	92
9	1595	2100.124235631169	93
9	1634	2144.02732633626	94
9	1642	2157.828575973087	95
9	1643	2162.737954251503	96
9	1656	2185.239737963008	97
9	1674	2206.342482211404	98
9	1686	2218.13053337151	99
9	1704	2251.072627032836	100
9	1711	2259.466292237981	101
9	1728	2280.652934238308	102
9	1729	2285.281015368432	103
9	1747	2300.743067949671	104
9	1757	2314.869400251368	105
9	1764	2321.460661274425	106
9	1783	2334.979793616136	107
9	1784	2337.053960433048	108
9	1787	2342.347723405079	109
9	1788	2346.133988564157	110
9	1793	2351.813214512701	111
9	1796	2355.01411389156	112
9	1797	2356.881467571888	113
9	1806	2372.946819034866	114
9	1829	2409.400480523668	115
9	1842	2423.742337706199	116
9	1853	2428.244262375269	117
9	1861	2434.72696948832	118
9	1886	2472.923042162618	119
9	1889	2477.548865404294	120
9	1892	2481.141219960295	121
9	1893	2484.32236483539	122
10	267	376.452877082859	1.061562033977
10	310	428.285051721609	12.186201011849
10	338	474.98865254556	17.222644958017
10	344	477.751610388222	1.202821983578
10	359	497.685695660876	11.328380489878
10	374	521.171188623144	1.809423174581
10	387	535.506429871272	6.238728976877
10	422	586.878864834208	22.57830444459
10	443	621.457658757041	2.446560110653
10	450	626.379732136594	1.02824671598
10	484	692.864500273431	36.317141292414
10	497	715.290266955163	22.526943799161
10	500	715.422295031566	11.68224489613
10	505	722.355451729889	11.974602042058
10	508	724.458636052457	4.004779660604
10	509	725.71626145367	2.285243486916
10	517	740.172456031577	6.261483900152
10	532	759.796953700521	0.800279872633
10	542	770.52129807755	3.864598751285
10	545	783.076401160694	3.626185757907
10	581	828.467569237987	9.484104835082
10	594	837.755112640667	2.506508236395
10	604	850.587979110059	7.220279100777
10	609	853.471295946451	0.362209023325
10	625	869.230322184583	5.391300395823
10	677	922.557309556843	2.064154112596
10	693	934.431674416005	2.779854512401
10	694	934.487167339232	1.141814359151
10	803	1065.759693866257	7.240763076669
10	837	1115.656707159248	7.294924408056
10	847	1134.376552513114	1.681955794358
10	860	1146.494912721454	10.386105137716
10	881	1166.349841767036	30.016015748924
10	886	1170.163339130812	22.084467537654
10	887	1172.718694317962	8.998112907597
10	890	1173.15964241773	4.671225632344
10	891	1176.203307319422	3.127008281771
10	896	1185.612073974925	8.695774314728
10	921	1217.466512215077	1.175198011989
10	928	1234.266874963928	3.511759003714
10	959	1277.089681267859	4.407211942528
10	993	1328.03107468209	10.669219442876
10	1032	1362.017841407566	0.331485982397
10	1074	1414.099123901939	0.956082709199
10	1086	1431.509958238804	12.290160760766
10	1104	1457.953797209876	2.578838118952
10	1157	1533.588758894924	20.974926308031
10	1160	1542.511482998172	16.048410334444
10	1168	1546.365434320981	0.846685613113
10	1207	1599.158546080068	19.236440208067
10	1222	1617.544838278715	2.897293500852
10	1270	1673.954468898264	4.826942313814
10	1323	1752.912652511472	0.222070516892
10	1342	1794.565195428115	10.198053214455
10	1377	1837.536494347759	11.418362242969
10	1382	1839.931577299194	1.430928655343
10	1412	1862.583255820495	0.419442436416
10	1419	1876.012979832493	5.150573085347
10	1440	1900.013757905231	18.517597136112
10	1441	1901.800352648649	18.005121492739
10	1446	1911.903692606742	8.662278035572
10	1504	1988.347327886568	1.40757595656
10	1535	2037.748273289583	13.296026561596
10	1536	2041.696824587789	13.969283085007
10	1537	2042.886910112381	12.225607763137
10	1538	2043.524718331723	6.337393662563
10	1543	2050.310073293457	0.748056855101
10	1576	2075.684618661842	2.101092343312
10	1579	2077.45716668429	3.193998301863
10	1595	2100.124235631169	4.995468114731
10	1634	2144.02732633626	0.164502958978
10	1642	2157.828575973087	8.90563850628
10	1643	2162.737954251503	12.068219945939
10	1656	2185.239737963008	2.195532647271
10	1674	2206.342482211404	3.907438807772
10	1686	2218.13053337151	1.342089243467
10	1704	2251.072627032836	1.34324290327
10	1711	2259.466292237981	8.098333630447
10	1728	2280.652934238308	0.962686880853
10	1729	2285.281015368432	4.895631162487
10	1747	2300.743067949671	5.977296338854
10	1757	2314.869400251368	3.402439609142
10	1764	2321.460661274425	6.644475289249
10	1783	2334.979793616136	16.9209085201
10	1784	2337.053960433048	15.704211342389
10	1787	2342.347723405079	15.476763024258
10	1788	2346.133988564157	18.707203834657
10	1793	2351.813214512701	23.705245530392
10	1796	2355.01411389156	22.032604713769
10	1797	2356.881467571888	2.562078874243
10	1806	2372.946819034866	2.728008300001
10	1829	2409.400480523668	0.639976011463
10	1842	2423.742337706199	0.796401638699
10	1853	2428.244262375269	0.841609458242
10	1861	2434.72696948832	1.975233384805
10	1886	2472.923042162618	7.264563891063
10	1889	2477.548865404294	5.228550249758
10	1892	2481.141219960295	7.252017853937
10	1893	2484.32236483539	5.673357783683
11	1905	2500	0.2024
12	1905	2500	0.0488

