version 2
run factors_calibration_range_test-8-20230302-19:09:11-11729
attr configname factors_calibration_range_test
attr datetime 20230302-19:09:11
attr experiment factors_calibration_range_test
attr inifile omnetpp.ini
attr iterationvars "$0=5, $1=1"
attr iterationvarsf 5,1-
attr measurement "$0=5, $1=1"
attr network Network
attr processid 11729
attr repetition 8
attr replication #8
attr resultdir results
attr runnumber 8
attr seedset 8
param *.boss.arrival_mean 20
param *.boss.service_mean 5
param *.minion.arrival_mean 5
param *.minion.service_mean 1
param **.minion.arrival_distribution 0
param **.minion.service_distribution 0
param **.boss.arrival_distribution 0
param **.boss.service_distribution 0

vector 0 Network.player minion_jobs_number_stat:vector ETV
attr source signal_minion_jobs_number
vector 1 Network.player minion_jobs_queue_number_stat:vector ETV
attr source signal_minion_jobs_queue_number
vector 2 Network.player minion_waiting_time_stat:vector ETV
attr source signal_minion_waiting_time
vector 3 Network.player minion_defeated_stat:vector ETV
attr source signal_minion_defeated
vector 4 Network.player minion_response_time_stat:vector ETV
attr source signal_minion_response_time
vector 5 Network.player boss_jobs_number_stat:vector ETV
attr source signal_boss_jobs_number
vector 6 Network.player boss_jobs_queue_number_stat:vector ETV
attr source signal_boss_jobs_queue_number
vector 7 Network.player minion_recovered_stat:vector ETV
attr source signal_minion_recovered
vector 8 Network.player boss_waiting_time_stat:vector ETV
attr source signal_boss_waiting_time
vector 9 Network.player boss_defeated_stat:vector ETV
attr source signal_boss_defeated
vector 10 Network.player boss_response_time_stat:vector ETV
attr source signal_boss_response_time
vector 11 Network.player minion_throughput:vector ETV
attr source signal_minion_throughput
vector 12 Network.player boss_throughput:vector ETV
attr source signal_boss_throughput
0	248	351.637799926793	1
0	250	351.816698403941	2
0	254	364.695313271285	1
0	257	368.522684823544	1
0	260	371.692760173755	1
0	262	372.603368819217	2
0	264	373.873149192764	3
0	269	375.716961854411	3
0	275	379.092379324757	1
0	277	379.322925805971	2
0	281	384.965486513023	1
0	284	386.32831190177	1
0	287	391.302769350812	1
0	290	396.919874809072	1
0	293	399.122997692917	1
0	296	406.748085184797	1
0	299	407.092961365804	1
0	302	413.033485411216	1
0	307	424.089753334037	1
0	309	426.084344635749	2
0	314	434.508279223461	1
0	317	437.914687164074	1
0	320	443.23057265766	1
0	323	446.943534764849	1
0	326	450.416622181292	1
0	329	452.189588074644	1
0	332	457.535363221897	1
0	337	460.645156144872	1
0	339	463.129602107361	2
0	347	484.056737403649	1
0	350	486.029923365209	1
0	355	489.507021353304	1
0	357	493.200794955276	2
0	359	495.738885909479	3
0	362	498.2866600205	4
0	368	504.794685898601	1
0	371	513.646630264471	1
0	377	523.597595920151	1
0	380	525.794211070307	1
0	382	525.926801331636	2
0	388	534.785154743697	1
0	391	536.497727296506	2
0	393	537.164888541197	3
0	398	544.946014203063	1
0	401	548.143375493926	1
0	404	551.197707327139	1
0	407	554.294780736202	1
0	409	554.329543672517	2
0	415	566.036303756393	1
0	417	568.754214102351	2
0	419	570.382614884877	3
0	421	572.390040779668	4
0	423	575.930673941829	5
0	425	580.564300444157	6
0	434	595.091142378991	1
0	437	597.05354749582	1
0	440	597.905085303873	1
0	443	617.788180214507	1
0	449	622.87528397004	1
0	454	627.31175928799	2
0	458	648.788400663674	1
0	461	649.490990520631	1
0	464	652.587015286241	1
0	467	656.267055972851	1
0	471	662.647320261689	2
0	473	664.862986893699	3
0	475	668.959173182527	4
0	477	669.034741252869	5
0	479	680.004342628371	6
0	481	680.511350571874	7
0	486	700.142051138865	8
0	490	707.809873402724	9
0	492	709.480065002263	10
0	496	712.26443938523	11
0	499	715.359408046033	12
0	502	716.462341053865	13
0	512	728.278781844773	13
0	520	733.170962699492	8
0	531	748.284574264957	3
0	536	753.396845087647	1
0	541	759.232893867305	1
0	544	760.811263252927	2
0	550	768.618441322539	1
0	552	769.313704510708	2
0	560	784.402888119425	1
0	563	787.603035480152	1
0	566	793.79876476614	1
0	569	796.275384060453	1
0	571	797.392627349174	2
0	574	799.989269969222	2
0	578	808.202484442745	1
0	581	810.561703389332	1
0	584	815.627375207123	1
0	587	817.355165382959	1
0	592	826.271603749884	1
0	596	830.296274104612	1
0	598	830.838360702512	2
0	602	833.659366252203	1
0	605	834.419999336579	1
0	611	842.076868923725	1
0	613	842.693634864657	2
0	619	848.726402118468	1
0	622	850.780779679242	2
0	629	858.270473952311	1
0	632	859.566073429741	1
0	635	861.263263366638	1
0	640	866.523518523988	1
0	642	867.70412138263	2
0	646	870.352359139445	2
0	650	873.859400389194	1
0	653	880.832954436731	1
0	656	881.547257668249	1
0	658	881.606878861698	2
0	662	882.546749625195	1
0	664	882.735006706535	2
0	668	884.14326956642	1
0	671	889.299754289012	1
0	673	889.517756141463	2
0	677	894.05032020598	1
0	679	895.333736929312	2
0	681	896.676542694865	3
0	686	901.590460127801	1
0	689	906.364773896643	1
0	692	911.394798621472	1
0	695	913.864771228213	1
0	698	917.671255488911	1
0	704	923.157940033367	1
0	707	929.805347061187	1
0	714	933.354291239884	1
0	719	941.7957659953	1
0	722	943.733617045439	1
0	725	946.082484727148	1
0	727	948.494031164437	2
0	731	956.665823290266	1
0	734	959.119776784543	1
0	737	969.706507412251	1
0	740	980.953106858525	1
0	743	985.373304559089	1
0	746	990.122190495021	1
0	749	995.455540424973	1
0	752	1001.113259376419	1
0	754	1002.828783983954	2
0	757	1003.538292634929	2
0	761	1005.996408468457	1
0	764	1007.65925321857	1
0	766	1008.34010177663	2
0	768	1008.479404402972	3
0	771	1009.675842181878	3
0	774	1011.160307503454	3
0	779	1018.193888578894	1
0	782	1020.080181798597	1
0	785	1024.404258454179	1
0	787	1024.884155424699	2
0	791	1029.880231070822	1
0	794	1030.95397286861	1
0	797	1046.752576226319	1
0	800	1048.614975081027	1
0	802	1049.109953421868	2
0	805	1052.691869106662	2
0	807	1053.375132587638	3
0	812	1055.61827862306	1
0	815	1058.228347910092	1
0	819	1065.081146235388	2
0	822	1066.340915638694	3
0	825	1069.633102928039	3
0	830	1073.425207065877	1
0	833	1077.60733911418	1
0	836	1086.484180958285	1
0	839	1105.117932869546	1
0	844	1109.752360234209	1
0	846	1113.101187621736	2
0	848	1114.126413479966	3
0	850	1115.594521777297	4
0	855	1117.995264579741	3
0	867	1137.158031176118	1
0	869	1138.82468292877	2
0	871	1139.684685812502	3
0	873	1145.760064388634	4
0	878	1151.004804842995	5
0	880	1152.468599139936	6
0	882	1152.503707637437	7
0	884	1159.668353036377	8
0	886	1160.131225627519	9
0	888	1161.753328821703	10
0	892	1164.513159242179	11
0	894	1164.744011508123	12
0	899	1168.94185350648	13
0	909	1183.226534022445	14
0	914	1188.44158010453	13
0	919	1192.07240403149	11
0	922	1192.659497015605	11
0	927	1199.417761500128	9
0	930	1201.390431479185	9
0	934	1205.952053586621	8
0	947	1223.544671088769	1
0	953	1249.974695852228	1
0	956	1250.649699232163	1
0	959	1251.518993395461	1
0	961	1251.639645747739	2
0	965	1254.342741666312	1
0	968	1263.560080219163	1
0	971	1267.01934430481	1
0	973	1268.139354166822	2
0	979	1273.87597561694	1
0	981	1276.754835929562	2
0	986	1283.559196107861	1
0	989	1284.935944131438	1
0	991	1285.169875805997	2
0	994	1285.706019863345	2
0	998	1289.87956439917	1
0	1001	1290.745513364103	1
0	1004	1305.936292586315	1
0	1006	1306.160928093904	2
0	1010	1316.244025193192	1
0	1015	1317.795673463665	1
0	1017	1318.948942825411	2
0	1020	1329.207298694795	3
0	1025	1333.931066356787	1
0	1028	1334.866207334937	1
0	1031	1337.606332499377	1
0	1034	1338.08458517252	1
0	1037	1341.076275015296	1
0	1040	1346.861609210241	1
0	1042	1347.086623632565	2
0	1046	1354.921228510853	1
0	1048	1354.955575395841	2
0	1052	1356.761853158731	1
0	1055	1360.311797990718	1
0	1061	1368.608518665506	1
0	1064	1371.070523150872	1
0	1066	1371.327031254573	2
0	1070	1375.644998940546	1
0	1073	1376.905328250581	1
0	1076	1377.756497218564	1
0	1079	1382.624418915387	1
0	1082	1393.817224337205	1
0	1085	1397.682420548622	1
0	1087	1397.738215324645	2
0	1091	1404.067063682805	1
0	1094	1411.275595309987	1
0	1102	1421.741038760461	1
0	1104	1429.156326488062	2
0	1106	1430.273717001933	3
0	1111	1434.526140916914	2
0	1115	1436.957616527714	1
0	1120	1456.904835129251	1
0	1123	1459.329444621677	2
0	1125	1459.373020550867	3
0	1130	1499.855817071015	1
0	1132	1500.611099877928	2
0	1136	1504.193844576778	1
0	1138	1505.395413488817	2
0	1140	1506.78972257909	3
0	1145	1509.93889493512	1
0	1150	1513.484907020234	1
0	1152	1521.739135736174	2
0	1154	1524.015278372411	3
0	1158	1528.611698995721	4
0	1160	1533.302049086947	5
0	1163	1535.97047980669	6
0	1166	1543.606890915987	7
0	1172	1545.909301841652	6
0	1179	1549.43566014151	3
0	1184	1555.267853077718	1
0	1187	1558.495140822357	1
0	1190	1563.354198099473	1
0	1193	1567.217460007427	1
0	1196	1575.002422054156	1
0	1198	1575.135777312787	2
0	1200	1575.583427387003	3
0	1204	1578.33220132114	2
0	1206	1578.597459328431	3
0	1212	1584.293687031577	2
0	1214	1586.755591603683	3
0	1216	1593.003367431428	4
0	1218	1596.234375016693	5
0	1221	1599.922897583044	6
0	1229	1607.182676808829	1
0	1234	1614.965642686457	1
0	1238	1619.101775237372	1
0	1241	1622.493316484854	1
0	1244	1623.682798026464	1
0	1247	1626.957131948471	1
0	1250	1639.489909538317	1
0	1253	1645.260123667346	1
0	1255	1646.310831954779	2
0	1259	1655.211444728412	1
0	1262	1656.562044564339	1
0	1265	1657.761795688545	1
0	1268	1658.522010579846	1
0	1271	1659.411929680222	1
0	1273	1660.464523704913	2
0	1279	1672.99701586294	1
0	1283	1679.022995690848	1
0	1286	1688.838328874876	1
0	1289	1693.025986514859	1
0	1292	1697.420937225327	1
0	1295	1703.733618407401	1
0	1298	1720.48541705352	1
0	1301	1721.401632652845	1
0	1304	1723.256650002374	1
0	1307	1726.517571608018	1
0	1310	1728.562343789101	1
0	1313	1737.872050573827	1
0	1316	1746.117295975712	1
0	1319	1750.13551693888	1
0	1325	1761.906541176194	1
0	1328	1772.285181156941	1
0	1333	1789.209408208463	1
0	1335	1789.43452621406	2
0	1337	1790.171816684061	3
0	1339	1791.858002747237	4
0	1341	1793.686349592056	5
0	1346	1795.508012847513	4
0	1352	1798.838069831356	1
0	1355	1808.577670535775	1
0	1358	1812.533046126123	1
0	1361	1819.019037714511	1
0	1363	1819.188177137299	2
0	1367	1821.359009031133	1
0	1372	1826.200844257755	1
0	1374	1828.995105729348	2
0	1376	1835.359707369269	3
0	1385	1844.320037215692	1
0	1388	1848.630970850223	1
0	1390	1849.112276161222	2
0	1394	1850.697664065932	1
0	1397	1851.778658602842	1
0	1400	1853.012247427751	1
0	1403	1854.701307781245	1
0	1405	1855.078663893553	2
0	1409	1859.175965286923	1
0	1417	1873.385002004886	1
0	1419	1874.318339534079	2
0	1422	1876.440002625626	3
0	1425	1877.544701984599	3
0	1430	1880.3941810715	1
0	1437	1892.854835624174	1
0	1439	1898.348768219882	2
0	1441	1898.783477728497	3
0	1443	1899.421044710102	4
0	1448	1902.833041822093	4
0	1454	1913.664679562885	4
0	1459	1917.955233038632	2
0	1463	1928.12711764457	1
0	1466	1928.379102246574	1
0	1469	1931.380893320055	1
0	1472	1947.088561952675	1
0	1474	1947.401957192998	2
0	1477	1948.304661644014	2
0	1481	1951.223381894121	1
0	1484	1951.61721155924	1
0	1487	1955.459399056497	1
0	1490	1962.231179810493	1
0	1493	1970.217963956687	1
0	1496	1974.783039459525	1
0	1499	1978.530335331241	1
0	1504	1987.886557241988	1
0	1508	1989.415885605244	1
0	1511	1999.17132913646	1
0	1514	2001.949292475061	1
0	1517	2013.509362017481	1
0	1520	2020.836170289991	1
0	1525	2025.471323969849	1
0	1531	2036.657391371752	2
0	1535	2037.608663926513	3
0	1544	2046.588650103977	1
0	1550	2055.404506088024	1
0	1553	2057.689270887664	1
0	1555	2059.225262037162	2
0	1559	2062.961292661614	1
0	1562	2064.767205318894	1
0	1565	2067.873609402603	1
0	1567	2068.534770653902	2
0	1569	2068.861000087617	3
0	1571	2070.261104805302	4
0	1574	2070.495639251267	4
0	1581	2074.904742758823	4
0	1584	2076.249679005557	5
0	1588	2077.763665527355	5
0	1595	2088.419824401469	1
0	1598	2089.570595974503	1
0	1601	2092.671235103088	1
0	1607	2104.012632775163	1
0	1610	2117.78595232474	1
0	1612	2118.276474946704	2
0	1614	2119.433659678872	3
0	1618	2120.605371924088	2
0	1620	2120.815676719099	3
0	1625	2126.761113615646	1
0	1628	2127.775331523214	1
0	1631	2134.099552236073	1
0	1634	2135.239640069236	1
0	1637	2139.39919756386	1
0	1640	2141.372378327604	1
0	1650	2156.066352493942	1
0	1655	2167.265077840335	1
0	1660	2184.528525225853	1
0	1664	2190.769090593184	1
0	1667	2195.829159183184	1
0	1670	2197.229453237568	1
0	1673	2200.559976721429	1
0	1678	2204.608166406468	1
0	1682	2209.078561151223	1
0	1685	2210.416188768611	1
0	1688	2213.841681851175	1
0	1694	2219.857266925842	1
0	1697	2241.352241115976	1
0	1700	2246.894715182693	1
0	1708	2256.219133469375	1
0	1710	2256.526254306177	2
0	1713	2260.788319405793	3
0	1718	2267.979329995572	1
0	1721	2276.580193741959	1
0	1724	2279.196071265882	1
0	1733	2288.810709340997	1
0	1736	2292.191378402172	1
0	1739	2293.569896954183	1
0	1742	2294.526565863413	1
0	1747	2295.890161293475	1
0	1749	2299.678456093147	2
0	1754	2310.052692067413	1
0	1764	2318.095035526296	1
0	1769	2326.184015378708	2
0	1773	2327.193856818665	3
0	1779	2329.154828735201	4
0	1781	2329.479963503645	5
0	1785	2334.556908181681	6
0	1789	2339.937478268411	7
0	1793	2347.59005721577	8
0	1795	2351.160472727129	9
0	1802	2358.390658677256	10
0	1809	2362.704621907721	6
0	1820	2380.352186899342	1
0	1823	2384.206726504614	1
0	1826	2392.437238142259	1
0	1828	2394.098898734172	2
0	1830	2395.592024354926	3
0	1833	2397.611138163072	3
0	1841	2416.108488752259	1
0	1844	2417.694195729621	1
0	1847	2421.342090138813	1
0	1853	2423.766513436828	1
0	1855	2424.49441463984	2
0	1857	2424.724450029786	3
0	1864	2428.063140862608	1
0	1867	2430.045967997033	2
0	1872	2434.530466423727	2
0	1877	2460.270663757201	1
0	1880	2463.856949318521	1
0	1883	2465.6253789052	1
0	1887	2467.126890446624	2
0	1889	2471.540179719996	3
0	1904	2489.276326785571	1
0	1906	2489.581717572175	2
0	1908	2489.622946252299	3
1	248	351.637799926793	0
1	250	351.816698403941	1
1	251	352.014996487087	1
1	252	355.531258636177	0
1	254	364.695313271285	0
1	255	365.702908267247	0
1	257	368.522684823544	0
1	258	370.246240683777	0
1	260	371.692760173755	0
1	262	372.603368819217	1
1	264	373.873149192764	2
1	265	375.136471713095	2
1	269	375.716961854411	2
1	271	377.578919634394	2
1	272	378.242131615358	1
1	273	378.644815693053	0
1	275	379.092379324757	0
1	277	379.322925805971	1
1	278	379.83518230094	1
1	279	380.272110520406	0
1	281	384.965486513023	0
1	282	385.011162619382	0
1	284	386.32831190177	0
1	285	386.410640041813	0
1	287	391.302769350812	0
1	288	391.952832440451	0
1	290	396.919874809072	0
1	291	397.731612706125	0
1	293	399.122997692917	0
1	294	399.231945754952	0
1	296	406.748085184797	0
1	297	406.929360647488	0
1	299	407.092961365804	0
1	300	407.225397420167	0
1	302	413.033485411216	0
1	303	413.383380288385	0
1	307	424.089753334037	0
1	309	426.084344635749	1
1	311	430.607393667511	1
1	312	432.443785424376	0
1	314	434.508279223461	0
1	315	434.523915085828	0
1	317	437.914687164074	0
1	318	438.364985445828	0
1	320	443.23057265766	0
1	321	443.40804722479	0
1	323	446.943534764849	0
1	324	447.360284265172	0
1	326	450.416622181292	0
1	327	451.739889462494	0
1	329	452.189588074644	0
1	330	453.428848736536	0
1	332	457.535363221897	0
1	333	457.61438482372	0
1	337	460.645156144872	0
1	339	463.129602107361	1
1	341	475.020873875455	1
1	342	475.483190627553	0
1	347	484.056737403649	0
1	348	484.696131265556	0
1	350	486.029923365209	0
1	351	486.152359031053	0
1	355	489.507021353304	0
1	357	493.200794955276	1
1	359	495.738885909479	2
1	362	498.2866600205	3
1	363	499.000885457156	3
1	364	499.156405520864	2
1	365	500.640161789832	1
1	366	501.285343350756	0
1	368	504.794685898601	0
1	369	505.070761967332	0
1	371	513.646630264471	0
1	372	515.919260915188	0
1	377	523.597595920151	0
1	378	523.963163200284	0
1	380	525.794211070307	0
1	382	525.926801331636	1
1	383	527.258347138696	1
1	384	527.405281826924	0
1	388	534.785154743697	0
1	391	536.497727296506	1
1	393	537.164888541197	2
1	394	540.220179630561	2
1	395	541.125866076979	1
1	396	542.687371307968	0
1	398	544.946014203063	0
1	399	545.123430449837	0
1	401	548.143375493926	0
1	402	550.470540778606	0
1	404	551.197707327139	0
1	405	552.818849545707	0
1	407	554.294780736202	0
1	409	554.329543672517	1
1	410	556.019047628328	1
1	411	556.712448133238	0
1	415	566.036303756393	0
1	417	568.754214102351	1
1	419	570.382614884877	2
1	421	572.390040779668	3
1	423	575.930673941829	4
1	425	580.564300444157	5
1	427	590.3381597702	5
1	428	590.399497372086	4
1	429	590.581046934126	3
1	430	591.078406594515	2
1	431	591.220482171799	1
1	432	592.187475573627	0
1	434	595.091142378991	0
1	435	596.474493762142	0
1	437	597.05354749582	0
1	438	597.262038720095	0
1	440	597.905085303873	0
1	441	598.912320263327	0
1	443	617.788180214507	0
1	444	618.346601541453	0
1	449	622.87528397004	0
1	454	627.31175928799	1
1	455	628.046714764488	1
1	456	628.139906995357	0
1	458	648.788400663674	0
1	459	649.114890774263	0
1	461	649.490990520631	0
1	462	650.810113971534	0
1	464	652.587015286241	0
1	465	653.19905650833	0
1	467	656.267055972851	0
1	471	662.647320261689	1
1	473	664.862986893699	2
1	475	668.959173182527	3
1	477	669.034741252869	4
1	479	680.004342628371	5
1	481	680.511350571874	6
1	486	700.142051138865	7
1	490	707.809873402724	8
1	492	709.480065002263	9
1	496	712.26443938523	10
1	499	715.359408046033	11
1	502	716.462341053865	12
1	510	726.058753561205	12
1	512	728.278781844773	12
1	513	728.407173166445	12
1	514	728.828975586698	11
1	515	731.234828760421	10
1	516	731.74047571142	9
1	517	732.435072831432	8
1	518	732.452597516378	7
1	520	733.170962699492	7
1	524	740.804254133951	7
1	525	742.066203296438	6
1	526	744.303473758453	5
1	527	747.358349188293	4
1	528	747.534566705775	3
1	529	747.880592142812	2
1	531	748.284574264957	2
1	532	749.741441056429	2
1	533	750.51345730677	1
1	534	751.217019863135	0
1	536	753.396845087647	0
1	537	753.718522920004	0
1	541	759.232893867305	0
1	544	760.811263252927	1
1	545	761.696030471758	1
1	546	763.160210835563	0
1	550	768.618441322539	0
1	552	769.313704510708	1
1	554	771.815382682814	1
1	555	773.611165975382	0
1	560	784.402888119425	0
1	561	784.418430170048	0
1	563	787.603035480152	0
1	564	789.918668541886	0
1	566	793.79876476614	0
1	567	793.815177066971	0
1	569	796.275384060453	0
1	571	797.392627349174	1
1	572	799.844701325765	1
1	574	799.989269969222	1
1	575	801.25934057027	1
1	576	801.819769980107	0
1	578	808.202484442745	0
1	579	808.707628338565	0
1	581	810.561703389332	0
1	582	811.720334200321	0
1	584	815.627375207123	0
1	585	817.201690789947	0
1	587	817.355165382959	0
1	588	817.75010232442	0
1	592	826.271603749884	0
1	594	830.213562445982	0
1	596	830.296274104612	0
1	598	830.838360702512	1
1	599	831.893236113499	1
1	600	833.446384160354	0
1	602	833.659366252203	0
1	603	834.229461403096	0
1	605	834.419999336579	0
1	609	841.757022266915	0
1	611	842.076868923725	0
1	613	842.693634864657	1
1	614	842.790615609043	1
1	615	843.291940280904	0
1	619	848.726402118468	0
1	622	850.780779679242	1
1	623	852.029061854356	1
1	624	852.568378088925	0
1	629	858.270473952311	0
1	630	858.461536579967	0
1	632	859.566073429741	0
1	633	860.397518980681	0
1	635	861.263263366638	0
1	636	861.865556713658	0
1	640	866.523518523988	0
1	642	867.70412138263	1
1	644	869.433221078762	1
1	646	870.352359139445	1
1	647	871.717881415233	1
1	648	872.449071858718	0
1	650	873.859400389194	0
1	651	875.028273533247	0
1	653	880.832954436731	0
1	654	881.385830611667	0
1	656	881.547257668249	0
1	658	881.606878861698	1
1	659	881.884087974629	1
1	660	882.082998993919	0
1	662	882.546749625195	0
1	664	882.735006706535	1
1	665	883.092966686779	1
1	666	883.575420657716	0
1	668	884.14326956642	0
1	669	884.98241582708	0
1	671	889.299754289012	0
1	673	889.517756141463	1
1	674	889.779385368209	1
1	675	893.209957479714	0
1	677	894.05032020598	0
1	679	895.333736929312	1
1	681	896.676542694865	2
1	682	897.251088572201	2
1	683	898.073685189946	1
1	684	898.325134851151	0
1	686	901.590460127801	0
1	687	905.197362011281	0
1	689	906.364773896643	0
1	690	906.464904972982	0
1	692	911.394798621472	0
1	693	911.58232255052	0
1	695	913.864771228213	0
1	696	914.818752016819	0
1	698	917.671255488911	0
1	699	917.940319120234	0
1	704	923.157940033367	0
1	705	923.415760782577	0
1	707	929.805347061187	0
1	708	930.640735422271	0
1	714	933.354291239884	0
1	717	935.562803782219	0
1	719	941.7957659953	0
1	720	942.855104517023	0
1	722	943.733617045439	0
1	723	943.920785586186	0
1	725	946.082484727148	0
1	727	948.494031164437	1
1	728	949.403151437117	1
1	729	949.567422477193	0
1	731	956.665823290266	0
1	732	958.832791070233	0
1	734	959.119776784543	0
1	735	960.384041073443	0
1	737	969.706507412251	0
1	738	970.16573071365	0
1	740	980.953106858525	0
1	741	981.70858243771	0
1	743	985.373304559089	0
1	744	985.791594824428	0
1	746	990.122190495021	0
1	747	990.69007410976	0
1	749	995.455540424973	0
1	750	997.357147335517	0
1	752	1001.113259376419	0
1	754	1002.828783983954	1
1	755	1003.159948982316	1
1	757	1003.538292634929	1
1	758	1003.652106343256	1
1	759	1004.955456967474	0
1	761	1005.996408468457	0
1	762	1007.09424416343	0
1	764	1007.65925321857	0
1	766	1008.34010177663	1
1	768	1008.479404402972	2
1	769	1009.323825860885	2
1	771	1009.675842181878	2
1	772	1009.910022658739	2
1	774	1011.160307503454	2
1	775	1011.66543076551	2
1	776	1012.604325521552	1
1	777	1012.989881062216	0
1	779	1018.193888578894	0
1	780	1019.728317913058	0
1	782	1020.080181798597	0
1	783	1022.140048931751	0
1	785	1024.404258454179	0
1	787	1024.884155424699	1
1	788	1027.845528152819	1
1	789	1028.017594774918	0
1	791	1029.880231070822	0
1	792	1030.347467384534	0
1	794	1030.95397286861	0
1	795	1031.537862046041	0
1	797	1046.752576226319	0
1	798	1047.869528551351	0
1	800	1048.614975081027	0
1	802	1049.109953421868	1
1	803	1052.686385831858	1
1	805	1052.691869106662	1
1	807	1053.375132587638	2
1	808	1054.334980601582	2
1	809	1054.366092876782	1
1	810	1055.561635155655	0
1	812	1055.61827862306	0
1	813	1055.858736501339	0
1	815	1058.228347910092	0
1	819	1065.081146235388	1
1	822	1066.340915638694	2
1	823	1067.348792690517	2
1	825	1069.633102928039	2
1	826	1071.208875368747	2
1	827	1071.519517029012	1
1	828	1071.605052817406	0
1	830	1073.425207065877	0
1	831	1073.808667881967	0
1	833	1077.60733911418	0
1	834	1077.705939787134	0
1	836	1086.484180958285	0
1	837	1086.658492257919	0
1	839	1105.117932869546	0
1	840	1105.846758426863	0
1	844	1109.752360234209	0
1	846	1113.101187621736	1
1	848	1114.126413479966	2
1	850	1115.594521777297	3
1	852	1117.349931739238	3
1	853	1117.597685798459	2
1	855	1117.995264579741	2
1	856	1119.659477997946	2
1	857	1119.804913596339	1
1	858	1121.553173516656	0
1	867	1137.158031176118	0
1	869	1138.82468292877	1
1	871	1139.684685812502	2
1	873	1145.760064388634	3
1	878	1151.004804842995	4
1	880	1152.468599139936	5
1	882	1152.503707637437	6
1	884	1159.668353036377	7
1	886	1160.131225627519	8
1	888	1161.753328821703	9
1	892	1164.513159242179	10
1	894	1164.744011508123	11
1	899	1168.94185350648	12
1	909	1183.226534022445	13
1	911	1187.01944271964	13
1	912	1188.25446310203	12
1	914	1188.44158010453	12
1	915	1188.982447344665	12
1	916	1190.08358390054	11
1	917	1190.888101559604	10
1	919	1192.07240403149	10
1	920	1192.655739250088	10
1	922	1192.659497015605	10
1	923	1193.472486598504	10
1	924	1194.311168448925	9
1	925	1199.381320522028	8
1	927	1199.417761500128	8
1	928	1199.687874115184	8
1	930	1201.390431479185	8
1	931	1203.995628227609	8
1	932	1204.299083329556	7
1	934	1205.952053586621	7
1	935	1206.072418426612	7
1	936	1206.78613839126	6
1	937	1206.998473538911	5
1	938	1208.407714712959	4
1	939	1209.371682589745	3
1	940	1212.129898790267	2
1	944	1218.677040090622	1
1	945	1220.275919813528	0
1	947	1223.544671088769	0
1	948	1223.831538686015	0
1	953	1249.974695852228	0
1	954	1250.5408126621	0
1	956	1250.649699232163	0
1	957	1251.062140066172	0
1	959	1251.518993395461	0
1	961	1251.639645747739	1
1	962	1251.64915425291	1
1	963	1252.693797815437	0
1	965	1254.342741666312	0
1	966	1255.33776929658	0
1	968	1263.560080219163	0
1	969	1264.241802191708	0
1	971	1267.01934430481	0
1	973	1268.139354166822	1
1	974	1268.477689341647	1
1	975	1268.570886422259	0
1	979	1273.87597561694	0
1	981	1276.754835929562	1
1	983	1277.395384747977	1
1	984	1277.641301064677	0
1	986	1283.559196107861	0
1	987	1283.690713794463	0
1	989	1284.935944131438	0
1	991	1285.169875805997	1
1	992	1285.473881537976	1
1	994	1285.706019863345	1
1	995	1286.756460351524	1
1	996	1287.705899427733	0
1	998	1289.87956439917	0
1	999	1290.193448167035	0
1	1001	1290.745513364103	0
1	1002	1291.141389623344	0
1	1004	1305.936292586315	0
1	1006	1306.160928093904	1
1	1007	1306.243530100689	1
1	1008	1308.622054249787	0
1	1010	1316.244025193192	0
1	1011	1316.468799434077	0
1	1015	1317.795673463665	0
1	1017	1318.948942825411	1
1	1020	1329.207298694795	2
1	1021	1330.523587586886	2
1	1022	1332.475285607942	1
1	1023	1333.605535396626	0
1	1025	1333.931066356787	0
1	1026	1334.758424685835	0
1	1028	1334.866207334937	0
1	1029	1335.716390474477	0
1	1031	1337.606332499377	0
1	1032	1337.919444934235	0
1	1034	1338.08458517252	0
1	1035	1338.153343908219	0
1	1037	1341.076275015296	0
1	1038	1341.725766284541	0
1	1040	1346.861609210241	0
1	1042	1347.086623632565	1
1	1043	1347.264235177675	1
1	1044	1347.812663520902	0
1	1046	1354.921228510853	0
1	1048	1354.955575395841	1
1	1049	1355.571201285452	1
1	1050	1356.507717993743	0
1	1052	1356.761853158731	0
1	1053	1358.052643991959	0
1	1055	1360.311797990718	0
1	1056	1361.580449632876	0
1	1061	1368.608518665506	0
1	1062	1368.680075327455	0
1	1064	1371.070523150872	0
1	1066	1371.327031254573	1
1	1067	1371.690494908998	1
1	1068	1373.162133148066	0
1	1070	1375.644998940546	0
1	1071	1376.133990480722	0
1	1073	1376.905328250581	0
1	1074	1377.453153022344	0
1	1076	1377.756497218564	0
1	1077	1377.811835138908	0
1	1079	1382.624418915387	0
1	1080	1383.439596027564	0
1	1082	1393.817224337205	0
1	1083	1393.856297938718	0
1	1085	1397.682420548622	0
1	1087	1397.738215324645	1
1	1088	1399.586438555267	1
1	1089	1399.791811168014	0
1	1091	1404.067063682805	0
1	1092	1405.020070110611	0
1	1094	1411.275595309987	0
1	1095	1411.305466946639	0
1	1102	1421.741038760461	0
1	1104	1429.156326488062	1
1	1106	1430.273717001933	2
1	1108	1431.666690887073	2
1	1109	1432.952142279768	1
1	1111	1434.526140916914	1
1	1112	1434.964931817433	1
1	1113	1435.278129408444	0
1	1115	1436.957616527714	0
1	1116	1438.065505274119	0
1	1120	1456.904835129251	0
1	1123	1459.329444621677	1
1	1125	1459.373020550867	2
1	1126	1460.027259308085	2
1	1127	1461.196050347262	1
1	1128	1461.338672965334	0
1	1130	1499.855817071015	0
1	1132	1500.611099877928	1
1	1133	1501.272308813144	1
1	1134	1502.896322396685	0
1	1136	1504.193844576778	0
1	1138	1505.395413488817	1
1	1140	1506.78972257909	2
1	1141	1507.718485577995	2
1	1142	1508.565226793134	1
1	1143	1509.017678675046	0
1	1145	1509.93889493512	0
1	1146	1511.402724384123	0
1	1150	1513.484907020234	0
1	1152	1521.739135736174	1
1	1154	1524.015278372411	2
1	1158	1528.611698995721	3
1	1160	1533.302049086947	4
1	1163	1535.97047980669	5
1	1166	1543.606890915987	6
1	1167	1543.631481252907	6
1	1168	1545.27632803697	5
1	1172	1545.909301841652	5
1	1174	1546.797827769645	5
1	1175	1547.017364307361	4
1	1176	1547.234446023645	3
1	1177	1549.071861899693	2
1	1179	1549.43566014151	2
1	1180	1550.163461209851	2
1	1181	1550.445019778659	1
1	1182	1551.221467756494	0
1	1184	1555.267853077718	0
1	1185	1555.788879584586	0
1	1187	1558.495140822357	0
1	1188	1559.595401914696	0
1	1190	1563.354198099473	0
1	1191	1565.126560476714	0
1	1193	1567.217460007427	0
1	1194	1568.41194251458	0
1	1196	1575.002422054156	0
1	1198	1575.135777312787	1
1	1200	1575.583427387003	2
1	1201	1577.764025806003	2
1	1202	1578.145926602926	1
1	1204	1578.33220132114	1
1	1206	1578.597459328431	2
1	1207	1579.010719450093	2
1	1208	1579.69382222519	1
1	1212	1584.293687031577	1
1	1214	1586.755591603683	2
1	1216	1593.003367431428	3
1	1218	1596.234375016693	4
1	1221	1599.922897583044	5
1	1222	1600.751516828927	5
1	1223	1604.599337322249	4
1	1224	1605.438178840961	3
1	1225	1606.490977851412	2
1	1226	1606.929833646923	1
1	1227	1606.99045617216	0
1	1229	1607.182676808829	0
1	1230	1608.428938141418	0
1	1234	1614.965642686457	0
1	1236	1617.55512162053	0
1	1238	1619.101775237372	0
1	1239	1619.346822599839	0
1	1241	1622.493316484854	0
1	1242	1623.456514099821	0
1	1244	1623.682798026464	0
1	1245	1623.937397923921	0
1	1247	1626.957131948471	0
1	1248	1627.202113804841	0
1	1250	1639.489909538317	0
1	1251	1639.90885153949	0
1	1253	1645.260123667346	0
1	1255	1646.310831954779	1
1	1256	1647.762835172022	1
1	1257	1648.21902637509	0
1	1259	1655.211444728412	0
1	1260	1656.203531709203	0
1	1262	1656.562044564339	0
1	1263	1657.077058827389	0
1	1265	1657.761795688545	0
1	1266	1658.476059319018	0
1	1268	1658.522010579846	0
1	1269	1658.931017662107	0
1	1271	1659.411929680222	0
1	1273	1660.464523704913	1
1	1274	1660.848989588437	1
1	1275	1661.406416806589	0
1	1279	1672.99701586294	0
1	1281	1674.09208141295	0
1	1283	1679.022995690848	0
1	1284	1680.9623015009	0
1	1286	1688.838328874876	0
1	1287	1688.970571695798	0
1	1289	1693.025986514859	0
1	1290	1693.075803827861	0
1	1292	1697.420937225327	0
1	1293	1699.261790164582	0
1	1295	1703.733618407401	0
1	1296	1703.891061658764	0
1	1298	1720.48541705352	0
1	1299	1720.604478951286	0
1	1301	1721.401632652845	0
1	1302	1722.447788916479	0
1	1304	1723.256650002374	0
1	1305	1723.632575821646	0
1	1307	1726.517571608018	0
1	1308	1728.089266404645	0
1	1310	1728.562343789101	0
1	1311	1730.505159174404	0
1	1313	1737.872050573827	0
1	1314	1738.00529329759	0
1	1316	1746.117295975712	0
1	1317	1746.932258811465	0
1	1319	1750.13551693888	0
1	1320	1750.628361000431	0
1	1325	1761.906541176194	0
1	1326	1763.255300861257	0
1	1328	1772.285181156941	0
1	1329	1772.81862784133	0
1	1333	1789.209408208463	0
1	1335	1789.43452621406	1
1	1337	1790.171816684061	2
1	1339	1791.858002747237	3
1	1341	1793.686349592056	4
1	1343	1794.658676605018	4
1	1344	1795.215807642896	3
1	1346	1795.508012847513	3
1	1347	1796.062966954046	3
1	1348	1796.891753081604	2
1	1349	1797.608673297965	1
1	1350	1798.628020401792	0
1	1352	1798.838069831356	0
1	1353	1799.374065347449	0
1	1355	1808.577670535775	0
1	1356	1808.737144793437	0
1	1358	1812.533046126123	0
1	1359	1813.979796247352	0
1	1361	1819.019037714511	0
1	1363	1819.188177137299	1
1	1364	1819.247665159931	1
1	1365	1819.703584202175	0
1	1367	1821.359009031133	0
1	1368	1821.409819702513	0
1	1372	1826.200844257755	0
1	1374	1828.995105729348	1
1	1376	1835.359707369269	2
1	1378	1837.615690269015	2
1	1379	1837.760127441624	1
1	1383	1840.062674964808	0
1	1385	1844.320037215692	0
1	1386	1845.840840769787	0
1	1388	1848.630970850223	0
1	1390	1849.112276161222	1
1	1391	1849.489879412912	1
1	1392	1850.528802511978	0
1	1394	1850.697664065932	0
1	1395	1850.855285454912	0
1	1397	1851.778658602842	0
1	1398	1852.184754659928	0
1	1400	1853.012247427751	0
1	1401	1853.293438206477	0
1	1403	1854.701307781245	0
1	1405	1855.078663893553	1
1	1406	1855.24436469524	1
1	1407	1855.490338711258	0
1	1409	1859.175965286923	0
1	1413	1862.657415393384	0
1	1417	1873.385002004886	0
1	1419	1874.318339534079	1
1	1422	1876.440002625626	2
1	1423	1876.756199795845	2
1	1425	1877.544701984599	2
1	1426	1879.061431646258	2
1	1427	1879.731515022672	1
1	1428	1880.290027366283	0
1	1430	1880.3941810715	0
1	1431	1880.707117372231	0
1	1437	1892.854835624174	0
1	1439	1898.348768219882	1
1	1441	1898.783477728497	2
1	1443	1899.421044710102	3
1	1446	1902.549943158022	3
1	1448	1902.833041822093	3
1	1452	1913.661418903363	3
1	1454	1913.664679562885	3
1	1455	1914.015870632881	3
1	1456	1916.813506455585	2
1	1457	1917.459050618872	1
1	1459	1917.955233038632	1
1	1460	1917.971525121637	1
1	1461	1918.734158634013	0
1	1463	1928.12711764457	0
1	1464	1928.214822238587	0
1	1466	1928.379102246574	0
1	1467	1929.134705510668	0
1	1469	1931.380893320055	0
1	1470	1935.31841527148	0
1	1472	1947.088561952675	0
1	1474	1947.401957192998	1
1	1475	1947.697267321869	1
1	1477	1948.304661644014	1
1	1478	1948.409561266113	1
1	1479	1949.004973865166	0
1	1481	1951.223381894121	0
1	1482	1951.306089890095	0
1	1484	1951.61721155924	0
1	1485	1951.801106594191	0
1	1487	1955.459399056497	0
1	1488	1955.834338118411	0
1	1490	1962.231179810493	0
1	1491	1962.70519204116	0
1	1493	1970.217963956687	0
1	1494	1972.081553737412	0
1	1496	1974.783039459525	0
1	1497	1977.559997693374	0
1	1499	1978.530335331241	0
1	1500	1979.740788388774	0
1	1504	1987.886557241988	0
1	1506	1989.255675921753	0
1	1508	1989.415885605244	0
1	1509	1990.634816252849	0
1	1511	1999.17132913646	0
1	1512	1999.990822994351	0
1	1514	2001.949292475061	0
1	1515	2002.364116847478	0
1	1517	2013.509362017481	0
1	1518	2016.235476816641	0
1	1520	2020.836170289991	0
1	1521	2023.487487306355	0
1	1525	2025.471323969849	0
1	1531	2036.657391371752	1
1	1535	2037.608663926513	2
1	1540	2044.281423096405	2
1	1541	2044.734478961222	1
1	1542	2046.255879216313	0
1	1544	2046.588650103977	0
1	1545	2047.225308168147	0
1	1550	2055.404506088024	0
1	1551	2056.426490323004	0
1	1553	2057.689270887664	0
1	1555	2059.225262037162	1
1	1556	2061.181814645799	1
1	1557	2061.184489534763	0
1	1559	2062.961292661614	0
1	1560	2064.493608819315	0
1	1562	2064.767205318894	0
1	1563	2065.466188799153	0
1	1565	2067.873609402603	0
1	1567	2068.534770653902	1
1	1569	2068.861000087617	2
1	1571	2070.261104805302	3
1	1572	2070.299627056784	3
1	1574	2070.495639251267	3
1	1575	2071.464452272401	3
1	1581	2074.904742758823	3
1	1584	2076.249679005557	4
1	1586	2077.505795941216	4
1	1588	2077.763665527355	4
1	1589	2078.270801991114	4
1	1590	2083.282405221709	3
1	1591	2083.627954233818	2
1	1592	2083.675651150719	1
1	1593	2084.830298877499	0
1	1595	2088.419824401469	0
1	1596	2089.244354820914	0
1	1598	2089.570595974503	0
1	1599	2091.516654412748	0
1	1601	2092.671235103088	0
1	1602	2092.759552163213	0
1	1607	2104.012632775163	0
1	1608	2104.094384507991	0
1	1610	2117.78595232474	0
1	1612	2118.276474946704	1
1	1614	2119.433659678872	2
1	1615	2119.499563865028	2
1	1616	2120.022958015455	1
1	1618	2120.605371924088	1
1	1620	2120.815676719099	2
1	1621	2121.577526434876	2
1	1622	2124.051281891269	1
1	1623	2124.329931436693	0
1	1625	2126.761113615646	0
1	1626	2127.121286241987	0
1	1628	2127.775331523214	0
1	1629	2128.683788684553	0
1	1631	2134.099552236073	0
1	1632	2134.723365743447	0
1	1634	2135.239640069236	0
1	1635	2135.498613969453	0
1	1637	2139.39919756386	0
1	1638	2140.656752481887	0
1	1640	2141.372378327604	0
1	1644	2146.094399899231	0
1	1650	2156.066352493942	0
1	1653	2163.080781312935	0
1	1655	2167.265077840335	0
1	1656	2167.996175182142	0
1	1660	2184.528525225853	0
1	1662	2186.57064260454	0
1	1664	2190.769090593184	0
1	1665	2190.910588157274	0
1	1667	2195.829159183184	0
1	1668	2196.340383385953	0
1	1670	2197.229453237568	0
1	1671	2199.872225028683	0
1	1673	2200.559976721429	0
1	1674	2200.935257226065	0
1	1678	2204.608166406468	0
1	1680	2208.854967194622	0
1	1682	2209.078561151223	0
1	1683	2209.537927586231	0
1	1685	2210.416188768611	0
1	1686	2211.464620217554	0
1	1688	2213.841681851175	0
1	1689	2214.00040793931	0
1	1694	2219.857266925842	0
1	1695	2219.923652775545	0
1	1697	2241.352241115976	0
1	1698	2242.190648884469	0
1	1700	2246.894715182693	0
1	1701	2247.448712364398	0
1	1708	2256.219133469375	0
1	1710	2256.526254306177	1
1	1713	2260.788319405793	2
1	1714	2261.298733882675	2
1	1715	2261.854256928708	1
1	1716	2261.90370778	0
1	1718	2267.979329995572	0
1	1719	2268.480717215591	0
1	1721	2276.580193741959	0
1	1722	2278.412340454598	0
1	1724	2279.196071265882	0
1	1725	2279.631954311804	0
1	1733	2288.810709340997	0
1	1734	2289.859127558382	0
1	1736	2292.191378402172	0
1	1737	2292.963953538478	0
1	1739	2293.569896954183	0
1	1740	2294.205586308607	0
1	1742	2294.526565863413	0
1	1743	2294.69425576203	0
1	1747	2295.890161293475	0
1	1749	2299.678456093147	1
1	1751	2304.456453856035	1
1	1752	2306.807217573101	0
1	1754	2310.052692067413	0
1	1755	2311.111998920081	0
1	1764	2318.095035526296	0
1	1769	2326.184015378708	1
1	1773	2327.193856818665	2
1	1779	2329.154828735201	3
1	1781	2329.479963503645	4
1	1785	2334.556908181681	5
1	1789	2339.937478268411	6
1	1793	2347.59005721577	7
1	1795	2351.160472727129	8
1	1802	2358.390658677256	9
1	1803	2358.529552962981	9
1	1804	2358.720366444553	8
1	1805	2360.229198270702	7
1	1806	2360.521010149597	6
1	1807	2360.992127577467	5
1	1809	2362.704621907721	5
1	1810	2363.206397178345	5
1	1811	2366.616709782775	4
1	1812	2366.689858696213	3
1	1813	2369.112002500331	2
1	1814	2369.574692011551	1
1	1815	2370.093379450511	0
1	1820	2380.352186899342	0
1	1821	2381.274742377443	0
1	1823	2384.206726504614	0
1	1824	2385.676886284273	0
1	1826	2392.437238142259	0
1	1828	2394.098898734172	1
1	1830	2395.592024354926	2
1	1831	2396.587668588645	2
1	1833	2397.611138163072	2
1	1834	2398.00796867838	2
1	1835	2400.509435494905	1
1	1836	2400.655601384979	0
1	1841	2416.108488752259	0
1	1842	2416.440662899898	0
1	1844	2417.694195729621	0
1	1845	2418.0519500701	0
1	1847	2421.342090138813	0
1	1848	2421.362645453579	0
1	1853	2423.766513436828	0
1	1855	2424.49441463984	1
1	1857	2424.724450029786	2
1	1858	2424.887377402697	2
1	1859	2426.135982785835	1
1	1860	2426.976953795552	0
1	1864	2428.063140862608	0
1	1867	2430.045967997033	1
1	1868	2431.734198648221	1
1	1872	2434.530466423727	1
1	1874	2435.529559950482	1
1	1875	2435.686255880908	0
1	1877	2460.270663757201	0
1	1878	2461.229793820076	0
1	1880	2463.856949318521	0
1	1881	2463.86418506489	0
1	1883	2465.6253789052	0
1	1887	2467.126890446624	1
1	1889	2471.540179719996	2
1	1900	2486.038415315549	2
1	1901	2487.078875822424	1
1	1902	2487.548070096753	0
1	1904	2489.276326785571	0
1	1906	2489.581717572175	1
1	1908	2489.622946252299	2
1	1909	2493.551496958424	2
1	1910	2495.631654885965	1
1	1911	2498.285605436127	0
2	248	351.637799926793	0
2	251	352.014996487087	0.198298083146
2	254	364.695313271285	0
2	257	368.522684823544	0
2	260	371.692760173755	0
2	265	375.136471713095	2.533102893878
2	270	376.452877082859	2.579727890095
2	271	377.578919634394	2.187604585512
2	272	378.242131615358	2.525169760947
2	275	379.092379324757	0
2	278	379.83518230094	0.512256494969
2	281	384.965486513023	0
2	284	386.32831190177	0
2	287	391.302769350812	0
2	290	396.919874809072	0
2	293	399.122997692917	0
2	296	406.748085184797	0
2	299	407.092961365804	0
2	302	413.033485411216	0
2	310	428.285051721609	4.195298387572
2	311	430.607393667511	4.523049031762
2	314	434.508279223461	0
2	317	437.914687164074	0
2	320	443.23057265766	0
2	323	446.943534764849	0
2	326	450.416622181292	0
2	329	452.189588074644	0
2	332	457.535363221897	0
2	340	474.98865254556	14.343496400688
2	341	475.020873875455	11.891271768094
2	347	484.056737403649	0
2	350	486.029923365209	0
2	360	497.685695660876	8.178674307572
2	363	499.000885457156	5.80009050188
2	364	499.156405520864	3.417519611385
2	365	500.640161789832	2.353501769332
2	368	504.794685898601	0
2	371	513.646630264471	0
2	377	523.597595920151	0
2	380	525.794211070307	0
2	383	527.258347138696	1.33154580706
2	389	535.506429871272	0.721275127575
2	394	540.220179630561	3.722452334055
2	395	541.125866076979	3.960977535782
2	398	544.946014203063	0
2	401	548.143375493926	0
2	404	551.197707327139	0
2	407	554.294780736202	0
2	410	556.019047628328	1.689503955811
2	426	586.878864834208	20.842561077815
2	427	590.3381597702	21.583945667849
2	428	590.399497372086	20.016882487209
2	429	590.581046934126	18.191006154458
2	430	591.078406594515	15.147732652686
2	431	591.220482171799	10.656181727642
2	434	595.091142378991	0
2	437	597.05354749582	0
2	440	597.905085303873	0
2	443	617.788180214507	0
2	449	622.87528397004	0
2	452	626.379732136594	1.02824671598
2	455	628.046714764488	0.734955476498
2	458	648.788400663674	0
2	461	649.490990520631	0
2	464	652.587015286241	0
2	467	656.267055972851	0
2	509	725.71626145367	69.168902472653
2	510	726.058753561205	63.411433299516
2	513	728.407173166445	63.544186272746
2	514	728.828975586698	59.869802404171
2	515	731.234828760421	62.200087507552
2	516	731.74047571142	51.736133083049
2	517	732.435072831432	51.923722259558
2	518	732.452597516378	32.310546377513
2	523	740.172456031577	32.362582628853
2	524	740.804254133951	31.324189131688
2	525	742.066203296438	29.801763911208
2	526	744.303473758453	28.94406571242
2	527	747.358349188293	30.896008134428
2	528	747.534566705775	19.255784861002
2	529	747.880592142812	14.70962944332
2	532	749.741441056429	15.830468925004
2	533	750.51345730677	2.228883041813
2	536	753.396845087647	0
2	542	759.796953700521	0.564059833216
2	545	761.696030471758	0.884767218831
2	553	770.52129807755	1.902856755011
2	554	771.815382682814	2.501678172106
2	560	784.402888119425	0
2	563	787.603035480152	0
2	566	793.79876476614	0
2	569	796.275384060453	0
2	572	799.844701325765	2.452073976591
2	575	801.25934057027	1.270070601048
2	578	808.202484442745	0
2	581	810.561703389332	0
2	584	815.627375207123	0
2	587	817.355165382959	0
2	593	828.467569237987	2.195965488103
2	596	830.296274104612	0
2	599	831.893236113499	1.054875410987
2	602	833.659366252203	0
2	605	834.419999336579	0
2	608	837.755112640667	2.506508236395
2	611	842.076868923725	0
2	614	842.790615609043	0.096980744386
2	620	850.587979110059	1.861576991591
2	623	852.029061854356	1.248282175114
2	629	858.270473952311	0
2	632	859.566073429741	0
2	635	861.263263366638	0
2	643	869.230322184583	2.706803660595
2	644	869.433221078762	1.729099696132
2	647	871.717881415233	1.365522275788
2	650	873.859400389194	0
2	653	880.832954436731	0
2	656	881.547257668249	0
2	659	881.884087974629	0.277209112931
2	662	882.546749625195	0
2	665	883.092966686779	0.357959980244
2	668	884.14326956642	0
2	671	889.299754289012	0
2	674	889.779385368209	0.261629226746
2	677	894.05032020598	0
2	682	897.251088572201	1.917351642889
2	683	898.073685189946	1.397142495081
2	686	901.590460127801	0
2	689	906.364773896643	0
2	692	911.394798621472	0
2	695	913.864771228213	0
2	698	917.671255488911	0
2	704	923.157940033367	0
2	707	929.805347061187	0
2	716	934.487167339232	1.132876099348
2	719	941.7957659953	0
2	722	943.733617045439	0
2	725	946.082484727148	0
2	728	949.403151437117	0.90912027268
2	731	956.665823290266	0
2	734	959.119776784543	0
2	737	969.706507412251	0
2	740	980.953106858525	0
2	743	985.373304559089	0
2	746	990.122190495021	0
2	749	995.455540424973	0
2	752	1001.113259376419	0
2	755	1003.159948982316	0.331164998362
2	758	1003.652106343256	0.113813708327
2	761	1005.996408468457	0
2	764	1007.65925321857	0
2	769	1009.323825860885	0.983724084255
2	772	1009.910022658739	1.430618255767
2	775	1011.66543076551	1.989588583632
2	776	1012.604325521552	1.444018018098
2	779	1018.193888578894	0
2	782	1020.080181798597	0
2	785	1024.404258454179	0
2	788	1027.845528152819	2.96137272812
2	791	1029.880231070822	0
2	794	1030.95397286861	0
2	797	1046.752576226319	0
2	800	1048.614975081027	0
2	803	1052.686385831858	3.57643240999
2	808	1054.334980601582	1.64311149492
2	809	1054.366092876782	0.990960289144
2	812	1055.61827862306	0
2	815	1058.228347910092	0
2	820	1065.759693866257	7.240763076669
2	823	1067.348792690517	2.267646455129
2	826	1071.208875368747	4.867959730053
2	827	1071.519517029012	1.886414100973
2	830	1073.425207065877	0
2	833	1077.60733911418	0
2	836	1086.484180958285	0
2	839	1105.117932869546	0
2	851	1115.656707159248	5.904346925039
2	852	1117.349931739238	4.248744117502
2	853	1117.597685798459	3.471272318493
2	856	1119.659477997946	4.064956220649
2	857	1119.804913596339	1.809649016598
2	905	1176.203307319422	39.045276143304
2	910	1185.612073974925	46.787391046155
2	911	1187.01944271964	47.334756907138
2	912	1188.25446310203	42.494398713396
2	915	1188.982447344665	37.97764250167
2	916	1190.08358390054	37.614984760604
2	917	1190.888101559604	38.384393922167
2	920	1192.655739250088	32.987386213711
2	923	1193.472486598504	33.341260970985
2	924	1194.311168448925	32.557839627222
2	925	1199.381320522028	34.868161279849
2	928	1199.687874115184	34.943862607061
2	931	1203.995628227609	35.053774721129
2	932	1204.299083329556	27.382783669359
2	935	1206.072418426612	22.845884404167
2	936	1206.78613839126	18.34455828673
2	937	1206.998473538911	14.926069507421
2	938	1208.407714712959	15.748217697354
2	939	1209.371682589745	9.953921089617
2	940	1212.129898790267	10.739467311082
2	943	1217.466512215077	11.514458628456
2	944	1218.677040090622	2.385725887534
2	947	1223.544671088769	0
2	953	1249.974695852228	0
2	956	1250.649699232163	0
2	959	1251.518993395461	0
2	962	1251.64915425291	0.009508505171
2	965	1254.342741666312	0
2	968	1263.560080219163	0
2	971	1267.01934430481	0
2	974	1268.477689341647	0.338335174825
2	982	1277.089681267859	3.213705650919
2	983	1277.395384747977	0.640548818415
2	986	1283.559196107861	0
2	989	1284.935944131438	0
2	992	1285.473881537976	0.304005731979
2	995	1286.756460351524	1.050440488179
2	998	1289.87956439917	0
2	1001	1290.745513364103	0
2	1004	1305.936292586315	0
2	1007	1306.243530100689	0.082602006785
2	1010	1316.244025193192	0
2	1018	1328.03107468209	10.235401218425
2	1021	1330.523587586886	11.574644761475
2	1022	1332.475285607942	3.267986913147
2	1025	1333.931066356787	0
2	1028	1334.866207334937	0
2	1031	1337.606332499377	0
2	1034	1338.08458517252	0
2	1037	1341.076275015296	0
2	1040	1346.861609210241	0
2	1043	1347.264235177675	0.17761154511
2	1046	1354.921228510853	0
2	1049	1355.571201285452	0.615625889611
2	1052	1356.761853158731	0
2	1055	1360.311797990718	0
2	1061	1368.608518665506	0
2	1064	1371.070523150872	0
2	1067	1371.690494908998	0.363463654425
2	1070	1375.644998940546	0
2	1073	1376.905328250581	0
2	1076	1377.756497218564	0
2	1079	1382.624418915387	0
2	1082	1393.817224337205	0
2	1085	1397.682420548622	0
2	1088	1399.586438555267	1.848223230622
2	1091	1404.067063682805	0
2	1094	1411.275595309987	0
2	1107	1431.509958238804	9.768919478343
2	1108	1431.666690887073	2.510364399011
2	1109	1432.952142279768	2.678425277835
2	1112	1434.964931817433	0.438790900519
2	1115	1436.957616527714	0
2	1121	1457.953797209876	1.048962080625
2	1126	1460.027259308085	0.697814686408
2	1127	1461.196050347262	1.823029796395
2	1130	1499.855817071015	0
2	1133	1501.272308813144	0.661208935216
2	1136	1504.193844576778	0
2	1141	1507.718485577995	2.323072089178
2	1142	1508.565226793134	1.775504214044
2	1145	1509.93889493512	0
2	1164	1542.511482998172	29.026575977938
2	1167	1543.631481252907	21.892345516733
2	1168	1545.27632803697	21.261049664559
2	1173	1546.365434320981	17.75373532526
2	1174	1546.797827769645	13.495778682698
2	1175	1547.017364307361	11.046884500671
2	1176	1547.234446023645	3.627555107658
2	1177	1549.071861899693	3.553113191825
2	1180	1550.163461209851	4.254159368199
2	1181	1550.445019778659	1.009359637149
2	1184	1555.267853077718	0
2	1187	1558.495140822357	0
2	1190	1563.354198099473	0
2	1193	1567.217460007427	0
2	1196	1575.002422054156	0
2	1201	1577.764025806003	2.628248493216
2	1202	1578.145926602926	2.562499215923
2	1207	1579.010719450093	0.678518128953
2	1208	1579.69382222519	1.096362896759
2	1219	1599.158546080068	19.236440208067
2	1222	1600.751516828927	16.45782979735
2	1223	1604.599337322249	17.843745718566
2	1224	1605.438178840961	12.434811409533
2	1225	1606.490977851412	10.256602834719
2	1226	1606.929833646923	7.006936063879
2	1229	1607.182676808829	0
2	1235	1617.544838278715	2.579195592258
2	1238	1619.101775237372	0
2	1241	1622.493316484854	0
2	1244	1623.682798026464	0
2	1247	1626.957131948471	0
2	1250	1639.489909538317	0
2	1253	1645.260123667346	0
2	1256	1647.762835172022	1.452003217243
2	1259	1655.211444728412	0
2	1262	1656.562044564339	0
2	1265	1657.761795688545	0
2	1268	1658.522010579846	0
2	1271	1659.411929680222	0
2	1274	1660.848989588437	0.384465883524
2	1280	1673.954468898264	0.957453035324
2	1283	1679.022995690848	0
2	1286	1688.838328874876	0
2	1289	1693.025986514859	0
2	1292	1697.420937225327	0
2	1295	1703.733618407401	0
2	1298	1720.48541705352	0
2	1301	1721.401632652845	0
2	1304	1723.256650002374	0
2	1307	1726.517571608018	0
2	1310	1728.562343789101	0
2	1313	1737.872050573827	0
2	1316	1746.117295975712	0
2	1319	1750.13551693888	0
2	1325	1761.906541176194	0
2	1328	1772.285181156941	0
2	1342	1794.565195428115	5.355787219652
2	1343	1794.658676605018	5.224150390958
2	1344	1795.215807642896	5.043990958835
2	1347	1796.062966954046	4.204964206809
2	1348	1796.891753081604	3.205403489548
2	1349	1797.608673297965	2.100660450452
2	1352	1798.838069831356	0
2	1355	1808.577670535775	0
2	1358	1812.533046126123	0
2	1361	1819.019037714511	0
2	1364	1819.247665159931	0.059488022632
2	1367	1821.359009031133	0
2	1377	1837.536494347759	11.335650090004
2	1378	1837.615690269015	8.620584539667
2	1379	1837.760127441624	2.400420072355
2	1382	1839.931577299194	1.430928655343
2	1385	1844.320037215692	0
2	1388	1848.630970850223	0
2	1391	1849.489879412912	0.37760325169
2	1394	1850.697664065932	0
2	1397	1851.778658602842	0
2	1400	1853.012247427751	0
2	1403	1854.701307781245	0
2	1406	1855.24436469524	0.165700801687
2	1409	1859.175965286923	0
2	1412	1862.583255820495	0.419442436416
2	1420	1876.012979832493	2.627977827607
2	1423	1876.756199795845	2.437860261766
2	1426	1879.061431646258	2.621429020632
2	1427	1879.731515022672	2.186813038073
2	1430	1880.3941810715	0
2	1445	1901.800352648649	8.945517024475
2	1446	1902.549943158022	4.20117493814
2	1451	1911.903692606742	13.120214878245
2	1452	1913.661418903363	14.240374193261
2	1455	1914.015870632881	11.182828810788
2	1456	1916.813506455585	13.572091884415
2	1457	1917.459050618872	3.794371055987
2	1460	1917.971525121637	0.016292083005
2	1463	1928.12711764457	0
2	1466	1928.379102246574	0
2	1469	1931.380893320055	0
2	1472	1947.088561952675	0
2	1475	1947.697267321869	0.295310128871
2	1478	1948.409561266113	0.104899622099
2	1481	1951.223381894121	0
2	1484	1951.61721155924	0
2	1487	1955.459399056497	0
2	1490	1962.231179810493	0
2	1493	1970.217963956687	0
2	1496	1974.783039459525	0
2	1499	1978.530335331241	0
2	1505	1988.347327886568	0.46077064458
2	1508	1989.415885605244	0
2	1511	1999.17132913646	0
2	1514	2001.949292475061	0
2	1517	2013.509362017481	0
2	1520	2020.836170289991	0
2	1539	2043.524718331723	18.053394361874
2	1540	2044.281423096405	7.624031724653
2	1541	2044.734478961222	7.125815034709
2	1544	2046.588650103977	0
2	1550	2055.404506088024	0
2	1553	2057.689270887664	0
2	1556	2061.181814645799	1.956552608637
2	1559	2062.961292661614	0
2	1562	2064.767205318894	0
2	1565	2067.873609402603	0
2	1572	2070.299627056784	1.764856402882
2	1575	2071.464452272401	2.603452184784
2	1585	2077.45716668429	7.196061878988
2	1586	2077.505795941216	7.010156689949
2	1589	2078.270801991114	4.687275672584
2	1590	2083.282405221709	8.377662462886
2	1591	2083.627954233818	7.378275228261
2	1592	2083.675651150719	5.911985623364
2	1595	2088.419824401469	0
2	1598	2089.570595974503	0
2	1601	2092.671235103088	0
2	1607	2104.012632775163	0
2	1610	2117.78595232474	0
2	1615	2119.499563865028	1.223088918324
2	1616	2120.022958015455	0.589298336583
2	1621	2121.577526434876	0.972154510788
2	1622	2124.051281891269	3.23560517217
2	1625	2126.761113615646	0
2	1628	2127.775331523214	0
2	1631	2134.099552236073	0
2	1634	2135.239640069236	0
2	1637	2139.39919756386	0
2	1640	2141.372378327604	0
2	1643	2144.02732633626	0.164502958978
2	1652	2162.737954251503	6.671601757561
2	1655	2167.265077840335	0
2	1661	2185.239737963008	0.711212737155
2	1664	2190.769090593184	0
2	1667	2195.829159183184	0
2	1670	2197.229453237568	0
2	1673	2200.559976721429	0
2	1679	2206.342482211404	1.734315804936
2	1682	2209.078561151223	0
2	1685	2210.416188768611	0
2	1688	2213.841681851175	0
2	1694	2219.857266925842	0
2	1697	2241.352241115976	0
2	1700	2246.894715182693	0
2	1711	2259.466292237981	3.247158768606
2	1714	2261.298733882675	4.772479576498
2	1715	2261.854256928708	1.065937522915
2	1718	2267.979329995572	0
2	1721	2276.580193741959	0
2	1724	2279.196071265882	0
2	1733	2288.810709340997	0
2	1736	2292.191378402172	0
2	1739	2293.569896954183	0
2	1742	2294.526565863413	0
2	1750	2300.743067949671	4.852906656196
2	1751	2304.456453856035	4.777997762888
2	1754	2310.052692067413	0
2	1800	2356.881467571888	38.786432045592
2	1803	2358.529552962981	32.345537584273
2	1804	2358.720366444553	31.526509625888
2	1805	2360.229198270702	31.074369535501
2	1806	2360.521010149597	31.041046645952
2	1807	2360.992127577467	26.435219395786
2	1810	2363.206397178345	23.268918909934
2	1811	2366.616709782775	19.026652567005
2	1812	2366.689858696213	15.529385969084
2	1813	2369.112002500331	10.721343823075
2	1814	2369.574692011551	6.87007010383
2	1820	2380.352186899342	0
2	1823	2384.206726504614	0
2	1826	2392.437238142259	0
2	1831	2396.587668588645	2.488769854473
2	1834	2398.00796867838	2.415944323454
2	1835	2400.509435494905	2.898297331833
2	1841	2416.108488752259	0
2	1844	2417.694195729621	0
2	1847	2421.342090138813	0
2	1853	2423.766513436828	0
2	1858	2424.887377402697	0.392962762857
2	1859	2426.135982785835	1.411532756049
2	1865	2428.244262375269	0.181121512661
2	1868	2431.734198648221	1.688230651188
2	1873	2434.72696948832	1.975233384805
2	1874	2435.529559950482	0.999093526755
2	1877	2460.270663757201	0
2	1880	2463.856949318521	0
2	1883	2465.6253789052	0
2	1899	2484.32236483539	18.663886563835
2	1900	2486.038415315549	18.911524868925
2	1901	2487.078875822424	15.538696102428
2	1904	2489.276326785571	0
2	1909	2493.551496958424	3.969779386249
2	1910	2495.631654885965	6.008708633666
3	251	352.014996487087	60
3	252	355.531258636177	61
3	255	365.702908267247	62
3	258	370.246240683777	63
3	265	375.136471713095	64
3	271	377.578919634394	65
3	272	378.242131615358	66
3	273	378.644815693053	67
3	278	379.83518230094	68
3	279	380.272110520406	69
3	282	385.011162619382	70
3	285	386.410640041813	71
3	288	391.952832440451	72
3	291	397.731612706125	73
3	294	399.231945754952	74
3	297	406.929360647488	75
3	300	407.225397420167	76
3	303	413.383380288385	77
3	311	430.607393667511	78
3	312	432.443785424376	79
3	315	434.523915085828	80
3	318	438.364985445828	81
3	321	443.40804722479	82
3	324	447.360284265172	83
3	327	451.739889462494	84
3	330	453.428848736536	85
3	333	457.61438482372	86
3	341	475.020873875455	87
3	342	475.483190627553	88
3	348	484.696131265556	89
3	351	486.152359031053	90
3	363	499.000885457156	91
3	364	499.156405520864	92
3	365	500.640161789832	93
3	366	501.285343350756	94
3	369	505.070761967332	95
3	372	515.919260915188	96
3	378	523.963163200284	97
3	383	527.258347138696	98
3	384	527.405281826924	99
3	394	540.220179630561	100
3	395	541.125866076979	101
3	396	542.687371307968	102
3	399	545.123430449837	103
3	402	550.470540778606	104
3	405	552.818849545707	105
3	410	556.019047628328	106
3	411	556.712448133238	107
3	427	590.3381597702	108
3	428	590.399497372086	109
3	429	590.581046934126	110
3	430	591.078406594515	111
3	431	591.220482171799	112
3	432	592.187475573627	113
3	435	596.474493762142	114
3	438	597.262038720095	115
3	441	598.912320263327	116
3	444	618.346601541453	117
3	455	628.046714764488	118
3	456	628.139906995357	119
3	459	649.114890774263	120
3	462	650.810113971534	121
3	465	653.19905650833	122
3	510	726.058753561205	123
3	513	728.407173166445	124
3	514	728.828975586698	125
3	515	731.234828760421	126
3	516	731.74047571142	127
3	517	732.435072831432	128
3	518	732.452597516378	129
3	524	740.804254133951	130
3	525	742.066203296438	131
3	526	744.303473758453	132
3	527	747.358349188293	133
3	528	747.534566705775	134
3	529	747.880592142812	135
3	532	749.741441056429	136
3	533	750.51345730677	137
3	534	751.217019863135	138
3	537	753.718522920004	139
3	545	761.696030471758	140
3	546	763.160210835563	141
3	554	771.815382682814	142
3	555	773.611165975382	143
3	561	784.418430170048	144
3	564	789.918668541886	145
3	567	793.815177066971	146
3	572	799.844701325765	147
3	575	801.25934057027	148
3	576	801.819769980107	149
3	579	808.707628338565	150
3	582	811.720334200321	151
3	585	817.201690789947	152
3	588	817.75010232442	153
3	594	830.213562445982	154
3	599	831.893236113499	155
3	600	833.446384160354	156
3	603	834.229461403096	157
3	609	841.757022266915	158
3	614	842.790615609043	159
3	615	843.291940280904	160
3	623	852.029061854356	161
3	624	852.568378088925	162
3	630	858.461536579967	163
3	633	860.397518980681	164
3	636	861.865556713658	165
3	644	869.433221078762	166
3	647	871.717881415233	167
3	648	872.449071858718	168
3	651	875.028273533247	169
3	654	881.385830611667	170
3	659	881.884087974629	171
3	660	882.082998993919	172
3	665	883.092966686779	173
3	666	883.575420657716	174
3	669	884.98241582708	175
3	674	889.779385368209	176
3	675	893.209957479714	177
3	682	897.251088572201	178
3	683	898.073685189946	179
3	684	898.325134851151	180
3	687	905.197362011281	181
3	690	906.464904972982	182
3	693	911.58232255052	183
3	696	914.818752016819	184
3	699	917.940319120234	185
3	705	923.415760782577	186
3	708	930.640735422271	187
3	717	935.562803782219	188
3	720	942.855104517023	189
3	723	943.920785586186	190
3	728	949.403151437117	191
3	729	949.567422477193	192
3	732	958.832791070233	193
3	735	960.384041073443	194
3	738	970.16573071365	195
3	741	981.70858243771	196
3	744	985.791594824428	197
3	747	990.69007410976	198
3	750	997.357147335517	199
3	755	1003.159948982316	200
3	758	1003.652106343256	201
3	759	1004.955456967474	202
3	762	1007.09424416343	203
3	769	1009.323825860885	204
3	772	1009.910022658739	205
3	775	1011.66543076551	206
3	776	1012.604325521552	207
3	777	1012.989881062216	208
3	780	1019.728317913058	209
3	783	1022.140048931751	210
3	788	1027.845528152819	211
3	789	1028.017594774918	212
3	792	1030.347467384534	213
3	795	1031.537862046041	214
3	798	1047.869528551351	215
3	803	1052.686385831858	216
3	808	1054.334980601582	217
3	809	1054.366092876782	218
3	810	1055.561635155655	219
3	813	1055.858736501339	220
3	823	1067.348792690517	221
3	826	1071.208875368747	222
3	827	1071.519517029012	223
3	828	1071.605052817406	224
3	831	1073.808667881967	225
3	834	1077.705939787134	226
3	837	1086.658492257919	227
3	840	1105.846758426863	228
3	852	1117.349931739238	229
3	853	1117.597685798459	230
3	856	1119.659477997946	231
3	857	1119.804913596339	232
3	858	1121.553173516656	233
3	911	1187.01944271964	234
3	912	1188.25446310203	235
3	915	1188.982447344665	236
3	916	1190.08358390054	237
3	917	1190.888101559604	238
3	920	1192.655739250088	239
3	923	1193.472486598504	240
3	924	1194.311168448925	241
3	925	1199.381320522028	242
3	928	1199.687874115184	243
3	931	1203.995628227609	244
3	932	1204.299083329556	245
3	935	1206.072418426612	246
3	936	1206.78613839126	247
3	937	1206.998473538911	248
3	938	1208.407714712959	249
3	939	1209.371682589745	250
3	940	1212.129898790267	251
3	944	1218.677040090622	252
3	945	1220.275919813528	253
3	948	1223.831538686015	254
3	954	1250.5408126621	255
3	957	1251.062140066172	256
3	962	1251.64915425291	257
3	963	1252.693797815437	258
3	966	1255.33776929658	259
3	969	1264.241802191708	260
3	974	1268.477689341647	261
3	975	1268.570886422259	262
3	983	1277.395384747977	263
3	984	1277.641301064677	264
3	987	1283.690713794463	265
3	992	1285.473881537976	266
3	995	1286.756460351524	267
3	996	1287.705899427733	268
3	999	1290.193448167035	269
3	1002	1291.141389623344	270
3	1007	1306.243530100689	271
3	1008	1308.622054249787	272
3	1011	1316.468799434077	273
3	1021	1330.523587586886	274
3	1022	1332.475285607942	275
3	1023	1333.605535396626	276
3	1026	1334.758424685835	277
3	1029	1335.716390474477	278
3	1032	1337.919444934235	279
3	1035	1338.153343908219	280
3	1038	1341.725766284541	281
3	1043	1347.264235177675	282
3	1044	1347.812663520902	283
3	1049	1355.571201285452	284
3	1050	1356.507717993743	285
3	1053	1358.052643991959	286
3	1056	1361.580449632876	287
3	1062	1368.680075327455	288
3	1067	1371.690494908998	289
3	1068	1373.162133148066	290
3	1071	1376.133990480722	291
3	1074	1377.453153022344	292
3	1077	1377.811835138908	293
3	1080	1383.439596027564	294
3	1083	1393.856297938718	295
3	1088	1399.586438555267	296
3	1089	1399.791811168014	297
3	1092	1405.020070110611	298
3	1095	1411.305466946639	299
3	1108	1431.666690887073	300
3	1109	1432.952142279768	301
3	1112	1434.964931817433	302
3	1113	1435.278129408444	303
3	1116	1438.065505274119	304
3	1126	1460.027259308085	305
3	1127	1461.196050347262	306
3	1128	1461.338672965334	307
3	1133	1501.272308813144	308
3	1134	1502.896322396685	309
3	1141	1507.718485577995	310
3	1142	1508.565226793134	311
3	1143	1509.017678675046	312
3	1146	1511.402724384123	313
3	1167	1543.631481252907	314
3	1168	1545.27632803697	315
3	1174	1546.797827769645	316
3	1175	1547.017364307361	317
3	1176	1547.234446023645	318
3	1177	1549.071861899693	319
3	1180	1550.163461209851	320
3	1181	1550.445019778659	321
3	1182	1551.221467756494	322
3	1185	1555.788879584586	323
3	1188	1559.595401914696	324
3	1191	1565.126560476714	325
3	1194	1568.41194251458	326
3	1201	1577.764025806003	327
3	1202	1578.145926602926	328
3	1207	1579.010719450093	329
3	1208	1579.69382222519	330
3	1222	1600.751516828927	331
3	1223	1604.599337322249	332
3	1224	1605.438178840961	333
3	1225	1606.490977851412	334
3	1226	1606.929833646923	335
3	1227	1606.99045617216	336
3	1230	1608.428938141418	337
3	1236	1617.55512162053	338
3	1239	1619.346822599839	339
3	1242	1623.456514099821	340
3	1245	1623.937397923921	341
3	1248	1627.202113804841	342
3	1251	1639.90885153949	343
3	1256	1647.762835172022	344
3	1257	1648.21902637509	345
3	1260	1656.203531709203	346
3	1263	1657.077058827389	347
3	1266	1658.476059319018	348
3	1269	1658.931017662107	349
3	1274	1660.848989588437	350
3	1275	1661.406416806589	351
3	1281	1674.09208141295	352
3	1284	1680.9623015009	353
3	1287	1688.970571695798	354
3	1290	1693.075803827861	355
3	1293	1699.261790164582	356
3	1296	1703.891061658764	357
3	1299	1720.604478951286	358
3	1302	1722.447788916479	359
3	1305	1723.632575821646	360
3	1308	1728.089266404645	361
3	1311	1730.505159174404	362
3	1314	1738.00529329759	363
3	1317	1746.932258811465	364
3	1320	1750.628361000431	365
3	1326	1763.255300861257	366
3	1329	1772.81862784133	367
3	1343	1794.658676605018	368
3	1344	1795.215807642896	369
3	1347	1796.062966954046	370
3	1348	1796.891753081604	371
3	1349	1797.608673297965	372
3	1350	1798.628020401792	373
3	1353	1799.374065347449	374
3	1356	1808.737144793437	375
3	1359	1813.979796247352	376
3	1364	1819.247665159931	377
3	1365	1819.703584202175	378
3	1368	1821.409819702513	379
3	1378	1837.615690269015	380
3	1379	1837.760127441624	381
3	1383	1840.062674964808	382
3	1386	1845.840840769787	383
3	1391	1849.489879412912	384
3	1392	1850.528802511978	385
3	1395	1850.855285454912	386
3	1398	1852.184754659928	387
3	1401	1853.293438206477	388
3	1406	1855.24436469524	389
3	1407	1855.490338711258	390
3	1413	1862.657415393384	391
3	1423	1876.756199795845	392
3	1426	1879.061431646258	393
3	1427	1879.731515022672	394
3	1428	1880.290027366283	395
3	1431	1880.707117372231	396
3	1446	1902.549943158022	397
3	1452	1913.661418903363	398
3	1455	1914.015870632881	399
3	1456	1916.813506455585	400
3	1457	1917.459050618872	401
3	1460	1917.971525121637	402
3	1461	1918.734158634013	403
3	1464	1928.214822238587	404
3	1467	1929.134705510668	405
3	1470	1935.31841527148	406
3	1475	1947.697267321869	407
3	1478	1948.409561266113	408
3	1479	1949.004973865166	409
3	1482	1951.306089890095	410
3	1485	1951.801106594191	411
3	1488	1955.834338118411	412
3	1491	1962.70519204116	413
3	1494	1972.081553737412	414
3	1497	1977.559997693374	415
3	1500	1979.740788388774	416
3	1506	1989.255675921753	417
3	1509	1990.634816252849	418
3	1512	1999.990822994351	419
3	1515	2002.364116847478	420
3	1518	2016.235476816641	421
3	1521	2023.487487306355	422
3	1540	2044.281423096405	423
3	1541	2044.734478961222	424
3	1542	2046.255879216313	425
3	1545	2047.225308168147	426
3	1551	2056.426490323004	427
3	1556	2061.181814645799	428
3	1557	2061.184489534763	429
3	1560	2064.493608819315	430
3	1563	2065.466188799153	431
3	1572	2070.299627056784	432
3	1575	2071.464452272401	433
3	1586	2077.505795941216	434
3	1589	2078.270801991114	435
3	1590	2083.282405221709	436
3	1591	2083.627954233818	437
3	1592	2083.675651150719	438
3	1593	2084.830298877499	439
3	1596	2089.244354820914	440
3	1599	2091.516654412748	441
3	1602	2092.759552163213	442
3	1608	2104.094384507991	443
3	1615	2119.499563865028	444
3	1616	2120.022958015455	445
3	1621	2121.577526434876	446
3	1622	2124.051281891269	447
3	1623	2124.329931436693	448
3	1626	2127.121286241987	449
3	1629	2128.683788684553	450
3	1632	2134.723365743447	451
3	1635	2135.498613969453	452
3	1638	2140.656752481887	453
3	1644	2146.094399899231	454
3	1653	2163.080781312935	455
3	1656	2167.996175182142	456
3	1662	2186.57064260454	457
3	1665	2190.910588157274	458
3	1668	2196.340383385953	459
3	1671	2199.872225028683	460
3	1674	2200.935257226065	461
3	1680	2208.854967194622	462
3	1683	2209.537927586231	463
3	1686	2211.464620217554	464
3	1689	2214.00040793931	465
3	1695	2219.923652775545	466
3	1698	2242.190648884469	467
3	1701	2247.448712364398	468
3	1714	2261.298733882675	469
3	1715	2261.854256928708	470
3	1716	2261.90370778	471
3	1719	2268.480717215591	472
3	1722	2278.412340454598	473
3	1725	2279.631954311804	474
3	1734	2289.859127558382	475
3	1737	2292.963953538478	476
3	1740	2294.205586308607	477
3	1743	2294.69425576203	478
3	1751	2304.456453856035	479
3	1752	2306.807217573101	480
3	1755	2311.111998920081	481
3	1803	2358.529552962981	482
3	1804	2358.720366444553	483
3	1805	2360.229198270702	484
3	1806	2360.521010149597	485
3	1807	2360.992127577467	486
3	1810	2363.206397178345	487
3	1811	2366.616709782775	488
3	1812	2366.689858696213	489
3	1813	2369.112002500331	490
3	1814	2369.574692011551	491
3	1815	2370.093379450511	492
3	1821	2381.274742377443	493
3	1824	2385.676886284273	494
3	1831	2396.587668588645	495
3	1834	2398.00796867838	496
3	1835	2400.509435494905	497
3	1836	2400.655601384979	498
3	1842	2416.440662899898	499
3	1845	2418.0519500701	500
3	1848	2421.362645453579	501
3	1858	2424.887377402697	502
3	1859	2426.135982785835	503
3	1860	2426.976953795552	504
3	1868	2431.734198648221	505
3	1874	2435.529559950482	506
3	1875	2435.686255880908	507
3	1878	2461.229793820076	508
3	1881	2463.86418506489	509
3	1900	2486.038415315549	510
3	1901	2487.078875822424	511
3	1902	2487.548070096753	512
3	1909	2493.551496958424	513
3	1910	2495.631654885965	514
3	1911	2498.285605436127	515
4	251	352.014996487087	0.377196560294
4	252	355.531258636177	3.714560232236
4	255	365.702908267247	1.007594995962
4	258	370.246240683777	1.723555860233
4	265	375.136471713095	3.44371153934
4	271	377.578919634394	3.70577044163
4	272	378.242131615358	2.850816566476
4	273	378.644815693053	2.927853838642
4	278	379.83518230094	0.742802976183
4	279	380.272110520406	0.949184714435
4	282	385.011162619382	0.045676106359
4	285	386.410640041813	0.082328140043
4	288	391.952832440451	0.650063089639
4	291	397.731612706125	0.811737897053
4	294	399.231945754952	0.108948062035
4	297	406.929360647488	0.181275462691
4	300	407.225397420167	0.132436054363
4	303	413.383380288385	0.349894877169
4	311	430.607393667511	6.517640333474
4	312	432.443785424376	6.359440788627
4	315	434.523915085828	0.015635862367
4	318	438.364985445828	0.450298281754
4	321	443.40804722479	0.17747456713
4	324	447.360284265172	0.416749500323
4	327	451.739889462494	1.323267281202
4	330	453.428848736536	1.239260661892
4	333	457.61438482372	0.079021601823
4	341	475.020873875455	14.375717730583
4	342	475.483190627553	12.353588520192
4	348	484.696131265556	0.639393861907
4	351	486.152359031053	0.122435665844
4	363	499.000885457156	9.493864103852
4	364	499.156405520864	5.955610565588
4	365	500.640161789832	4.901275880353
4	366	501.285343350756	2.998683330256
4	369	505.070761967332	0.276076068731
4	372	515.919260915188	2.272630650717
4	378	523.963163200284	0.365567280133
4	383	527.258347138696	1.464136068389
4	384	527.405281826924	1.478480495288
4	394	540.220179630561	5.435024886864
4	395	541.125866076979	4.628138780473
4	396	542.687371307968	5.522482766771
4	399	545.123430449837	0.177416246774
4	402	550.470540778606	2.32716528468
4	405	552.818849545707	1.621142218568
4	410	556.019047628328	1.724266892126
4	411	556.712448133238	2.382904460721
4	427	590.3381597702	24.301856013807
4	428	590.399497372086	21.645283269735
4	429	590.581046934126	20.198432049249
4	430	591.078406594515	18.688365814847
4	431	591.220482171799	15.28980822997
4	432	592.187475573627	11.62317512947
4	435	596.474493762142	1.383351383151
4	438	597.262038720095	0.208491224275
4	441	598.912320263327	1.007234959454
4	444	618.346601541453	0.558421326946
4	455	628.046714764488	2.695229343874
4	456	628.139906995357	0.828147707367
4	459	649.114890774263	0.326490110589
4	462	650.810113971534	1.319123450903
4	465	653.19905650833	0.612041222089
4	510	726.058753561205	69.511394580188
4	513	728.407173166445	65.759852904756
4	514	728.828975586698	63.965988692999
4	515	731.234828760421	62.275655577894
4	516	731.74047571142	62.705734458551
4	517	732.435072831432	52.430730203061
4	518	732.452597516378	51.941246944504
4	524	740.804254133951	32.994380731227
4	525	742.066203296438	32.586138294175
4	526	744.303473758453	32.039034373223
4	527	747.358349188293	31.99894114226
4	528	747.534566705775	31.07222565191
4	529	747.880592142812	19.601810298039
4	532	749.741441056429	16.570478356937
4	533	750.51345730677	16.602485175345
4	534	751.217019863135	2.932445598178
4	537	753.718522920004	0.321677832357
4	545	761.696030471758	2.463136604453
4	546	763.160210835563	2.348947582636
4	554	771.815382682814	3.196941360275
4	555	773.611165975382	4.297461464674
4	561	784.418430170048	0.015542050623
4	564	789.918668541886	2.315633061734
4	567	793.815177066971	0.016412300831
4	572	799.844701325765	3.569317265312
4	575	801.25934057027	3.866713221096
4	576	801.819769980107	1.830500010885
4	579	808.707628338565	0.50514389582
4	582	811.720334200321	1.158630810989
4	585	817.201690789947	1.574315582824
4	588	817.75010232442	0.394936941461
4	594	830.213562445982	3.941958696098
4	599	831.893236113499	1.596962008887
4	600	833.446384160354	2.608023457842
4	603	834.229461403096	0.570095150893
4	609	841.757022266915	6.508417862643
4	614	842.790615609043	0.713746685318
4	615	843.291940280904	0.598305416247
4	623	852.029061854356	3.302659735888
4	624	852.568378088925	1.787598409683
4	630	858.461536579967	0.191062627656
4	633	860.397518980681	0.83144555094
4	636	861.865556713658	0.60229334702
4	644	869.433221078762	2.909702554774
4	647	871.717881415233	4.013760032603
4	648	872.449071858718	2.096712719273
4	651	875.028273533247	1.168873144053
4	654	881.385830611667	0.552876174936
4	659	881.884087974629	0.33683030638
4	660	882.082998993919	0.476120132221
4	665	883.092966686779	0.546217061584
4	666	883.575420657716	0.840413951181
4	669	884.98241582708	0.83914626066
4	674	889.779385368209	0.479631079197
4	675	893.209957479714	3.692201338251
4	682	897.251088572201	3.200768366221
4	683	898.073685189946	2.739948260634
4	684	898.325134851151	1.648592156286
4	687	905.197362011281	3.60690188348
4	690	906.464904972982	0.100131076339
4	693	911.58232255052	0.187523929048
4	696	914.818752016819	0.953980788606
4	699	917.940319120234	0.269063631323
4	705	923.415760782577	0.25782074921
4	708	930.640735422271	0.835388361084
4	717	935.562803782219	2.208512542335
4	720	942.855104517023	1.059338521723
4	723	943.920785586186	0.187168540747
4	728	949.403151437117	3.320666709969
4	729	949.567422477193	1.073391312756
4	732	958.832791070233	2.166967779967
4	735	960.384041073443	1.2642642889
4	738	970.16573071365	0.459223301399
4	741	981.70858243771	0.755475579185
4	744	985.791594824428	0.418290265339
4	747	990.69007410976	0.567883614739
4	750	997.357147335517	1.901606910544
4	755	1003.159948982316	2.046689605897
4	758	1003.652106343256	0.823322359302
4	759	1004.955456967474	1.417164332545
4	762	1007.09424416343	1.097835694973
4	769	1009.323825860885	1.664572642315
4	772	1009.910022658739	1.569920882109
4	775	1011.66543076551	3.186026362538
4	776	1012.604325521552	2.928483339674
4	777	1012.989881062216	1.829573558762
4	780	1019.728317913058	1.534429334164
4	783	1022.140048931751	2.059867133154
4	788	1027.845528152819	3.44126969864
4	789	1028.017594774918	3.133439350219
4	792	1030.347467384534	0.467236313712
4	795	1031.537862046041	0.583889177431
4	798	1047.869528551351	1.116952325032
4	803	1052.686385831858	4.071410750831
4	808	1054.334980601582	5.225027179714
4	809	1054.366092876782	1.67422377012
4	810	1055.561635155655	2.186502568017
4	813	1055.858736501339	0.240457878279
4	823	1067.348792690517	8.829861900929
4	826	1071.208875368747	6.127729133359
4	827	1071.519517029012	5.178601390318
4	828	1071.605052817406	1.971949889367
4	831	1073.808667881967	0.38346081609
4	834	1077.705939787134	0.098600672954
4	837	1086.658492257919	0.174311299634
4	840	1105.846758426863	0.728825557317
4	852	1117.349931739238	7.597571505029
4	853	1117.597685798459	4.496498176723
4	856	1119.659477997946	5.53306451798
4	857	1119.804913596339	4.210391819042
4	858	1121.553173516656	3.557908936915
4	911	1187.01944271964	48.19475979087
4	912	1188.25446310203	48.569777289528
4	915	1188.982447344665	43.222382956031
4	916	1190.08358390054	39.078779057545
4	917	1190.888101559604	38.419502419668
4	920	1192.655739250088	40.152031612651
4	923	1193.472486598504	33.804133562127
4	924	1194.311168448925	34.179942821406
4	925	1199.381320522028	37.627991700325
4	928	1199.687874115184	35.174714873005
4	931	1203.995628227609	39.251616719486
4	932	1204.299083329556	35.357229823076
4	935	1206.072418426612	29.156118766415
4	936	1206.78613839126	23.559604368815
4	937	1206.998473538911	18.556893434381
4	938	1208.407714712959	16.335310681469
4	939	1209.371682589745	16.71218557414
4	940	1212.129898790267	12.712137290139
4	944	1218.677040090622	12.724986504001
4	945	1220.275919813528	3.98460561044
4	948	1223.831538686015	0.286867597246
4	954	1250.5408126621	0.566116809872
4	957	1251.062140066172	0.412440834009
4	962	1251.64915425291	0.130160857449
4	963	1252.693797815437	1.054152067698
4	966	1255.33776929658	0.995027630268
4	969	1264.241802191708	0.681721972545
4	974	1268.477689341647	1.458345036837
4	975	1268.570886422259	0.431532255437
4	983	1277.395384747977	3.519409131037
4	984	1277.641301064677	0.886465135115
4	987	1283.690713794463	0.131517686602
4	992	1285.473881537976	0.537937406538
4	995	1286.756460351524	1.586584545527
4	996	1287.705899427733	1.999879564388
4	999	1290.193448167035	0.313883767865
4	1002	1291.141389623344	0.395876259241
4	1007	1306.243530100689	0.307237514374
4	1008	1308.622054249787	2.461126155883
4	1011	1316.468799434077	0.224774240885
4	1021	1330.523587586886	12.727914123221
4	1022	1332.475285607942	13.526342782531
4	1023	1333.605535396626	4.398236701831
4	1026	1334.758424685835	0.827358329048
4	1029	1335.716390474477	0.85018313954
4	1032	1337.919444934235	0.313112434858
4	1035	1338.153343908219	0.068758735699
4	1038	1341.725766284541	0.649491269245
4	1043	1347.264235177675	0.402625967434
4	1044	1347.812663520902	0.726039888337
4	1049	1355.571201285452	0.649972774599
4	1050	1356.507717993743	1.552142597902
4	1053	1358.052643991959	1.290790833228
4	1056	1361.580449632876	1.268651642158
4	1062	1368.680075327455	0.071556661949
4	1067	1371.690494908998	0.619971758126
4	1068	1373.162133148066	1.835101893493
4	1071	1376.133990480722	0.488991540176
4	1074	1377.453153022344	0.547824771763
4	1077	1377.811835138908	0.055337920344
4	1080	1383.439596027564	0.815177112177
4	1083	1393.856297938718	0.039073601513
4	1088	1399.586438555267	1.904018006645
4	1089	1399.791811168014	2.053595843369
4	1092	1405.020070110611	0.953006427806
4	1095	1411.305466946639	0.029871636652
4	1108	1431.666690887073	9.925652126612
4	1109	1432.952142279768	3.795815791706
4	1112	1434.964931817433	4.6912148155
4	1113	1435.278129408444	0.75198849153
4	1116	1438.065505274119	1.107888746405
4	1126	1460.027259308085	3.122424178834
4	1127	1461.196050347262	1.866605725585
4	1128	1461.338672965334	1.965652414467
4	1133	1501.272308813144	1.416491742129
4	1134	1502.896322396685	2.285222518757
4	1141	1507.718485577995	3.524641001217
4	1142	1508.565226793134	3.169813304317
4	1143	1509.017678675046	2.227956095956
4	1146	1511.402724384123	1.463829449003
4	1167	1543.631481252907	30.146574232673
4	1168	1545.27632803697	23.537192300796
4	1174	1546.797827769645	18.186128773924
4	1175	1547.017364307361	13.715315220414
4	1176	1547.234446023645	11.263966216955
4	1177	1549.071861899693	5.464970983706
4	1180	1550.163461209851	4.644712501983
4	1181	1550.445019778659	4.535717937007
4	1182	1551.221467756494	1.785807614984
4	1185	1555.788879584586	0.521026506868
4	1188	1559.595401914696	1.100261092339
4	1191	1565.126560476714	1.772362377241
4	1194	1568.41194251458	1.194482507153
4	1201	1577.764025806003	2.761603751847
4	1202	1578.145926602926	3.010149290139
4	1207	1579.010719450093	3.42729206309
4	1208	1579.69382222519	1.36162090405
4	1222	1600.751516828927	20.829410956926
4	1223	1604.599337322249	20.305650290672
4	1224	1605.438178840961	18.682587237278
4	1225	1606.490977851412	13.487610419984
4	1226	1606.929833646923	10.69545863023
4	1227	1606.99045617216	7.067558589116
4	1230	1608.428938141418	1.246261332589
4	1236	1617.55512162053	2.589478934073
4	1239	1619.346822599839	0.245047362467
4	1242	1623.456514099821	0.963197614967
4	1245	1623.937397923921	0.254599897457
4	1248	1627.202113804841	0.24498185637
4	1251	1639.90885153949	0.418942001173
4	1256	1647.762835172022	2.502711504676
4	1257	1648.21902637509	1.908194420311
4	1260	1656.203531709203	0.992086980791
4	1263	1657.077058827389	0.51501426305
4	1266	1658.476059319018	0.714263630473
4	1269	1658.931017662107	0.409007082261
4	1274	1660.848989588437	1.437059908215
4	1275	1661.406416806589	0.941893101676
4	1281	1674.09208141295	1.09506555001
4	1284	1680.9623015009	1.939305810052
4	1287	1688.970571695798	0.132242820922
4	1290	1693.075803827861	0.049817313002
4	1293	1699.261790164582	1.840852939255
4	1296	1703.891061658764	0.157443251363
4	1299	1720.604478951286	0.119061897766
4	1302	1722.447788916479	1.046156263634
4	1305	1723.632575821646	0.375925819272
4	1308	1728.089266404645	1.571694796627
4	1311	1730.505159174404	1.942815385303
4	1314	1738.00529329759	0.133242723763
4	1317	1746.932258811465	0.814962835753
4	1320	1750.628361000431	0.492844061551
4	1326	1763.255300861257	1.348759685063
4	1329	1772.81862784133	0.533446684389
4	1343	1794.658676605018	5.449268396555
4	1344	1795.215807642896	5.781281428836
4	1347	1796.062966954046	5.891150269985
4	1348	1796.891753081604	5.033750334367
4	1349	1797.608673297965	3.922323705909
4	1350	1798.628020401792	3.120007554279
4	1353	1799.374065347449	0.535995516093
4	1356	1808.737144793437	0.159474257662
4	1359	1813.979796247352	1.446750121229
4	1364	1819.247665159931	0.22862744542
4	1365	1819.703584202175	0.515407064876
4	1368	1821.409819702513	0.05081067138
4	1378	1837.615690269015	11.41484601126
4	1379	1837.760127441624	8.765021712276
4	1383	1840.062674964808	1.562026320957
4	1386	1845.840840769787	1.520803554095
4	1391	1849.489879412912	0.858908562689
4	1392	1850.528802511978	1.416526350756
4	1395	1850.855285454912	0.15762138898
4	1398	1852.184754659928	0.406096057086
4	1401	1853.293438206477	0.281190778726
4	1406	1855.24436469524	0.543056913995
4	1407	1855.490338711258	0.411674817705
4	1413	1862.657415393384	0.493602009305
4	1423	1876.756199795845	3.371197790959
4	1426	1879.061431646258	4.743092112179
4	1427	1879.731515022672	3.291512397046
4	1428	1880.290027366283	2.745325381684
4	1431	1880.707117372231	0.312936300731
4	1446	1902.549943158022	9.695107533848
4	1452	1913.661418903363	14.877941174866
4	1455	1914.015870632881	14.594825922779
4	1456	1916.813506455585	13.980464633492
4	1457	1917.459050618872	14.217636047702
4	1460	1917.971525121637	4.306845558752
4	1461	1918.734158634013	0.778925595381
4	1464	1928.214822238587	0.087704594017
4	1467	1929.134705510668	0.755603264094
4	1470	1935.31841527148	3.937521951425
4	1475	1947.697267321869	0.608705369194
4	1478	1948.409561266113	1.007604073115
4	1479	1949.004973865166	0.700312221152
4	1482	1951.306089890095	0.082707995974
4	1485	1951.801106594191	0.183895034951
4	1488	1955.834338118411	0.374939061914
4	1491	1962.70519204116	0.474012230667
4	1494	1972.081553737412	1.863589780725
4	1497	1977.559997693374	2.776958233849
4	1500	1979.740788388774	1.210453057533
4	1506	1989.255675921753	1.369118679765
4	1509	1990.634816252849	1.218930647605
[...]
4	1701	2247.448712364398	0.553997181705
4	1714	2261.298733882675	5.0796004133
4	1715	2261.854256928708	5.328002622531
4	1716	2261.90370778	1.115388374207
4	1719	2268.480717215591	0.501387220019
4	1722	2278.412340454598	1.832146712639
4	1725	2279.631954311804	0.435883045922
4	1734	2289.859127558382	1.048418217385
4	1737	2292.963953538478	0.772575136306
4	1740	2294.205586308607	0.635689354424
4	1743	2294.69425576203	0.167689898617
4	1751	2304.456453856035	8.56629256256
4	1752	2306.807217573101	7.128761479954
4	1755	2311.111998920081	1.059306852668
4	1803	2358.529552962981	40.434517436685
4	1804	2358.720366444553	32.536351065845
4	1805	2360.229198270702	33.035341452037
4	1806	2360.521010149597	31.366181414396
4	1807	2360.992127577467	31.512164073822
4	1810	2363.206397178345	28.649488996664
4	1811	2366.616709782775	26.679231514364
4	1812	2366.689858696213	19.099801480443
4	1813	2369.112002500331	17.951529773202
4	1814	2369.574692011551	11.184033334295
4	1815	2370.093379450511	7.38875754279
4	1821	2381.274742377443	0.922555478101
4	1824	2385.676886284273	1.470159779659
4	1831	2396.587668588645	4.150430446386
4	1834	2398.00796867838	3.909069944208
4	1835	2400.509435494905	4.917411139979
4	1836	2400.655601384979	3.044463221907
4	1842	2416.440662899898	0.332174147639
4	1845	2418.0519500701	0.357754340479
4	1848	2421.362645453579	0.020555314766
4	1858	2424.887377402697	1.120863965869
4	1859	2426.135982785835	1.641568145995
4	1860	2426.976953795552	2.252503765766
4	1868	2431.734198648221	3.671057785613
4	1874	2435.529559950482	2.777823846967
4	1875	2435.686255880908	1.155789457181
4	1878	2461.229793820076	0.959130062875
4	1881	2463.86418506489	0.007235746369
4	1900	2486.038415315549	20.379937043994
4	1901	2487.078875822424	19.9519853758
4	1902	2487.548070096753	16.007890376757
4	1909	2493.551496958424	4.275170172853
4	1910	2495.631654885965	6.04993731379
4	1911	2498.285605436127	8.662659183828
5	267	375.391315048882	1
5	305	416.09885070976	1
5	335	457.766007587543	1
5	344	476.548788404644	1
5	353	486.357315170998	1
5	374	519.361765448563	1
5	386	529.267700894395	1
5	413	564.300560389618	1
5	446	619.011098646388	1
5	451	625.351485420614	1
5	469	656.547358981017	1
5	483	692.763323156002	2
5	488	703.740050135436	2
5	494	710.380849687831	3
5	504	720.453856391853	2
5	507	723.431017966754	2
5	522	733.910972131425	1
5	539	758.996673827888	1
5	548	766.656699326265	1
5	557	779.450215402787	1
5	590	818.983464402905	1
5	607	835.248604404272	1
5	617	843.367700009282	1
5	626	853.109086923126	1
5	638	863.83902178876	1
5	701	920.493155444247	1
5	710	931.651819903604	1
5	712	933.345352980081	2
5	817	1058.518930789588	1
5	842	1108.361782751192	1
5	860	1132.694596718756	1
5	863	1136.108807583738	1
5	865	1136.333826018112	2
5	876	1148.078871593158	2
5	890	1163.720581410365	3
5	897	1168.488416785386	3
5	903	1173.076299037651	2
5	907	1176.916299660197	1
5	942	1216.291314203088	1
5	950	1230.755115960214	1
5	977	1272.682469325331	1
5	1013	1317.361855239214	1
5	1058	1361.686355425169	1
5	1097	1413.14304119274	1
5	1100	1419.219797478038	1
5	1118	1455.374959090924	1
5	1148	1512.613832586893	1
5	1156	1526.463072663728	2
5	1170	1545.518748707868	1
5	1210	1579.922105872001	1
5	1232	1614.647544777863	1
5	1277	1669.12752658445	1
5	1322	1752.69058199458	1
5	1331	1784.36714221366	1
5	1370	1826.11813210479	1
5	1381	1838.500648643851	1
5	1411	1862.163813384079	1
5	1415	1870.862406747146	1
5	1433	1881.496160769119	1
5	1435	1883.79523115591	2
5	1450	1903.24141457117	1
5	1502	1986.939751930008	1
5	1523	2024.452246727987	1
5	1527	2027.727541502782	2
5	1529	2030.661302349244	3
5	1533	2037.18732466916	4
5	1547	2049.562016438356	1
5	1577	2073.58352631853	1
5	1579	2074.263168382427	2
5	1604	2095.128767516438	1
5	1642	2143.862823377282	1
5	1646	2148.922937466807	1
5	1648	2150.669734305564	2
5	1658	2183.044205315737	1
5	1676	2202.435043403632	1
5	1691	2216.788444128043	1
5	1703	2249.729384129566	1
5	1706	2251.367958607534	1
5	1727	2279.690247357455	1
5	1729	2280.385384205945	2
5	1745	2294.765771610817	1
5	1757	2311.466960642226	1
5	1759	2314.816185985176	2
5	1762	2318.058885096036	2
5	1766	2321.349749090659	3
5	1771	2326.870960380821	3
5	1775	2327.4267847295	4
5	1777	2328.107968982309	5
5	1783	2332.981509177791	6
5	1798	2354.319388697645	2
5	1817	2370.218810734865	1
5	1838	2408.760504512205	1
5	1850	2422.9459360675	1
5	1862	2427.402652917027	1
5	1870	2432.751736103515	1
5	1885	2465.658478271555	1
5	1891	2472.320315154536	2
5	1894	2473.889202106358	2
5	1897	2478.649007051707	2
5	1913	2498.862924785266	1
6	267	375.391315048882	0
6	270	376.452877082859	0
6	305	416.09885070976	0
6	310	428.285051721609	0
6	335	457.766007587543	0
6	340	474.98865254556	0
6	344	476.548788404644	0
6	345	477.751610388222	0
6	353	486.357315170998	0
6	360	497.685695660876	0
6	374	519.361765448563	0
6	375	521.171188623144	0
6	386	529.267700894395	0
6	389	535.506429871272	0
6	413	564.300560389618	0
6	426	586.878864834208	0
6	446	619.011098646388	0
6	447	621.457658757041	0
6	451	625.351485420614	0
6	452	626.379732136594	0
6	469	656.547358981017	0
6	483	692.763323156002	1
6	484	692.864500273431	1
6	488	703.740050135436	1
6	494	710.380849687831	2
6	497	715.290266955163	2
6	500	715.422295031566	1
6	504	720.453856391853	1
6	505	722.355451729889	1
6	507	723.431017966754	1
6	508	724.458636052457	1
6	509	725.71626145367	0
6	522	733.910972131425	0
6	523	740.172456031577	0
6	539	758.996673827888	0
6	542	759.796953700521	0
6	548	766.656699326265	0
6	553	770.52129807755	0
6	557	779.450215402787	0
6	558	783.076401160694	0
6	590	818.983464402905	0
6	593	828.467569237987	0
6	607	835.248604404272	0
6	608	837.755112640667	0
6	617	843.367700009282	0
6	620	850.587979110059	0
6	626	853.109086923126	0
6	627	853.471295946451	0
6	638	863.83902178876	0
6	643	869.230322184583	0
6	701	920.493155444247	0
6	702	922.557309556843	0
6	710	931.651819903604	0
6	712	933.345352980081	1
6	715	934.431674416005	1
6	716	934.487167339232	0
6	817	1058.518930789588	0
6	820	1065.759693866257	0
6	842	1108.361782751192	0
6	851	1115.656707159248	0
6	860	1132.694596718756	0
6	861	1134.376552513114	0
6	863	1136.108807583738	0
6	865	1136.333826018112	1
6	874	1146.494912721454	1
6	876	1148.078871593158	1
6	890	1163.720581410365	2
6	895	1166.349841767036	2
6	897	1168.488416785386	2
6	900	1170.163339130812	2
6	901	1172.718694317962	1
6	903	1173.076299037651	1
6	904	1173.15964241773	1
6	905	1176.203307319422	0
6	907	1176.916299660197	0
6	910	1185.612073974925	0
6	942	1216.291314203088	0
6	943	1217.466512215077	0
6	950	1230.755115960214	0
6	951	1234.266874963928	0
6	977	1272.682469325331	0
6	982	1277.089681267859	0
6	1013	1317.361855239214	0
6	1018	1328.03107468209	0
6	1058	1361.686355425169	0
6	1059	1362.017841407566	0
6	1097	1413.14304119274	0
6	1098	1414.099123901939	0
6	1100	1419.219797478038	0
6	1107	1431.509958238804	0
6	1118	1455.374959090924	0
6	1121	1457.953797209876	0
6	1148	1512.613832586893	0
6	1156	1526.463072663728	1
6	1161	1533.588758894924	1
6	1164	1542.511482998172	0
6	1170	1545.518748707868	0
6	1173	1546.365434320981	0
6	1210	1579.922105872001	0
6	1219	1599.158546080068	0
6	1232	1614.647544777863	0
6	1235	1617.544838278715	0
6	1277	1669.12752658445	0
6	1280	1673.954468898264	0
6	1322	1752.69058199458	0
6	1323	1752.912652511472	0
6	1331	1784.36714221366	0
6	1342	1794.565195428115	0
6	1370	1826.11813210479	0
6	1377	1837.536494347759	0
6	1381	1838.500648643851	0
6	1382	1839.931577299194	0
6	1411	1862.163813384079	0
6	1412	1862.583255820495	0
6	1415	1870.862406747146	0
6	1420	1876.012979832493	0
6	1433	1881.496160769119	0
6	1435	1883.79523115591	1
6	1444	1900.013757905231	1
6	1445	1901.800352648649	0
6	1450	1903.24141457117	0
6	1451	1911.903692606742	0
6	1502	1986.939751930008	0
6	1505	1988.347327886568	0
6	1523	2024.452246727987	0
6	1527	2027.727541502782	1
6	1529	2030.661302349244	2
6	1533	2037.18732466916	3
6	1536	2037.748273289583	3
6	1537	2041.696824587789	2
6	1538	2042.886910112381	1
6	1539	2043.524718331723	0
6	1547	2049.562016438356	0
6	1548	2050.310073293457	0
6	1577	2073.58352631853	0
6	1579	2074.263168382427	1
6	1582	2075.684618661842	1
6	1585	2077.45716668429	0
6	1604	2095.128767516438	0
6	1605	2100.124235631169	0
6	1642	2143.862823377282	0
6	1643	2144.02732633626	0
6	1646	2148.922937466807	0
6	1648	2150.669734305564	1
6	1651	2157.828575973087	1
6	1652	2162.737954251503	0
6	1658	2183.044205315737	0
6	1661	2185.239737963008	0
6	1676	2202.435043403632	0
6	1679	2206.342482211404	0
6	1691	2216.788444128043	0
6	1692	2218.13053337151	0
6	1703	2249.729384129566	0
6	1704	2251.072627032836	0
6	1706	2251.367958607534	0
6	1711	2259.466292237981	0
6	1727	2279.690247357455	0
6	1729	2280.385384205945	1
6	1730	2280.652934238308	1
6	1731	2285.281015368432	0
6	1745	2294.765771610817	0
6	1750	2300.743067949671	0
6	1757	2311.466960642226	0
6	1759	2314.816185985176	1
6	1760	2314.869400251368	1
6	1762	2318.058885096036	1
6	1766	2321.349749090659	2
6	1767	2321.460661274425	2
6	1771	2326.870960380821	2
6	1775	2327.4267847295	3
6	1777	2328.107968982309	4
6	1783	2332.981509177791	5
6	1786	2334.979793616136	5
6	1787	2337.053960433048	4
6	1790	2342.347723405079	3
6	1791	2346.133988564157	2
6	1796	2351.813214512701	1
6	1798	2354.319388697645	1
6	1799	2355.01411389156	1
6	1800	2356.881467571888	0
6	1817	2370.218810734865	0
6	1818	2372.946819034866	0
6	1838	2408.760504512205	0
6	1839	2409.400480523668	0
6	1850	2422.9459360675	0
6	1851	2423.742337706199	0
6	1862	2427.402652917027	0
6	1865	2428.244262375269	0
6	1870	2432.751736103515	0
6	1873	2434.72696948832	0
6	1885	2465.658478271555	0
6	1891	2472.320315154536	1
6	1892	2472.923042162618	1
6	1894	2473.889202106358	1
6	1895	2477.548865404294	1
6	1897	2478.649007051707	1
6	1898	2481.141219960295	1
6	1899	2484.32236483539	0
6	1913	2498.862924785266	0
7	267	375.391315048882	4
7	451	625.351485420614	5
7	469	656.547358981017	6
7	522	733.910972131425	7
7	607	835.248604404272	8
7	817	1058.518930789588	9
7	907	1176.916299660197	10
7	942	1216.291314203088	11
7	1170	1545.518748707868	12
7	1210	1579.922105872001	13
7	1381	1838.500648643851	14
7	1411	1862.163813384079	15
7	1450	1903.24141457117	16
7	1577	2073.58352631853	17
7	1642	2143.862823377282	18
7	1870	2432.751736103515	19
7	1885	2465.658478271555	20
8	267	375.391315048882	0
8	305	416.09885070976	0
8	335	457.766007587543	0
8	344	476.548788404644	0
8	353	486.357315170998	0
8	374	519.361765448563	0
8	386	529.267700894395	0
8	413	564.300560389618	0
8	446	619.011098646388	0
8	451	625.351485420614	0
8	469	656.547358981017	0
8	484	692.864500273431	0.101177117429
8	497	715.290266955163	11.550216819727
8	500	715.422295031566	5.041445343735
8	505	722.355451729889	1.901595338036
8	508	724.458636052457	1.027618085703
8	522	733.910972131425	0
8	539	758.996673827888	0
8	548	766.656699326265	0
8	557	779.450215402787	0
8	590	818.983464402905	0
8	607	835.248604404272	0
8	617	843.367700009282	0
8	626	853.109086923126	0
8	638	863.83902178876	0
8	701	920.493155444247	0
8	710	931.651819903604	0
8	715	934.431674416005	1.086321435924
8	817	1058.518930789588	0
8	842	1108.361782751192	0
8	860	1132.694596718756	0
8	863	1136.108807583738	0
8	874	1146.494912721454	10.161086703342
8	895	1166.349841767036	18.270970173878
8	900	1170.163339130812	6.442757720447
8	901	1172.718694317962	4.230277532576
8	904	1173.15964241773	0.083343380079
8	907	1176.916299660197	0
8	942	1216.291314203088	0
8	950	1230.755115960214	0
8	977	1272.682469325331	0
8	1013	1317.361855239214	0
8	1058	1361.686355425169	0
8	1097	1413.14304119274	0
8	1100	1419.219797478038	0
8	1118	1455.374959090924	0
8	1148	1512.613832586893	0
8	1161	1533.588758894924	7.125686231196
8	1170	1545.518748707868	0
8	1210	1579.922105872001	0
8	1232	1614.647544777863	0
8	1277	1669.12752658445	0
8	1322	1752.69058199458	0
8	1331	1784.36714221366	0
8	1370	1826.11813210479	0
8	1381	1838.500648643851	0
8	1411	1862.163813384079	0
8	1415	1870.862406747146	0
8	1433	1881.496160769119	0
8	1444	1900.013757905231	16.218526749321
8	1450	1903.24141457117	0
8	1502	1986.939751930008	0
8	1523	2024.452246727987	0
8	1536	2037.748273289583	10.020731786801
8	1537	2041.696824587789	11.035522238545
8	1538	2042.886910112381	5.699585443221
8	1547	2049.562016438356	0
8	1577	2073.58352631853	0
8	1582	2075.684618661842	1.421450279415
8	1604	2095.128767516438	0
8	1642	2143.862823377282	0
8	1646	2148.922937466807	0
8	1651	2157.828575973087	7.158841667523
8	1658	2183.044205315737	0
8	1676	2202.435043403632	0
8	1691	2216.788444128043	0
8	1703	2249.729384129566	0
8	1706	2251.367958607534	0
8	1727	2279.690247357455	0
8	1730	2280.652934238308	0.267550032363
8	1745	2294.765771610817	0
8	1757	2311.466960642226	0
8	1760	2314.869400251368	0.053214266192
8	1767	2321.460661274425	3.401776178389
8	1786	2334.979793616136	13.630044525477
8	1787	2337.053960433048	10.183000052227
8	1790	2342.347723405079	14.920938675579
8	1791	2346.133988564157	18.026019581848
8	1796	2351.813214512701	18.83170533491
8	1799	2355.01411389156	0.694725193915
8	1817	2370.218810734865	0
8	1838	2408.760504512205	0
8	1850	2422.9459360675	0
8	1862	2427.402652917027	0
8	1870	2432.751736103515	0
8	1885	2465.658478271555	0
8	1892	2472.923042162618	0.602727008082
8	1895	2477.548865404294	3.659663297936
8	1898	2481.141219960295	2.492212908588
8	1913	2498.862924785266	0
9	270	376.452877082859	24
9	310	428.285051721609	25
9	340	474.98865254556	26
9	345	477.751610388222	27
9	360	497.685695660876	28
9	375	521.171188623144	29
9	389	535.506429871272	30
9	426	586.878864834208	31
9	447	621.457658757041	32
9	452	626.379732136594	33
9	484	692.864500273431	34
9	497	715.290266955163	35
9	500	715.422295031566	36
9	505	722.355451729889	37
9	508	724.458636052457	38
9	509	725.71626145367	39
9	523	740.172456031577	40
9	542	759.796953700521	41
9	553	770.52129807755	42
9	558	783.076401160694	43
9	593	828.467569237987	44
9	608	837.755112640667	45
9	620	850.587979110059	46
9	627	853.471295946451	47
9	643	869.230322184583	48
9	702	922.557309556843	49
9	715	934.431674416005	50
9	716	934.487167339232	51
9	820	1065.759693866257	52
9	851	1115.656707159248	53
9	861	1134.376552513114	54
9	874	1146.494912721454	55
9	895	1166.349841767036	56
9	900	1170.163339130812	57
9	901	1172.718694317962	58
9	904	1173.15964241773	59
9	905	1176.203307319422	60
9	910	1185.612073974925	61
9	943	1217.466512215077	62
9	951	1234.266874963928	63
9	982	1277.089681267859	64
9	1018	1328.03107468209	65
9	1059	1362.017841407566	66
9	1098	1414.099123901939	67
9	1107	1431.509958238804	68
9	1121	1457.953797209876	69
9	1161	1533.588758894924	70
9	1164	1542.511482998172	71
9	1173	1546.365434320981	72
9	1219	1599.158546080068	73
9	1235	1617.544838278715	74
9	1280	1673.954468898264	75
9	1323	1752.912652511472	76
9	1342	1794.565195428115	77
9	1377	1837.536494347759	78
9	1382	1839.931577299194	79
9	1412	1862.583255820495	80
9	1420	1876.012979832493	81
9	1444	1900.013757905231	82
9	1445	1901.800352648649	83
9	1451	1911.903692606742	84
9	1505	1988.347327886568	85
9	1536	2037.748273289583	86
9	1537	2041.696824587789	87
9	1538	2042.886910112381	88
9	1539	2043.524718331723	89
9	1548	2050.310073293457	90
9	1582	2075.684618661842	91
9	1585	2077.45716668429	92
9	1605	2100.124235631169	93
9	1643	2144.02732633626	94
9	1651	2157.828575973087	95
9	1652	2162.737954251503	96
9	1661	2185.239737963008	97
9	1679	2206.342482211404	98
9	1692	2218.13053337151	99
9	1704	2251.072627032836	100
9	1711	2259.466292237981	101
9	1730	2280.652934238308	102
9	1731	2285.281015368432	103
9	1750	2300.743067949671	104
9	1760	2314.869400251368	105
9	1767	2321.460661274425	106
9	1786	2334.979793616136	107
9	1787	2337.053960433048	108
9	1790	2342.347723405079	109
9	1791	2346.133988564157	110
9	1796	2351.813214512701	111
9	1799	2355.01411389156	112
9	1800	2356.881467571888	113
9	1818	2372.946819034866	114
9	1839	2409.400480523668	115
9	1851	2423.742337706199	116
9	1865	2428.244262375269	117
9	1873	2434.72696948832	118
9	1892	2472.923042162618	119
9	1895	2477.548865404294	120
9	1898	2481.141219960295	121
9	1899	2484.32236483539	122
10	270	376.452877082859	1.061562033977
10	310	428.285051721609	12.186201011849
10	340	474.98865254556	17.222644958017
10	345	477.751610388222	1.202821983578
10	360	497.685695660876	11.328380489878
10	375	521.171188623144	1.809423174581
10	389	535.506429871272	6.238728976877
10	426	586.878864834208	22.57830444459
10	447	621.457658757041	2.446560110653
10	452	626.379732136594	1.02824671598
10	484	692.864500273431	36.317141292414
10	497	715.290266955163	22.526943799161
10	500	715.422295031566	11.68224489613
10	505	722.355451729889	11.974602042058
10	508	724.458636052457	4.004779660604
10	509	725.71626145367	2.285243486916
10	523	740.172456031577	6.261483900152
10	542	759.796953700521	0.800279872633
10	553	770.52129807755	3.864598751285
10	558	783.076401160694	3.626185757907
10	593	828.467569237987	9.484104835082
10	608	837.755112640667	2.506508236395
10	620	850.587979110059	7.220279100777
10	627	853.471295946451	0.362209023325
10	643	869.230322184583	5.391300395823
10	702	922.557309556843	2.064154112596
10	715	934.431674416005	2.779854512401
10	716	934.487167339232	1.141814359151
10	820	1065.759693866257	7.240763076669
10	851	1115.656707159248	7.294924408056
10	861	1134.376552513114	1.681955794358
10	874	1146.494912721454	10.386105137716
10	895	1166.349841767036	30.016015748924
10	900	1170.163339130812	22.084467537654
10	901	1172.718694317962	8.998112907597
10	904	1173.15964241773	4.671225632344
10	905	1176.203307319422	3.127008281771
10	910	1185.612073974925	8.695774314728
10	943	1217.466512215077	1.175198011989
10	951	1234.266874963928	3.511759003714
10	982	1277.089681267859	4.407211942528
10	1018	1328.03107468209	10.669219442876
10	1059	1362.017841407566	0.331485982397
10	1098	1414.099123901939	0.956082709199
10	1107	1431.509958238804	12.290160760766
10	1121	1457.953797209876	2.578838118952
10	1161	1533.588758894924	20.974926308031
10	1164	1542.511482998172	16.048410334444
10	1173	1546.365434320981	0.846685613113
10	1219	1599.158546080068	19.236440208067
10	1235	1617.544838278715	2.897293500852
10	1280	1673.954468898264	4.826942313814
10	1323	1752.912652511472	0.222070516892
10	1342	1794.565195428115	10.198053214455
10	1377	1837.536494347759	11.418362242969
10	1382	1839.931577299194	1.430928655343
10	1412	1862.583255820495	0.419442436416
10	1420	1876.012979832493	5.150573085347
10	1444	1900.013757905231	18.517597136112
10	1445	1901.800352648649	18.005121492739
10	1451	1911.903692606742	8.662278035572
10	1505	1988.347327886568	1.40757595656
10	1536	2037.748273289583	13.296026561596
10	1537	2041.696824587789	13.969283085007
10	1538	2042.886910112381	12.225607763137
10	1539	2043.524718331723	6.337393662563
10	1548	2050.310073293457	0.748056855101
10	1582	2075.684618661842	2.101092343312
10	1585	2077.45716668429	3.193998301863
10	1605	2100.124235631169	4.995468114731
10	1643	2144.02732633626	0.164502958978
10	1651	2157.828575973087	8.90563850628
10	1652	2162.737954251503	12.068219945939
10	1661	2185.239737963008	2.195532647271
10	1679	2206.342482211404	3.907438807772
10	1692	2218.13053337151	1.342089243467
10	1704	2251.072627032836	1.34324290327
10	1711	2259.466292237981	8.098333630447
10	1730	2280.652934238308	0.962686880853
10	1731	2285.281015368432	4.895631162487
10	1750	2300.743067949671	5.977296338854
10	1760	2314.869400251368	3.402439609142
10	1767	2321.460661274425	6.644475289249
10	1786	2334.979793616136	16.9209085201
10	1787	2337.053960433048	15.704211342389
10	1790	2342.347723405079	15.476763024258
10	1791	2346.133988564157	18.707203834657
10	1796	2351.813214512701	23.705245530392
10	1799	2355.01411389156	22.032604713769
10	1800	2356.881467571888	2.562078874243
10	1818	2372.946819034866	2.728008300001
10	1839	2409.400480523668	0.639976011463
10	1851	2423.742337706199	0.796401638699
10	1865	2428.244262375269	0.841609458242
10	1873	2434.72696948832	1.975233384805
10	1892	2472.923042162618	7.264563891063
10	1895	2477.548865404294	5.228550249758
10	1898	2481.141219960295	7.252017853937
10	1899	2484.32236483539	5.673357783683
11	1914	2500	0.206
12	1914	2500	0.0488

