version 2
run factors_calibration_range_test-162-20230302-19:09:26-12519
attr configname factors_calibration_range_test
attr datetime 20230302-19:09:26
attr experiment factors_calibration_range_test
attr inifile omnetpp.ini
attr iterationvars "$0=15, $1=5"
attr iterationvarsf 15,5-
attr measurement "$0=15, $1=5"
attr network Network
attr processid 12519
attr repetition 2
attr replication #2
attr resultdir results
attr runnumber 162
attr seedset 2
param *.boss.arrival_mean 20
param *.boss.service_mean 15
param *.minion.arrival_mean 5
param *.minion.service_mean 5
param **.minion.arrival_distribution 0
param **.minion.service_distribution 0
param **.boss.arrival_distribution 0
param **.boss.service_distribution 0

scalar Network.player boss_throughput:mean 0.0552
attr source signal_boss_throughput
scalar Network.player boss_throughput:last 0.0552
attr source signal_boss_throughput
scalar Network.player boss_defeated_stat:count 120
attr source signal_boss_defeated
scalar Network.player boss_defeated_stat:mean 78.5
attr source signal_boss_defeated
scalar Network.player boss_waiting_time_stat:mean 39.615448625541
attr source signal_boss_waiting_time
scalar Network.player boss_response_time_stat:mean 55.462281428756
attr source signal_boss_response_time
scalar Network.player minion_throughput:mean 0.0224
attr source signal_minion_throughput
scalar Network.player minion_throughput:last 0.0224
attr source signal_minion_throughput
scalar Network.player minion_recovered_stat:count 17
attr source signal_minion_recovered
scalar Network.player minion_recovered_stat:mean 16
attr source signal_minion_recovered
scalar Network.player minion_defeated_stat:count 33
attr source signal_minion_defeated
scalar Network.player minion_defeated_stat:mean 40
attr source signal_minion_defeated
scalar Network.player minion_waiting_time_stat:mean 1241.2693296224
attr source signal_minion_waiting_time
scalar Network.player minion_response_time_stat:mean 1213.5085254831
attr source signal_minion_response_time

