version 2
run factors_calibration_range_test-61-20230302-19:09:16-12000
attr configname factors_calibration_range_test
attr datetime 20230302-19:09:16
attr experiment factors_calibration_range_test
attr inifile omnetpp.ini
attr iterationvars "$0=10, $1=1"
attr iterationvarsf 10,1-
attr measurement "$0=10, $1=1"
attr network Network
attr processid 12000
attr repetition 1
attr replication #1
attr resultdir results
attr runnumber 61
attr seedset 1
param *.boss.arrival_mean 20
param *.boss.service_mean 10
param *.minion.arrival_mean 5
param *.minion.service_mean 1
param **.minion.arrival_distribution 0
param **.minion.service_distribution 0
param **.boss.arrival_distribution 0
param **.boss.service_distribution 0

vector 0 Network.player boss_defeated_stat:vector ETV
attr source signal_boss_defeated
vector 1 Network.player boss_jobs_queue_number_stat:vector ETV
attr source signal_boss_jobs_queue_number
vector 2 Network.player boss_response_time_stat:vector ETV
attr source signal_boss_response_time
vector 3 Network.player minion_jobs_number_stat:vector ETV
attr source signal_minion_jobs_number
vector 4 Network.player minion_jobs_queue_number_stat:vector ETV
attr source signal_minion_jobs_queue_number
vector 5 Network.player minion_waiting_time_stat:vector ETV
attr source signal_minion_waiting_time
vector 6 Network.player minion_defeated_stat:vector ETV
attr source signal_minion_defeated
vector 7 Network.player minion_response_time_stat:vector ETV
attr source signal_minion_response_time
vector 8 Network.player boss_jobs_number_stat:vector ETV
attr source signal_boss_jobs_number
vector 9 Network.player boss_waiting_time_stat:vector ETV
attr source signal_boss_waiting_time
vector 10 Network.player minion_recovered_stat:vector ETV
attr source signal_minion_recovered
vector 11 Network.player minion_throughput:vector ETV
attr source signal_minion_throughput
vector 12 Network.player boss_throughput:vector ETV
attr source signal_boss_throughput
0	237	350.050914618341	18
0	245	376.304377369425	19
0	291	411.761355023125	20
0	304	427.158985033829	21
0	346	464.230111009813	22
0	365	486.829970918353	23
0	366	490.847280527691	24
0	378	499.82527921581	25
0	385	505.504881977678	26
0	402	518.491407317477	27
0	417	532.41095719066	28
0	425	545.323821063245	29
0	440	578.853019727254	30
0	503	684.287372238643	31
0	537	721.209363962106	32
0	560	746.047016959845	33
0	567	760.70500143091	34
0	577	773.137454573252	35
0	608	816.341214638159	36
0	632	858.374871021238	37
0	642	867.01610131647	38
0	656	898.940324853383	39
0	676	924.838277457415	40
0	679	934.014917247166	41
0	686	937.414373255361	42
0	722	989.817549478953	43
0	739	1008.875429587279	44
0	744	1011.493011551974	45
0	745	1013.405255393337	46
0	770	1038.894728332283	47
0	785	1065.753147160999	48
0	811	1098.791017535818	49
0	834	1126.537620262126	50
0	835	1127.966737852433	51
0	838	1133.923781468426	52
0	843	1141.334822536745	53
0	844	1146.190456068985	54
0	887	1200.777290827494	55
0	892	1205.200790094899	56
0	901	1216.257559234682	57
0	902	1218.406283006224	58
0	907	1224.712756473745	59
0	924	1248.069328043372	60
0	947	1274.568360152843	61
0	959	1291.198895252978	62
0	1020	1394.380873556968	63
0	1038	1412.923513637678	64
0	1041	1417.581792257848	65
0	1068	1470.512686868949	66
0	1071	1477.002098207588	67
0	1092	1493.774781701066	68
0	1101	1512.317573186048	69
0	1113	1536.465273426621	70
0	1141	1576.694705815011	71
0	1157	1596.385776891971	72
0	1186	1660.512545996602	73
0	1217	1720.278614052922	74
0	1218	1724.047313032692	75
0	1230	1733.724116730272	76
0	1241	1746.096494370955	77
0	1242	1747.636351659812	78
0	1254	1758.428943714613	79
0	1272	1783.429927032261	80
0	1286	1816.036774818017	81
0	1290	1827.758030500551	82
0	1308	1849.940165124071	83
0	1317	1861.985107568504	84
0	1342	1879.404488003351	85
0	1362	1896.776020255442	86
0	1409	1988.979105282137	87
0	1430	2018.822027590576	88
0	1437	2024.967106327318	89
0	1462	2063.50928846712	90
0	1470	2079.896818168882	91
0	1494	2098.966472272995	92
0	1521	2123.599660551998	93
0	1550	2166.710116442927	94
0	1561	2190.399851221376	95
0	1578	2206.177790246279	96
0	1579	2208.167808753161	97
0	1580	2212.37316627217	98
0	1585	2225.887029378719	99
0	1589	2231.583006861863	100
0	1627	2262.441913142429	101
0	1638	2277.47844915517	102
0	1641	2283.037613060752	103
0	1658	2302.118193936643	104
0	1663	2312.179797706559	105
0	1666	2322.879238966684	106
0	1669	2330.279660579648	107
0	1686	2348.245311205081	108
0	1702	2358.758949959792	109
0	1713	2377.623214925686	110
0	1722	2398.982731614833	111
0	1731	2415.705450969541	112
0	1732	2416.673449700574	113
0	1739	2424.757610659048	114
0	1761	2439.368745175547	115
0	1781	2458.654405620047	116
0	1814	2488.051857369016	117
1	237	350.050914618341	0
1	242	369.375255317272	0
1	245	376.304377369425	0
1	286	404.258574086135	0
1	291	411.761355023125	0
1	299	415.788676091801	0
1	304	427.158985033829	0
1	329	443.919676013075	0
1	346	464.230111009813	0
1	356	470.546870107225	0
1	362	480.431995840156	1
1	365	486.829970918353	1
1	366	490.847280527691	0
1	375	495.029730108993	0
1	378	499.82527921581	0
1	380	500.513567475372	0
1	385	505.504881977678	0
1	401	517.809300423735	0
1	402	518.491407317477	0
1	410	521.192237302952	0
1	417	532.41095719066	0
1	424	541.925002229654	0
1	425	545.323821063245	0
1	437	567.695925539455	0
1	440	578.853019727254	0
1	482	660.252978140038	0
1	503	684.287372238643	0
1	524	709.366630100926	0
1	537	721.209363962106	0
1	557	743.646848964604	0
1	560	746.047016959845	0
1	566	756.458935907148	0
1	567	760.70500143091	0
1	574	767.120392425216	0
1	577	773.137454573252	0
1	601	789.815789590426	0
1	608	816.341214638159	0
1	623	831.608480159845	0
1	632	858.374871021238	0
1	639	863.970073409175	0
1	642	867.01610131647	0
1	653	898.688180290939	0
1	656	898.940324853383	0
1	671	910.944778126664	0
1	675	912.065066633432	1
1	676	924.838277457415	1
1	679	934.014917247166	0
1	681	934.472084532428	0
1	686	937.414373255361	0
1	703	959.834294333765	0
1	709	963.034023953894	1
1	722	989.817549478953	1
1	732	995.44102465029	1
1	738	1004.276199296497	2
1	739	1008.875429587279	2
1	744	1011.493011551974	1
1	745	1013.405255393337	0
1	767	1030.943152599568	0
1	770	1038.894728332283	0
1	782	1050.110245986447	0
1	785	1065.753147160999	0
1	794	1074.807943387107	0
1	800	1086.494175780376	1
1	811	1098.791017535818	1
1	815	1102.06552599861	1
1	827	1119.223715317434	2
1	829	1121.890324746436	3
1	833	1123.663479696237	4
1	834	1126.537620262126	4
1	835	1127.966737852433	3
1	838	1133.923781468426	2
1	843	1141.334822536745	1
1	844	1146.190456068985	0
1	878	1186.897939430832	0
1	880	1191.951539220539	1
1	887	1200.777290827494	1
1	889	1202.276890746692	1
1	892	1205.200790094899	1
1	894	1207.192094069512	1
1	900	1212.083298246598	2
1	901	1216.257559234682	2
1	902	1218.406283006224	1
1	907	1224.712756473745	0
1	923	1247.010455122903	0
1	924	1248.069328043372	0
1	944	1272.276126545475	0
1	947	1274.568360152843	0
1	956	1284.608791838486	0
1	959	1291.198895252978	0
1	1019	1387.632399260903	0
1	1020	1394.380873556968	0
1	1031	1403.412013724196	0
1	1037	1409.315926484005	1
1	1038	1412.923513637678	1
1	1041	1417.581792257848	0
1	1055	1440.302525160037	0
1	1065	1462.555294735073	1
1	1068	1470.512686868949	1
1	1071	1477.002098207588	0
1	1091	1489.486066902343	0
1	1092	1493.774781701066	0
1	1100	1507.762238717833	0
1	1101	1512.317573186048	0
1	1106	1533.228522866138	0
1	1113	1536.465273426621	0
1	1130	1558.498177338543	0
1	1141	1576.694705815011	0
1	1154	1590.470735222049	0
1	1157	1596.385776891971	0
1	1181	1645.874418155944	0
1	1186	1660.512545996602	0
1	1208	1688.598277283569	0
1	1212	1697.269698461538	1
1	1217	1720.278614052922	1
1	1218	1724.047313032692	0
1	1229	1731.744765826945	0
1	1230	1733.724116730272	0
1	1232	1737.595552176882	0
1	1236	1744.899527686484	1
1	1241	1746.096494370955	1
1	1242	1747.636351659812	0
1	1253	1755.198627303625	0
1	1254	1758.428943714613	0
1	1271	1782.557906561692	0
1	1272	1783.429927032261	0
1	1283	1810.00658113624	0
1	1286	1816.036774818017	0
1	1289	1819.834207241802	0
1	1290	1827.758030500551	0
1	1307	1845.586409673488	0
1	1308	1849.940165124071	0
1	1316	1858.271437782732	0
1	1317	1861.985107568504	0
1	1321	1868.692586631094	0
1	1342	1879.404488003351	0
1	1361	1893.453134115984	0
1	1362	1896.776020255442	0
1	1408	1984.3531764257	0
1	1409	1988.979105282137	0
1	1415	1993.439770634155	0
1	1423	2005.414674315447	1
1	1430	2018.822027590576	1
1	1437	2024.967106327318	0
1	1457	2057.829292268349	0
1	1462	2063.50928846712	0
1	1469	2067.19127090892	0
1	1470	2079.896818168882	0
1	1487	2093.540604683601	0
1	1494	2098.966472272995	0
1	1518	2118.272495163052	0
1	1521	2123.599660551998	0
1	1523	2123.862463980623	0
1	1525	2125.583614538701	1
1	1541	2148.351335550223	2
1	1547	2158.513685384924	3
1	1549	2159.742235841395	4
1	1550	2166.710116442927	4
1	1560	2189.21250810744	4
1	1561	2190.399851221376	4
1	1578	2206.177790246279	3
1	1579	2208.167808753161	2
1	1580	2212.37316627217	1
1	1585	2225.887029378719	0
1	1588	2228.011412246586	0
1	1589	2231.583006861863	0
1	1622	2256.953625658148	0
1	1627	2262.441913142429	0
1	1635	2270.467559923692	0
1	1637	2277.145134657383	1
1	1638	2277.47844915517	1
1	1641	2283.037613060752	0
1	1649	2292.356304954715	0
1	1655	2296.559424856657	1
1	1657	2299.848805152245	2
1	1658	2302.118193936643	2
1	1663	2312.179797706559	1
1	1665	2312.593632662147	1
1	1666	2322.879238966684	1
1	1669	2330.279660579648	0
1	1685	2345.24593224152	0
1	1686	2348.245311205081	0
1	1697	2353.399464487008	0
1	1702	2358.758949959792	0
1	1712	2372.427930054302	0
1	1713	2377.623214925686	0
1	1721	2398.96845263205	0
1	1722	2398.982731614833	0
1	1724	2404.701489116181	0
1	1726	2408.893875339512	1
1	1731	2415.705450969541	1
1	1732	2416.673449700574	0
1	1736	2418.968326914021	0
1	1739	2424.757610659048	0
1	1744	2427.010862944216	0
1	1761	2439.368745175547	0
1	1772	2443.433928593672	0
1	1781	2458.654405620047	0
1	1809	2480.621220096792	0
1	1814	2488.051857369016	0
1	1826	2496.852317827315	0
2	237	350.050914618341	0.16038287603
2	245	376.304377369425	6.929122052153
2	291	411.761355023125	7.50278093699
2	304	427.158985033829	11.370308942028
2	346	464.230111009813	20.310434996738
2	365	486.829970918353	16.283100811128
2	366	490.847280527691	10.415284687535
2	378	499.82527921581	4.795549106817
2	385	505.504881977678	4.991314502306
2	402	518.491407317477	0.682106893742
2	417	532.41095719066	11.218719887708
2	425	545.323821063245	3.398818833591
2	440	578.853019727254	11.157094187799
2	503	684.287372238643	24.034394098605
2	537	721.209363962106	11.84273386118
2	560	746.047016959845	2.400167995241
2	567	760.70500143091	4.246065523762
2	577	773.137454573252	6.017062148036
2	608	816.341214638159	26.525425047733
2	632	858.374871021238	26.766390861393
2	642	867.01610131647	3.046027907295
2	656	898.940324853383	0.252144562444
2	676	924.838277457415	13.893499330751
2	679	934.014917247166	21.949850613734
2	686	937.414373255361	2.942288722933
2	722	989.817549478953	29.983255145188
2	739	1008.875429587279	45.841405633385
2	744	1011.493011551974	16.051986901684
2	745	1013.405255393337	9.12905609684
2	770	1038.894728332283	7.951575732715
2	785	1065.753147160999	15.642901174552
2	811	1098.791017535818	23.983074148711
2	834	1126.537620262126	40.04344448175
2	835	1127.966737852433	25.901211853823
2	838	1133.923781468426	14.700066150992
2	843	1141.334822536745	19.444497790309
2	844	1146.190456068985	22.526976372748
2	887	1200.777290827494	13.879351396662
2	892	1205.200790094899	13.24925087436
2	901	1216.257559234682	13.98066848799
2	902	1218.406283006224	11.214188936712
2	907	1224.712756473745	12.629458227147
2	924	1248.069328043372	1.058872920469
2	947	1274.568360152843	2.292233607368
2	959	1291.198895252978	6.590103414492
2	1020	1394.380873556968	6.748474296065
2	1038	1412.923513637678	9.511499913482
2	1041	1417.581792257848	8.265865773843
2	1068	1470.512686868949	30.210161708912
2	1071	1477.002098207588	14.446803472515
2	1092	1493.774781701066	4.288714798723
2	1101	1512.317573186048	4.555334468215
2	1113	1536.465273426621	3.236750560483
2	1141	1576.694705815011	18.196528476468
2	1157	1596.385776891971	5.915041669922
2	1186	1660.512545996602	14.638127840658
2	1217	1720.278614052922	31.680336769353
2	1218	1724.047313032692	26.777614571154
2	1230	1733.724116730272	1.979350903327
2	1241	1746.096494370955	8.500942194073
2	1242	1747.636351659812	2.736823973328
2	1254	1758.428943714613	3.230316410988
2	1272	1783.429927032261	0.872020470569
2	1286	1816.036774818017	6.030193681777
2	1290	1827.758030500551	7.923823258749
2	1308	1849.940165124071	4.353755450583
2	1317	1861.985107568504	3.713669785772
2	1342	1879.404488003351	10.711901372257
2	1362	1896.776020255442	3.322886139458
2	1409	1988.979105282137	4.625928856437
2	1430	2018.822027590576	25.382256956421
2	1437	2024.967106327318	19.552432011871
2	1462	2063.50928846712	5.679996198771
2	1470	2079.896818168882	12.705547259962
2	1494	2098.966472272995	5.425867589394
2	1521	2123.599660551998	5.327165388946
2	1550	2166.710116442927	42.847652462304
2	1561	2190.399851221376	64.816236682675
2	1578	2206.177790246279	57.826454696056
2	1579	2208.167808753161	49.654123368237
2	1580	2212.37316627217	52.630930430775
2	1585	2225.887029378719	36.674521271279
2	1589	2231.583006861863	3.571594615277
2	1627	2262.441913142429	5.488287484281
2	1638	2277.47844915517	7.010889231478
2	1641	2283.037613060752	5.892478403369
2	1658	2302.118193936643	9.761888981928
2	1663	2312.179797706559	15.620372849902
2	1666	2322.879238966684	23.030433814439
2	1669	2330.279660579648	17.686027917501
2	1686	2348.245311205081	2.999378963561
2	1702	2358.758949959792	5.359485472784
2	1713	2377.623214925686	5.195284871384
2	1722	2398.982731614833	0.014278982783
2	1731	2415.705450969541	11.00396185336
2	1732	2416.673449700574	7.779574361062
2	1739	2424.757610659048	5.789283745027
2	1761	2439.368745175547	12.357882231331
2	1781	2458.654405620047	15.220477026375
2	1814	2488.051857369016	7.430637272224
3	239	356.214027383193	1
3	244	370.082701072161	1
3	248	379.09953516694	1
3	251	382.787080294875	1
3	254	384.299178177176	1
3	256	384.871708032198	2
3	258	385.053773900894	3
3	260	385.914977048936	4
3	263	387.213772709022	4
3	269	391.153289470703	1
3	272	392.339378597865	1
3	275	396.055312104927	1
3	278	397.051962597638	1
3	281	402.127137524858	1
3	284	404.026973957353	1
3	288	406.593579653007	2
3	290	407.972601482988	3
3	293	413.218928783278	4
3	297	415.57189526878	3
3	301	418.10025659078	4
3	303	423.107647887095	5
3	306	427.997363211773	6
3	308	429.259147129613	7
3	316	436.551429111272	2
3	318	437.298288386469	3
3	321	438.284290333296	3
3	326	442.586170003627	1
3	331	444.940796417319	1
3	333	447.107602306376	2
3	335	450.598733202671	3
3	337	453.751946395203	4
3	339	459.554391479486	5
3	341	461.776198560244	6
3	343	463.239200316691	7
3	345	463.673361435079	8
3	352	467.718855632329	5
3	354	469.176701112185	6
3	358	474.079925462206	7
3	360	474.322755257879	8
3	364	485.615651879455	9
3	377	498.869748876363	3
3	382	501.123527898906	4
3	384	502.470390318441	5
3	389	507.544831550619	4
3	395	515.872358604738	1
3	397	516.934900183669	2
3	399	517.609314057095	3
3	407	521.053039684336	1
3	412	521.446667095176	1
3	414	522.453855049111	2
3	416	528.239113539336	3
3	422	540.767704459622	1
3	428	555.462009828912	1
3	431	558.288613126461	1
3	434	560.185213718829	1
3	439	569.050533268777	1
3	442	579.498884687912	2
3	445	582.19480705157	2
3	449	588.184190913694	1
3	452	599.936118127082	1
3	455	602.13929839104	1
3	458	604.733799172798	1
3	461	616.480929806211	1
3	464	618.492090294646	1
3	466	620.853477120937	2
3	470	625.098258956758	1
3	473	634.475777885981	1
3	476	643.811760504369	1
3	479	650.422561580395	1
3	484	660.289482993572	1
3	486	666.292392891195	2
3	488	670.82023644983	3
3	490	676.356128933133	4
3	492	676.798436230319	5
3	494	677.215231449999	6
3	496	681.762633908788	7
3	498	681.991010111041	8
3	500	683.399203367761	9
3	502	683.899399514129	10
3	515	690.49432515063	1
3	518	691.720186514993	1
3	521	702.972583589614	1
3	526	711.198337720872	1
3	528	714.813627878159	2
3	530	715.342544386429	3
3	532	719.968741524279	4
3	534	720.300783544328	5
3	536	720.637189915094	6
3	545	735.044805607342	1
3	548	738.928261964824	1
3	551	739.817151769104	1
3	554	740.508790623711	1
3	559	744.989682927776	1
3	563	749.756568490231	1
3	569	764.770822232642	1
3	572	767.030857742808	1
3	576	769.31546299678	2
3	581	776.615340620418	1
3	583	776.724619636572	2
3	585	776.973377000694	3
3	588	780.650252830687	3
3	590	781.231900214804	4
3	593	783.065618040321	4
3	599	788.826050709946	1
3	603	797.779307662022	2
3	605	801.393770719704	3
3	607	814.645173108112	4
3	611	818.88414574675	4
3	613	819.574341053078	5
3	620	828.854454811308	1
3	625	837.747746122636	1
3	627	841.092337896402	2
3	629	848.818862122667	3
3	631	857.12632019606	4
3	637	862.976498229725	2
3	641	866.545734324769	3
3	647	871.801150481608	1
3	650	884.868535146864	1
3	655	898.714824934679	1
3	659	904.211804462952	1
3	661	905.558734590065	2
3	665	906.363845669958	1
3	668	909.647535667042	1
3	673	911.914669964185	1
3	678	925.029214792727	2
3	683	935.070400664471	3
3	685	936.046875295072	4
3	688	938.202984311935	5
3	692	939.033424013633	4
3	694	940.081018919009	5
3	701	957.241306803035	1
3	705	960.440488879259	2
3	707	962.373330149167	3
3	711	964.867660374201	4
3	713	975.716553004582	5
3	715	980.540412966418	6
3	717	984.481845896118	7
3	719	987.352149000555	8
3	721	989.671113244611	9
3	724	991.182873389116	10
3	726	991.919146556616	11
3	728	994.57830524124	12
3	730	995.175097258653	13
3	734	997.890412825675	14
3	736	998.265556951445	15
3	741	1009.901065823335	16
3	743	1010.974705372229	17
3	763	1030.439794926837	2
3	765	1030.454449358654	3
3	769	1035.339549793447	4
3	776	1045.808991035621	1
3	778	1046.243234080725	2
3	784	1060.077023293853	1
3	788	1066.679532350874	1
3	791	1070.171819352972	1
3	796	1075.84849225931	1
3	798	1082.730109709133	2
3	802	1091.4742668391	3
3	804	1094.823091212918	4
3	806	1096.957439033895	5
3	808	1096.977082053955	6
3	810	1097.280505656456	7
3	813	1100.383051175695	8
3	817	1105.114505253897	9
3	819	1105.900478704399	10
3	821	1106.56250809929	11
3	823	1108.409099088095	12
3	825	1115.534888989232	13
3	831	1122.531018707121	14
3	837	1130.4406994817	15
3	840	1137.480524766108	16
3	842	1140.107064563852	17
3	848	1152.582565221221	16
3	863	1166.976535881742	4
3	869	1180.394959787831	1
3	872	1181.34942953241	1
3	874	1181.821761685282	2
3	882	1196.109084615138	1
3	884	1197.195542591089	2
3	886	1200.327563764802	3
3	891	1204.449181525093	4
3	896	1211.647523211537	5
3	898	1211.699930264103	6
3	904	1218.688126624934	7
3	906	1219.994281009976	8
3	917	1239.866413294529	1
3	919	1240.054203870145	2
3	926	1258.16554380865	1
3	928	1258.606326238256	2
3	931	1258.810910824889	2
3	935	1264.238933637798	1
3	937	1264.31943459418	2
3	941	1268.699301296563	1
3	946	1272.617838046088	1
3	950	1279.106747373078	1
3	952	1279.279071185775	2
3	958	1291.015760921914	1
3	962	1296.372954757543	1
3	964	1296.457249651128	2
3	968	1300.284791824592	1
3	971	1311.634987116429	1
3	974	1317.126424795959	1
3	977	1320.631323503012	1
3	980	1323.542400900838	1
3	983	1328.312616354565	1
3	986	1329.903126615224	1
3	989	1330.626785437466	1
3	992	1345.572450287073	1
3	995	1348.765442838134	1
3	998	1355.280164222653	1
3	1001	1360.313559986239	1
3	1003	1360.345280090912	2
3	1007	1363.729559503434	1
3	1010	1364.252628813291	1
3	1013	1377.650982548959	1
3	1016	1382.645164520114	1
3	1022	1396.38123815931	1
3	1025	1398.079883631854	1
3	1028	1401.545234091395	1
3	1033	1404.163283031222	1
3	1035	1406.798358620124	2
3	1040	1414.403917189394	3
3	1045	1422.729651254381	2
3	1048	1424.915556693048	2
3	1052	1428.541550414091	1
3	1057	1441.547085318525	1
3	1059	1444.910761342255	2
3	1061	1451.28366983163	3
3	1063	1461.499879129338	4
3	1067	1465.513868401704	5
3	1070	1476.932281661967	6
3	1073	1477.930422976665	7
3	1075	1478.679782707069	8
3	1078	1481.314484811974	8
3	1088	1487.852909850065	1
3	1094	1495.04889228525	1
3	1097	1499.214898260726	1
3	1103	1522.65592764376	1
3	1108	1533.737402247805	1
3	1110	1534.119930802036	2
3	1112	1536.020939258877	3
3	1116	1536.74463829936	3
3	1121	1543.753819866202	1
3	1124	1550.490048471193	1
3	1127	1552.127237901668	1
3	1132	1561.099494529464	1
3	1134	1561.736256783071	2
3	1136	1562.201072198269	3
3	1138	1563.48833057923	4
3	1140	1572.331024863403	5
3	1146	1579.766498569828	3
3	1151	1587.492534272374	1
3	1156	1595.240335059932	1
3	1160	1601.067642778359	1
3	1163	1606.327122496521	1
3	1165	1608.404142328542	2
3	1169	1610.240775493689	1
3	1172	1613.180574842746	1
3	1175	1642.949468969593	1
3	1178	1645.230652225811	1
3	1183	1646.975834317291	1
3	1185	1656.153327438835	2
3	1190	1661.66811981229	1
3	1193	1663.65800196839	1
3	1196	1665.192397847096	1
3	1199	1667.139679867468	1
3	1202	1669.883753546381	1
3	1205	1683.573017323815	1
3	1210	1694.054039767577	1
3	1214	1706.681892455957	2
3	1216	1711.222983067539	3
3	1222	1728.539538100019	2
3	1226	1730.185618733778	1
3	1234	1738.425185919033	1
3	1238	1745.341520949656	2
3	1240	1745.796155819938	3
3	1247	1752.300936711196	1
3	1250	1752.777495615873	1
3	1256	1758.629948722102	1
3	1259	1762.701802685163	1
3	1262	1765.705743006637	1
3	1265	1775.40183782876	1
3	1267	1778.713997951904	2
3	1274	1789.493359242992	1
3	1277	1792.09112358921	1
3	1280	1797.155801785771	1
3	1285	1812.335492881895	1
3	1292	1827.93116526301	1
3	1294	1828.014270186191	2
3	1297	1828.8379689348	2
3	1301	1830.71774289348	1
3	1303	1831.970194103631	2
3	1310	1855.054849523398	1
3	1313	1857.075892743294	1
3	1319	1867.848545537973	1
3	1323	1869.332529111499	2
3	1325	1869.433248573908	3
3	1327	1871.30457107445	4
3	1329	1871.846926931843	5
3	1331	1872.477269306074	6
3	1333	1872.971294237842	7
3	1335	1875.324034285461	8
3	1337	1876.868885115533	9
3	1339	1877.020016330268	10
3	1341	1878.104256427377	11
3	1350	1881.962846041101	6
3	1358	1884.468347493103	1
3	1364	1899.046330339064	1
3	1367	1906.836550527302	1
3	1370	1909.781614405239	1
3	1372	1910.242797057981	2
3	1376	1915.135665952905	1
3	1378	1917.508496187824	2
3	1382	1922.239828333453	1
3	1385	1924.725001277255	1
3	1388	1938.268691111714	1
3	1391	1940.069004138125	1
3	1394	1946.700065200245	1
3	1397	1949.851232013444	1
3	1400	1958.560964706684	1
3	1403	1981.930198338307	1
3	1406	1983.976430138957	1
3	1412	1990.853171444784	1
3	1417	2002.753994120668	1
3	1419	2003.192144958179	2
3	1421	2004.216264600221	3
3	1425	2008.993528027096	4
3	1427	2011.614621495346	5
3	1429	2012.700622473653	6
3	1432	2019.387228815661	7
3	1434	2021.784140293814	8
3	1436	2023.812388768234	9
3	1448	2038.541115580369	1
3	1451	2049.404790495866	1
3	1454	2050.746659379961	1
3	1459	2060.600702456964	1
3	1461	2063.203055847214	2
3	1465	2064.10538094209	2
3	1472	2081.930435133934	1
3	1475	2083.24210508826	1
3	1477	2083.46668664216	2
3	1480	2083.735984718304	2
3	1482	2085.415059137336	3
3	1489	2095.200146920744	1
3	1491	2096.776880245436	2
3	1493	2098.848588980513	3
3	1499	2101.95597619816	1
3	1502	2104.454141400988	1
3	1505	2107.219261450394	1
3	1508	2108.795319100977	1
3	1511	2115.841072830904	1
3	1513	2116.498613701579	2
3	1516	2117.947023830874	2
3	1520	2120.999694140787	3
3	1527	2130.951250685719	4
3	1529	2132.288798900074	5
3	1531	2136.718023698682	6
3	1533	2140.858887630588	7
3	1535	2147.016376350292	8
3	1537	2148.149405611597	9
3	1539	2148.278055083445	10
3	1543	2151.858980579599	11
3	1545	2152.591949045824	12
3	1552	2167.40594018395	13
3	1554	2171.358702108609	14
3	1556	2173.683453890734	15
3	1558	2175.201442313626	16
3	1563	2190.620883161261	17
3	1565	2191.640415610732	18
3	1567	2191.934952548079	19
3	1569	2192.506348914797	20
3	1571	2196.485628574365	21
3	1573	2196.960437762582	22
3	1575	2201.539360682365	23
3	1577	2205.288100782134	24
3	1582	2221.606593161701	25
3	1584	2222.749329874626	26
3	1597	2235.713022911297	20
3	1601	2237.445661351993	19
3	1605	2241.021665502676	18
3	1617	2253.985491116157	9
3	1624	2261.110378945839	7
3	1626	2262.105521979166	8
3	1640	2280.734335326712	3
3	1645	2285.850388187432	2
3	1651	2292.518902860718	1
3	1653	2293.048763211732	2
3	1660	2308.439549499387	3
3	1662	2311.304570866515	4
3	1668	2325.280294833756	5
3	1672	2331.960409412359	5
3	1676	2335.247062589284	4
3	1682	2344.051508722429	1
3	1688	2349.444001892747	1
3	1691	2351.907705382469	1
3	1694	2352.899043305321	1
3	1699	2353.492253357156	1
3	1701	2356.364840087327	2
3	1706	2360.360437559073	1
3	1709	2370.414650898789	1
3	1715	2378.265750812261	1
3	1718	2382.570410168009	1
3	1728	2413.689896916357	1
3	1730	2415.32862424623	2
3	1738	2424.364244887313	1
3	1741	2425.019284919995	2
3	1746	2428.78453929793	2
3	1748	2430.103424417619	3
3	1750	2432.767426328066	4
3	1752	2433.435040827051	5
3	1754	2433.758090276129	6
3	1756	2435.08952280272	7
3	1758	2436.180454554472	8
3	1760	2438.599588279145	9
3	1766	2441.623706291248	7
3	1769	2441.842935605359	7
3	1774	2443.994782134305	7
3	1776	2453.117560314111	8
3	1778	2454.131324546644	9
3	1780	2456.717306082024	10
3	1790	2466.896378747808	4
3	1793	2471.085728913215	4
3	1798	2473.258200293958	2
3	1801	2478.313048544479	2
3	1803	2479.21563512132	3
3	1805	2479.928305565553	4
3	1811	2481.646675070503	3
3	1813	2482.078320088414	4
3	1816	2488.927031891218	5
3	1819	2489.778199687412	5
4	239	356.214027383193	0
4	240	356.86296960592	0
4	244	370.082701072161	0
4	246	376.533231627958	0
4	248	379.09953516694	0
4	249	380.254449926783	0
4	251	382.787080294875	0
4	252	383.990531941031	0
4	254	384.299178177176	0
4	256	384.871708032198	1
4	258	385.053773900894	2
4	260	385.914977048936	3
4	261	386.153080722351	3
4	263	387.213772709022	3
4	264	387.66500444285	3
4	265	388.622442305615	2
4	266	388.645642450802	1
4	267	389.473893700798	0
4	269	391.153289470703	0
4	270	392.015240850271	0
4	272	392.339378597865	0
4	273	392.798501160242	0
4	275	396.055312104927	0
4	276	396.056955624896	0
4	278	397.051962597638	0
4	279	398.226153958139	0
4	281	402.127137524858	0
4	282	402.851718834423	0
4	284	404.026973957353	0
4	288	406.593579653007	1
4	290	407.972601482988	2
4	293	413.218928783278	3
4	294	413.423417364046	3
4	295	414.44449979968	2
4	297	415.57189526878	2
4	301	418.10025659078	3
4	303	423.107647887095	4
4	306	427.997363211773	5
4	308	429.259147129613	6
4	309	431.401208228551	6
4	310	431.40695979806	5
4	311	433.310618507625	4
4	312	433.610504876196	3
4	313	434.885471028412	2
4	314	436.50747196138	1
4	316	436.551429111272	1
4	318	437.298288386469	2
4	319	437.607262337319	2
4	321	438.284290333296	2
4	322	439.651206174835	2
4	323	439.874056524122	1
4	324	442.434759843778	0
4	326	442.586170003627	0
4	327	443.779087256778	0
4	331	444.940796417319	0
4	333	447.107602306376	1
4	335	450.598733202671	2
4	337	453.751946395203	3
4	339	459.554391479486	4
4	341	461.776198560244	5
4	343	463.239200316691	6
4	345	463.673361435079	7
4	347	464.232327680042	7
4	348	465.088967692843	6
4	349	465.722881097879	5
4	350	466.589718548396	4
4	352	467.718855632329	4
4	354	469.176701112185	5
4	358	474.079925462206	6
4	360	474.322755257879	7
4	364	485.615651879455	8
4	367	490.913962033768	8
4	368	491.423030545618	7
4	369	491.618128729741	6
4	370	493.298700068408	5
4	371	493.716531954603	4
4	372	493.778578030283	3
4	373	494.569242115896	2
4	377	498.869748876363	2
4	382	501.123527898906	3
4	384	502.470390318441	4
4	386	506.2171733276	4
4	387	506.434676510101	3
4	389	507.544831550619	3
4	390	507.586543097937	3
4	391	508.249997658423	2
4	392	508.379592203691	1
4	393	508.409135911375	0
4	395	515.872358604738	0
4	397	516.934900183669	1
4	399	517.609314057095	2
4	403	518.581907339356	2
4	404	518.9543922047	1
4	405	520.307795829416	0
4	407	521.053039684336	0
4	408	521.171208332424	0
4	412	521.446667095176	0
4	414	522.453855049111	1
4	416	528.239113539336	2
4	418	533.054013279047	2
4	419	533.343356883728	1
4	420	533.407587776737	0
4	422	540.767704459622	0
4	426	548.274007520122	0
4	428	555.462009828912	0
4	429	555.78406817655	0
4	431	558.288613126461	0
4	432	559.287649938434	0
4	434	560.185213718829	0
4	435	560.441382114309	0
4	439	569.050533268777	0
4	442	579.498884687912	1
4	443	580.549433729403	1
4	445	582.19480705157	1
4	446	583.415077371142	1
4	447	584.249977072972	0
4	449	588.184190913694	0
4	450	588.65784059962	0
4	452	599.936118127082	0
4	453	600.944952426847	0
4	455	602.13929839104	0
4	456	602.623648620301	0
4	458	604.733799172798	0
4	459	606.404593448058	0
4	461	616.480929806211	0
4	462	616.840468795285	0
4	464	618.492090294646	0
4	466	620.853477120937	1
4	467	621.105047895635	1
4	468	621.322123621828	0
4	470	625.098258956758	0
4	471	627.535825237997	0
4	473	634.475777885981	0
4	474	635.808776598402	0
4	476	643.811760504369	0
4	477	645.553648763647	0
4	479	650.422561580395	0
4	480	653.044003771749	0
4	484	660.289482993572	0
4	486	666.292392891195	1
4	488	670.82023644983	2
4	490	676.356128933133	3
4	492	676.798436230319	4
4	494	677.215231449999	5
4	496	681.762633908788	6
4	498	681.991010111041	7
4	500	683.399203367761	8
4	502	683.899399514129	9
4	504	684.386312002849	9
4	505	685.539061901986	8
4	506	685.986988498581	7
4	507	686.538993315576	6
4	508	686.57514812883	5
4	509	687.410668822161	4
4	510	688.201116540094	3
4	511	688.443161632911	2
4	512	690.033496796603	1
4	513	690.204322024139	0
4	515	690.49432515063	0
4	516	690.546822120084	0
4	518	691.720186514993	0
4	519	693.526942877057	0
4	521	702.972583589614	0
4	522	703.181661195419	0
4	526	711.198337720872	0
4	528	714.813627878159	1
4	530	715.342544386429	2
4	532	719.968741524279	3
4	534	720.300783544328	4
4	536	720.637189915094	5
4	538	723.074050514509	5
4	539	723.528933466145	4
4	540	724.560865343393	3
4	541	724.840964068796	2
4	542	724.985112475861	1
4	543	726.570284566606	0
4	545	735.044805607342	0
4	546	735.239267494135	0
4	548	738.928261964824	0
4	549	739.362273066801	0
4	551	739.817151769104	0
4	552	740.201150817798	0
4	554	740.508790623711	0
4	555	741.527329169221	0
4	559	744.989682927776	0
4	561	749.171687912402	0
4	563	749.756568490231	0
4	564	750.436631747249	0
4	569	764.770822232642	0
4	570	765.027761975353	0
4	572	767.030857742808	0
4	576	769.31546299678	1
4	578	774.004170184144	1
4	579	776.217721657312	0
4	581	776.615340620418	0
4	583	776.724619636572	1
4	585	776.973377000694	2
4	586	779.417141495276	2
4	588	780.650252830687	2
4	590	781.231900214804	3
4	591	782.114173570273	3
4	593	783.065618040321	3
4	594	784.98839794619	3
4	595	785.077343952206	2
4	596	785.19578117846	1
4	597	786.863825382732	0
4	599	788.826050709946	0
4	603	797.779307662022	1
4	605	801.393770719704	2
4	607	814.645173108112	3
4	609	817.668202439307	3
4	611	818.88414574675	3
4	613	819.574341053078	4
4	614	822.858785104582	4
4	615	823.283476075937	3
4	616	823.718457239636	2
4	617	823.824737370988	1
4	618	824.486502743753	0
4	620	828.854454811308	0
4	621	829.338004272697	0
4	625	837.747746122636	0
4	627	841.092337896402	1
4	629	848.818862122667	2
4	631	857.12632019606	3
4	633	859.730171126926	3
4	634	860.444245347604	2
4	635	860.910694191054	1
4	637	862.976498229725	1
4	641	866.545734324769	2
4	643	867.051891725248	2
4	644	867.415990809627	1
4	645	867.880430141464	0
4	647	871.801150481608	0
4	648	871.966807408071	0
4	650	884.868535146864	0
4	651	884.880981695384	0
4	655	898.714824934679	0
4	657	899.328485820126	0
4	659	904.211804462952	0
4	661	905.558734590065	1
4	662	906.175825888823	1
4	663	906.30083125977	0
4	665	906.363845669958	0
4	666	906.4816282995	0
4	668	909.647535667042	0
4	669	910.093330500406	0
4	673	911.914669964185	0
4	678	925.029214792727	1
4	683	935.070400664471	2
4	685	936.046875295072	3
4	688	938.202984311935	4
4	689	938.610372438328	4
4	690	938.93993279549	3
4	692	939.033424013633	3
4	694	940.081018919009	4
4	695	940.836919661952	4
4	696	942.408297727152	3
4	697	943.131363983855	2
4	698	943.722261705007	1
4	699	944.31395006017	0
4	701	957.241306803035	0
4	705	960.440488879259	1
4	707	962.373330149167	2
4	711	964.867660374201	3
4	713	975.716553004582	4
4	715	980.540412966418	5
4	717	984.481845896118	6
4	719	987.352149000555	7
4	721	989.671113244611	8
4	724	991.182873389116	9
4	726	991.919146556616	10
4	728	994.57830524124	11
4	730	995.175097258653	12
4	734	997.890412825675	13
4	736	998.265556951445	14
4	741	1009.901065823335	15
4	743	1010.974705372229	16
4	746	1015.033331762502	16
4	747	1016.645154609509	15
4	748	1017.359961722828	14
4	749	1017.380563876733	13
4	750	1018.046288435795	12
4	751	1018.89636700942	11
4	752	1018.951259111639	10
4	753	1019.481239724877	9
4	754	1019.764044222598	8
4	755	1023.972910733634	7
4	756	1025.383196714137	6
4	757	1026.99966694158	5
4	758	1027.98717644445	4
4	759	1028.042649089365	3
4	760	1029.421076653776	2
4	761	1029.632387702428	1
4	763	1030.439794926837	1
4	765	1030.454449358654	2
4	769	1035.339549793447	3
4	771	1039.496972930391	3
4	772	1040.388416809202	2
4	773	1044.395601991146	1
4	774	1045.609430111101	0
4	776	1045.808991035621	0
4	778	1046.243234080725	1
4	779	1046.514971855996	1
4	780	1046.918511042456	0
4	784	1060.077023293853	0
4	786	1065.998131096347	0
4	788	1066.679532350874	0
4	789	1067.125793199442	0
4	791	1070.171819352972	0
4	792	1071.025307786037	0
4	796	1075.84849225931	0
4	798	1082.730109709133	1
4	802	1091.4742668391	2
4	804	1094.823091212918	3
4	806	1096.957439033895	4
4	808	1096.977082053955	5
4	810	1097.280505656456	6
4	813	1100.383051175695	7
4	817	1105.114505253897	8
4	819	1105.900478704399	9
4	821	1106.56250809929	10
4	823	1108.409099088095	11
4	825	1115.534888989232	12
4	831	1122.531018707121	13
4	837	1130.4406994817	14
4	840	1137.480524766108	15
4	842	1140.107064563852	16
4	845	1148.734737801881	16
4	846	1150.257607636789	15
4	848	1152.582565221221	15
4	849	1153.328721146035	15
4	850	1155.101946521268	14
4	851	1155.625664448512	13
4	852	1155.901511063274	12
4	853	1158.189908810659	11
4	854	1160.120679790088	10
4	855	1160.521535422201	9
4	856	1160.675405375309	8
4	857	1160.761768122797	7
4	858	1162.188413747518	6
4	859	1162.936476692745	5
4	860	1165.647683081025	4
4	861	1166.728979324674	3
4	863	1166.976535881742	3
4	864	1167.987683678665	3
4	865	1170.222463360721	2
4	866	1170.35948813466	1
4	867	1173.716406877591	0
4	869	1180.394959787831	0
4	870	1180.525430723261	0
4	872	1181.34942953241	0
4	874	1181.821761685282	1
4	875	1182.818812820577	1
4	876	1183.748468406825	0
4	882	1196.109084615138	0
4	884	1197.195542591089	1
4	886	1200.327563764802	2
4	891	1204.449181525093	3
4	896	1211.647523211537	4
4	898	1211.699930264103	5
4	904	1218.688126624934	6
4	906	1219.994281009976	7
4	908	1226.136126169054	7
4	909	1230.24639187433	6
4	910	1231.484435353414	5
4	911	1233.832825104518	4
4	912	1235.041987454169	3
4	913	1235.344493768563	2
4	914	1236.80263382877	1
4	915	1237.710785289978	0
4	917	1239.866413294529	0
4	919	1240.054203870145	1
4	920	1243.52960462504	1
4	921	1243.936092914498	0
4	926	1258.16554380865	0
4	928	1258.606326238256	1
4	929	1258.633492773433	1
4	931	1258.810910824889	1
4	932	1259.22318752205	1
4	933	1259.309894699415	0
4	935	1264.238933637798	0
4	937	1264.31943459418	1
4	938	1265.274361283704	1
4	939	1265.548325137675	0
4	941	1268.699301296563	0
4	942	1269.117356383867	0
4	946	1272.617838046088	0
4	948	1274.818724296295	0
4	950	1279.106747373078	0
4	952	1279.279071185775	1
4	953	1280.96554444145	1
4	954	1281.417472103909	0
4	958	1291.015760921914	0
4	960	1292.188587069941	0
4	962	1296.372954757543	0
4	964	1296.457249651128	1
4	965	1298.035341189897	1
4	966	1298.258715385629	0
4	968	1300.284791824592	0
4	969	1300.346769543104	0
4	971	1311.634987116429	0
4	972	1312.114578226291	0
4	974	1317.126424795959	0
4	975	1317.723795645845	0
4	977	1320.631323503012	0
4	978	1321.372636717774	0
4	980	1323.542400900838	0
4	981	1325.219959901139	0
4	983	1328.312616354565	0
4	984	1329.43770443386	0
4	986	1329.903126615224	0
4	987	1330.209975706706	0
4	989	1330.626785437466	0
4	990	1330.957039544532	0
4	992	1345.572450287073	0
4	993	1345.637950318221	0
4	995	1348.765442838134	0
4	996	1350.165570429238	0
4	998	1355.280164222653	0
4	999	1355.557378173468	0
4	1001	1360.313559986239	0
4	1003	1360.345280090912	1
4	1004	1361.522747115791	1
4	1005	1361.611655343893	0
4	1007	1363.729559503434	0
4	1008	1363.830512913309	0
4	1010	1364.252628813291	0
4	1011	1365.901730228229	0
4	1013	1377.650982548959	0
4	1014	1377.75855494543	0
4	1016	1382.645164520114	0
4	1017	1382.831795442458	0
4	1022	1396.38123815931	0
4	1023	1396.802789268253	0
4	1025	1398.079883631854	0
4	1026	1398.297224830143	0
4	1028	1401.545234091395	0
4	1029	1403.26003950738	0
4	1033	1404.163283031222	0
4	1035	1406.798358620124	1
4	1040	1414.403917189394	2
4	1042	1419.267258478047	2
4	1043	1421.852813505379	1
4	1045	1422.729651254381	1
4	1046	1423.515048634729	1
4	1048	1424.915556693048	1
4	1049	1424.934495611985	1
4	1050	1425.824567753931	0
4	1052	1428.541550414091	0
4	1053	1430.65418961936	0
4	1057	1441.547085318525	0
4	1059	1444.910761342255	1
4	1061	1451.28366983163	2
4	1063	1461.499879129338	3
4	1067	1465.513868401704	4
4	1070	1476.932281661967	5
4	1073	1477.930422976665	6
4	1075	1478.679782707069	7
4	1076	1479.464081640849	7
4	1078	1481.314484811974	7
4	1079	1481.389224076332	7
4	1080	1481.450909752033	6
4	1081	1481.637779654398	5
4	1082	1484.990090965964	4
4	1083	1485.868886785503	3
4	1084	1486.715127374282	2
4	1085	1487.146977875024	1
4	1086	1487.507256603504	0
4	1088	1487.852909850065	0
4	1089	1489.19480969282	0
4	1094	1495.04889228525	0
4	1095	1496.795903076418	0
4	1097	1499.214898260726	0
4	1098	1499.244297025785	0
4	1103	1522.65592764376	0
4	1104	1523.733024889104	0
4	1108	1533.737402247805	0
4	1110	1534.119930802036	1
4	1112	1536.020939258877	2
4	1114	1536.655177853685	2
4	1116	1536.74463829936	2
4	1117	1540.960350477367	2
4	1118	1541.10409261454	1
4	1119	1541.21780964545	0
4	1121	1543.753819866202	0
4	1122	1547.677384334367	0
4	1124	1550.490048471193	0
4	1125	1551.359738389462	0
4	1127	1552.127237901668	0
4	1128	1554.816361573289	0
4	1132	1561.099494529464	0
4	1134	1561.736256783071	1
4	1136	1562.201072198269	2
4	1138	1563.48833057923	3
4	1140	1572.331024863403	4
4	1142	1577.334934508022	4
4	1143	1578.559861181354	3
4	1144	1579.616192403471	2
4	1146	1579.766498569828	2
4	1147	1582.365743272166	2
4	1148	1582.642629236612	1
4	1149	1583.97893811204	0
4	1151	1587.492534272374	0
4	1152	1587.524159171574	0
4	1156	1595.240335059932	0
4	1158	1596.871120583069	0
4	1160	1601.067642778359	0
4	1161	1601.853414910174	0
4	1163	1606.327122496521	0
4	1165	1608.404142328542	1
4	1166	1608.53156167623	1
4	1167	1608.985235650767	0
4	1169	1610.240775493689	0
4	1170	1611.098768320837	0
4	1172	1613.180574842746	0
4	1173	1615.409289492921	0
4	1175	1642.949468969593	0
4	1176	1644.717695334794	0
4	1178	1645.230652225811	0
4	1179	1645.845627247702	0
4	1183	1646.975834317291	0
4	1185	1656.153327438835	1
4	1187	1660.612713291172	1
4	1188	1661.155122647693	0
4	1190	1661.66811981229	0
4	1191	1661.801465359469	0
4	1193	1663.65800196839	0
4	1194	1664.660138052833	0
4	1196	1665.192397847096	0
4	1197	1666.478213365429	0
4	1199	1667.139679867468	0
4	1200	1667.888717909992	0
4	1202	1669.883753546381	0
4	1203	1670.116668593184	0
4	1205	1683.573017323815	0
4	1206	1686.822639619735	0
4	1210	1694.054039767577	0
4	1214	1706.681892455957	1
4	1216	1711.222983067539	2
4	1219	1724.49745015314	2
4	1220	1726.053395210443	1
4	1222	1728.539538100019	1
4	1223	1728.949440781874	1
4	1224	1729.63600072529	0
4	1226	1730.185618733778	0
4	1227	1731.541337022712	0
4	1234	1738.425185919033	0
4	1238	1745.341520949656	1
4	1240	1745.796155819938	2
4	1243	1747.87351934473	2
4	1244	1748.431559881056	1
4	1245	1749.357860902254	0
4	1247	1752.300936711196	0
4	1248	1752.482428156944	0
4	1250	1752.777495615873	0
4	1251	1754.158109372418	0
4	1256	1758.629948722102	0
4	1257	1759.381628126189	0
4	1259	1762.701802685163	0
4	1260	1764.111831842606	0
4	1262	1765.705743006637	0
4	1263	1765.821350301509	0
4	1265	1775.40183782876	0
4	1267	1778.713997951904	1
4	1268	1780.438407062401	1
4	1269	1781.654508393714	0
4	1274	1789.493359242992	0
4	1275	1789.739896530428	0
4	1277	1792.09112358921	0
4	1278	1793.625959133557	0
4	1280	1797.155801785771	0
4	1281	1797.710296045047	0
4	1285	1812.335492881895	0
4	1287	1817.996083222488	0
4	1292	1827.93116526301	0
4	1294	1828.014270186191	1
4	1295	1828.482551801269	1
4	1297	1828.8379689348	1
4	1298	1829.693950157638	1
4	1299	1830.077624080072	0
4	1301	1830.71774289348	0
4	1303	1831.970194103631	1
4	1304	1833.030541028455	1
4	1305	1833.48519588227	0
4	1310	1855.054849523398	0
4	1311	1856.501983921803	0
4	1313	1857.075892743294	0
4	1314	1857.725868010503	0
4	1319	1867.848545537973	0
4	1323	1869.332529111499	1
4	1325	1869.433248573908	2
4	1327	1871.30457107445	3
4	1329	1871.846926931843	4
4	1331	1872.477269306074	5
4	1333	1872.971294237842	6
4	1335	1875.324034285461	7
4	1337	1876.868885115533	8
4	1339	1877.020016330268	9
4	1341	1878.104256427377	10
4	1343	1880.330034544397	10
4	1344	1881.111118069943	9
4	1345	1881.191142985323	8
4	1346	1881.499341079901	7
4	1347	1881.603733729569	6
4	1348	1881.748024200272	5
4	1350	1881.962846041101	5
4	1351	1882.073690498983	5
4	1352	1882.43306350646	4
4	1353	1882.598496055728	3
4	1354	1882.745234390282	2
4	1355	1882.861676511685	1
4	1356	1883.243962644431	0
4	1358	1884.468347493103	0
4	1359	1885.120588030123	0
4	1364	1899.046330339064	0
4	1365	1900.183213771187	0
4	1367	1906.836550527302	0
4	1368	1907.227324440566	0
4	1370	1909.781614405239	0
4	1372	1910.242797057981	1
4	1373	1910.701263652609	1
4	1374	1911.895856699075	0
4	1376	1915.135665952905	0
4	1378	1917.508496187824	1
4	1379	1921.022939332321	1
4	1380	1921.57774359856	0
4	1382	1922.239828333453	0
4	1383	1923.062889661468	0
4	1385	1924.725001277255	0
4	1386	1926.59821307586	0
4	1388	1938.268691111714	0
4	1389	1939.064372140337	0
4	1391	1940.069004138125	0
4	1392	1940.69997863034	0
4	1394	1946.700065200245	0
4	1395	1947.728264325545	0
4	1397	1949.851232013444	0
4	1398	1951.827963114556	0
4	1400	1958.560964706684	0
4	1401	1959.858476976577	0
4	1403	1981.930198338307	0
4	1404	1981.993125895069	0
4	1406	1983.976430138957	0
4	1410	1989.787359449379	0
4	1412	1990.853171444784	0
4	1413	1991.010773841377	0
4	1417	2002.753994120668	0
4	1419	2003.192144958179	1
4	1421	2004.216264600221	2
4	1425	2008.993528027096	3
4	1427	2011.614621495346	4
4	1429	2012.700622473653	5
4	1432	2019.387228815661	6
4	1434	2021.784140293814	7
4	1436	2023.812388768234	8
4	1438	2025.855052746479	8
4	1439	2026.900706439946	7
4	1440	2027.829586878218	6
4	1441	2028.318740248809	5
4	1442	2028.756912651993	4
4	1443	2029.377392573117	3
4	1444	2030.87969054615	2
4	1445	2030.993024303341	1
4	1446	2031.92089006026	0
4	1448	2038.541115580369	0
4	1449	2038.73671858202	0
4	1451	2049.404790495866	0
4	1452	2049.77473996806	0
4	1454	2050.746659379961	0
4	1455	2051.601989853211	0
4	1459	2060.600702456964	0
4	1461	2063.203055847214	1
4	1463	2063.791162109774	1
4	1465	2064.10538094209	1
4	1466	2064.591824491396	1
4	1467	2064.665757388334	0
4	1472	2081.930435133934	0
4	1473	2082.563260271466	0
4	1475	2083.24210508826	0
4	1477	2083.46668664216	1
4	1478	2083.669400499912	1
4	1480	2083.735984718304	1
4	1482	2085.415059137336	2
4	1483	2085.524825898489	2
4	1484	2085.537757221028	1
4	1485	2085.892755974947	0
4	1489	2095.200146920744	0
4	1491	2096.776880245436	1
4	1493	2098.848588980513	2
4	1495	2099.147564778672	2
4	1496	2100.150399834339	1
4	1497	2100.212665134537	0
4	1499	2101.95597619816	0
4	1500	2102.47782853837	0
4	1502	2104.454141400988	0
4	1503	2104.780087542789	0
4	1505	2107.219261450394	0
4	1506	2107.865614708914	0
4	1508	2108.795319100977	0
4	1509	2109.223539133685	0
4	1511	2115.841072830904	0
4	1513	2116.498613701579	1
4	1514	2117.880455101677	1
4	1516	2117.947023830874	1
4	1520	2120.999694140787	2
4	1527	2130.951250685719	3
4	1529	2132.288798900074	4
4	1531	2136.718023698682	5
4	1533	2140.858887630588	6
4	1535	2147.016376350292	7
4	1537	2148.149405611597	8
4	1539	2148.278055083445	9
4	1543	2151.858980579599	10
4	1545	2152.591949045824	11
4	1552	2167.40594018395	12
4	1554	2171.358702108609	13
4	1556	2173.683453890734	14
4	1558	2175.201442313626	15
4	1563	2190.620883161261	16
4	1565	2191.640415610732	17
4	1567	2191.934952548079	18
4	1569	2192.506348914797	19
4	1571	2196.485628574365	20
4	1573	2196.960437762582	21
4	1575	2201.539360682365	22
4	1577	2205.288100782134	23
4	1582	2221.606593161701	24
4	1584	2222.749329874626	25
4	1586	2226.609806599506	25
4	1590	2231.911583287161	24
4	1591	2232.572486075745	23
4	1592	2233.552660786614	22
4	1593	2233.70393274248	21
4	1594	2233.877906364782	20
4	1595	2233.956347099118	19
4	1597	2235.713022911297	19
4	1598	2236.198426662208	19
4	1599	2237.363465368938	18
4	1601	2237.445661351993	18
4	1602	2238.674990965821	18
4	1603	2240.390140536072	17
4	1605	2241.021665502676	17
4	1606	2241.078833682253	17
4	1607	2242.037774439436	16
4	1608	2243.069588875809	15
4	1609	2245.333730369619	14
4	1610	2246.046009591347	13
4	1611	2247.041689888071	12
4	1612	2247.22586294701	11
4	1613	2248.836918450825	10
4	1614	2249.862646811371	9
4	1615	2250.312165019687	8
4	1617	2253.985491116157	8
4	1618	2254.749092620831	8
4	1619	2254.777197060224	7
4	1620	2256.248306051153	6
4	1624	2261.110378945839	6
4	1626	2262.105521979166	7
4	1628	2262.616685341295	7
4	1629	2262.816944267731	6
4	1630	2263.644094465831	5
4	1631	2263.771665394516	4
4	1632	2265.675396767804	3
4	1633	2268.137387343739	2
4	1640	2280.734335326712	2
4	1642	2283.59823760183	2
4	1643	2284.224334814827	1
4	1645	2285.850388187432	1
4	1646	2286.63336356536	1
4	1647	2287.874107963514	0
4	1651	2292.518902860718	0
4	1653	2293.048763211732	1
4	1660	2308.439549499387	2
4	1662	2311.304570866515	3
4	1668	2325.280294833756	4
4	1670	2331.662698881559	4
4	1672	2331.960409412359	4
4	1673	2333.66789102565	4
4	1674	2335.097224586624	3
4	1676	2335.247062589284	3
4	1677	2335.654225412473	3
4	1678	2335.808397850949	2
4	1679	2339.604906726491	1
4	1680	2341.275923211095	0
4	1682	2344.051508722429	0
4	1683	2345.111768819839	0
4	1688	2349.444001892747	0
4	1689	2349.657540835172	0
4	1691	2351.907705382469	0
4	1692	2352.156710808659	0
4	1694	2352.899043305321	0
4	1695	2353.067160363062	0
4	1699	2353.492253357156	0
4	1701	2356.364840087327	1
4	1703	2358.780939454856	1
4	1704	2359.303633495164	0
4	1706	2360.360437559073	0
4	1707	2361.441963977961	0
4	1709	2370.414650898789	0
4	1710	2370.415033871653	0
4	1715	2378.265750812261	0
4	1716	2378.504091707283	0
4	1718	2382.570410168009	0
4	1719	2384.438086678897	0
4	1728	2413.689896916357	0
4	1730	2415.32862424623	1
4	1733	2416.98683014476	1
4	1734	2417.162532596779	0
4	1738	2424.364244887313	0
4	1741	2425.019284919995	1
4	1742	2426.341818205297	1
4	1746	2428.78453929793	1
4	1748	2430.103424417619	2
4	1750	2432.767426328066	3
4	1752	2433.435040827051	4
4	1754	2433.758090276129	5
4	1756	2435.08952280272	6
4	1758	2436.180454554472	7
4	1760	2438.599588279145	8
4	1762	2440.379938524706	8
4	1763	2440.441413172515	7
4	1764	2441.315868376365	6
4	1766	2441.623706291248	6
4	1767	2441.731182038733	6
4	1769	2441.842935605359	6
4	1770	2443.201989078521	6
4	1774	2443.994782134305	6
4	1776	2453.117560314111	7
4	1778	2454.131324546644	8
4	1780	2456.717306082024	9
4	1782	2459.570679267769	9
4	1783	2460.635056508222	8
4	1784	2463.89130930708	7
4	1785	2464.576776815142	6
4	1786	2465.054455236666	5
4	1787	2465.829947062579	4
4	1788	2466.676740575705	3
4	1790	2466.896378747808	3
4	1791	2467.363926255774	3
4	1793	2471.085728913215	3
4	1794	2471.254116003775	3
4	1795	2471.667117412643	2
4	1796	2473.093097916827	1
4	1798	2473.258200293958	1
4	1799	2474.450807700955	1
4	1801	2478.313048544479	1
4	1803	2479.21563512132	2
4	1805	2479.928305565553	3
4	1806	2480.194887736389	3
4	1807	2480.552271312994	2
4	1811	2481.646675070503	2
4	1813	2482.078320088414	3
4	1816	2488.927031891218	4
4	1817	2489.655244973692	4
4	1819	2489.778199687412	4
4	1820	2492.111087555105	4
4	1821	2494.769239598679	3
4	1822	2494.85910936237	2
4	1823	2494.968643288607	1
4	1824	2495.23739061668	0
5	239	356.214027383193	0
5	245	376.304377369425	6.221676297264
5	248	379.09953516694	0
5	251	382.787080294875	0
5	254	384.299178177176	0
5	261	386.153080722351	1.281372690153
5	264	387.66500444285	2.611230541956
5	265	388.622442305615	2.707465256679
5	266	388.645642450802	1.43186974178
5	269	391.153289470703	0
5	272	392.339378597865	0
5	275	396.055312104927	0
5	278	397.051962597638	0
5	281	402.127137524858	0
5	284	404.026973957353	0
5	291	411.761355023125	7.50278093699
5	294	413.423417364046	6.829837711039
5	295	414.44449979968	6.471898316692
5	304	427.158985033829	13.940056250551
5	309	431.401208228551	15.829312959771
5	310	431.40695979806	15.618283706259
5	311	433.310618507625	15.210361916845
5	312	433.610504876196	10.502856989101
5	313	434.885471028412	6.888107816639
5	314	436.50747196138	7.248324831767
5	319	437.607262337319	1.055833226047
5	322	439.651206174835	2.352917788366
5	323	439.874056524122	1.589766190826
5	326	442.586170003627	0
5	346	464.230111009813	19.289314592494
5	347	464.232327680042	17.124725373666
5	348	465.088967692843	14.490234490172
5	349	465.722881097879	11.970934702676
5	350	466.589718548396	7.03532706891
5	366	490.847280527691	29.071081967447
5	367	490.913962033768	27.674761717077
5	368	491.423030545618	27.749669110539
5	369	491.618128729741	23.899273097412
5	370	493.298700068408	24.121998956223
5	371	493.716531954603	23.169661847378
5	372	493.778578030283	19.698652568077
5	373	494.569242115896	20.246486858017
5	378	499.82527921581	14.209627336355
5	385	505.504881977678	10.475151868685
5	386	506.2171733276	7.347424451237
5	387	506.434676510101	5.921109034729
5	390	507.586543097937	6.463015199031
5	391	508.249997658423	5.779607339982
5	392	508.379592203691	0.834760653072
5	395	515.872358604738	0
5	402	518.491407317477	1.556507133808
5	403	518.581907339356	0.972593282261
5	404	518.9543922047	1.145091780965
5	407	521.053039684336	0
5	417	532.41095719066	10.964290095484
5	418	533.054013279047	10.600158229936
5	419	533.343356883728	5.104243344392
5	422	540.767704459622	0
5	425	545.323821063245	3.398818833591
5	428	555.462009828912	0
5	431	558.288613126461	0
5	434	560.185213718829	0
5	440	578.853019727254	9.802486458477
5	443	580.549433729403	1.050549041491
5	446	583.415077371142	1.220270319572
5	449	588.184190913694	0
5	452	599.936118127082	0
5	455	602.13929839104	0
5	458	604.733799172798	0
5	461	616.480929806211	0
5	464	618.492090294646	0
5	467	621.105047895635	0.251570774698
5	470	625.098258956758	0
5	473	634.475777885981	0
5	476	643.811760504369	0
5	479	650.422561580395	0
5	503	684.287372238643	23.997889245071
5	504	684.386312002849	18.093919111654
5	505	685.539061901986	14.718825452156
5	506	685.986988498581	9.630859565448
5	507	686.538993315576	9.740557085257
5	508	686.57514812883	9.359916678831
5	509	687.410668822161	5.648034913373
5	510	688.201116540094	6.210106429053
5	511	688.443161632911	5.04395826515
5	512	690.033496796603	6.134097282474
5	515	690.49432515063	0
5	518	691.720186514993	0
5	521	702.972583589614	0
5	537	721.209363962106	10.011026241234
5	538	723.074050514509	8.26042263635
5	539	723.528933466145	8.186389079716
5	540	724.560865343393	4.592123819114
5	541	724.840964068796	4.540180524468
5	542	724.985112475861	4.347922560767
5	545	735.044805607342	0
5	548	738.928261964824	0
5	551	739.817151769104	0
5	554	740.508790623711	0
5	560	746.047016959845	1.057334032069
5	563	749.756568490231	0
5	569	764.770822232642	0
5	572	767.030857742808	0
5	577	773.137454573252	6.017062148036
5	578	774.004170184144	4.688707187364
5	581	776.615340620418	0
5	586	779.417141495276	2.692521858704
5	591	782.114173570273	5.140796569579
5	594	784.98839794619	4.338145115503
5	595	785.077343952206	3.845443737402
5	596	785.19578117846	2.130163138139
5	599	788.826050709946	0
5	608	816.341214638159	26.525425047733
5	609	817.668202439307	19.888894777285
5	614	822.858785104582	21.465014384878
5	615	823.283476075937	8.638302967825
5	616	823.718457239636	4.834311492886
5	617	823.824737370988	4.25039631791
5	620	828.854454811308	0
5	632	858.374871021238	20.627124898602
5	633	859.730171126926	18.637833230524
5	634	860.444245347604	11.625383224937
5	635	860.910694191054	3.784373994994
5	642	867.01610131647	4.039603086745
5	643	867.051891725248	3.081818316073
5	644	867.415990809627	0.870256484858
5	647	871.801150481608	0
5	650	884.868535146864	0
5	656	898.940324853383	0.225499918704
5	659	904.211804462952	0
5	662	906.175825888823	0.617091298758
5	665	906.363845669958	0
5	668	909.647535667042	0
5	679	934.014917247166	22.100247282981
5	686	937.414373255361	12.385158462634
5	689	938.610372438328	4.1382879059
5	690	938.93993279549	3.869532131019
5	695	940.836919661952	4.79004436688
5	696	942.408297727152	4.205313415217
5	697	943.131363983855	4.097939970222
5	698	943.722261705007	3.641242785998
5	701	957.241306803035	0
5	745	1013.405255393337	53.570961059572
5	746	1015.033331762502	54.592842883243
5	747	1016.645154609509	54.271824460342
5	748	1017.359961722828	52.492301348627
5	749	1017.380563876733	41.664010872151
5	750	1018.046288435795	37.505875469377
5	751	1018.89636700942	34.414521113302
5	752	1018.951259111639	31.599110111084
5	753	1019.481239724877	29.810126480266
5	754	1019.764044222598	28.581170833482
5	755	1023.972910733634	32.053764177018
5	756	1025.383196714137	30.804891472897
5	757	1026.99966694158	31.824569682927
5	758	1027.98717644445	30.096763618775
5	759	1028.042649089365	29.77709213792
5	760	1029.421076653776	19.520010830441
5	761	1029.632387702428	18.657682330199
5	770	1038.894728332283	8.454933405446
5	771	1039.496972930391	9.042523571737
5	772	1040.388416809202	9.445264209634
5	773	1044.395601991146	9.056052197699
5	776	1045.808991035621	0
5	779	1046.514971855996	0.271737775271
5	785	1065.753147160999	5.676123867146
5	788	1066.679532350874	0
5	791	1070.171819352972	0
5	844	1146.190456068985	70.341963809675
5	845	1148.734737801881	66.004628092748
5	846	1150.257607636789	58.783340797689
5	849	1153.328721146035	58.505629933117
5	850	1155.101946521268	58.144507487373
5	851	1155.625664448512	58.648582394557
5	852	1155.901511063274	58.621005406818
5	853	1158.189908810659	57.806857634964
5	854	1160.120679790088	55.006174536191
5	855	1160.521535422201	54.621056717802
5	856	1160.675405375309	54.112897276019
5	857	1160.761768122797	52.352669034702
5	858	1162.188413747518	46.653524758286
5	859	1162.936476692745	40.405457985624
5	860	1165.647683081025	35.206983599325
5	861	1166.728979324674	29.248454558566
5	864	1167.987683678665	27.880619114813
5	865	1170.222463360721	17.6398981395
5	866	1170.35948813466	3.382952252918
5	869	1180.394959787831	0
5	872	1181.34942953241	0
5	875	1182.818812820577	0.997051135295
5	907	1224.712756473745	28.603671858607
5	908	1226.136126169054	28.940583577965
5	909	1230.24639187433	29.918828109528
5	910	1231.484435353414	27.035253828321
5	911	1233.832825104518	22.185301892981
5	912	1235.041987454169	23.342057190066
5	913	1235.344493768563	16.656367143629
5	914	1236.80263382877	16.808352818794
5	917	1239.866413294529	0
5	920	1243.52960462504	3.475400754895
5	926	1258.16554380865	0
5	929	1258.633492773433	0.027166535177
5	932	1259.22318752205	0.412276697161
5	935	1264.238933637798	0
5	938	1265.274361283704	0.954926689524
5	941	1268.699301296563	0
5	947	1274.568360152843	1.950522106755
5	950	1279.106747373078	0
5	953	1280.96554444145	1.686473255675
5	959	1291.198895252978	0.183134331064
5	962	1296.372954757543	0
5	965	1298.035341189897	1.578091538769
5	968	1300.284791824592	0
5	971	1311.634987116429	0
5	974	1317.126424795959	0
5	977	1320.631323503012	0
5	980	1323.542400900838	0
5	983	1328.312616354565	0
5	986	1329.903126615224	0
5	989	1330.626785437466	0
5	992	1345.572450287073	0
5	995	1348.765442838134	0
5	998	1355.280164222653	0
5	1001	1360.313559986239	0
5	1004	1361.522747115791	1.177467024879
5	1007	1363.729559503434	0
5	1010	1364.252628813291	0
5	1013	1377.650982548959	0
5	1016	1382.645164520114	0
5	1022	1396.38123815931	0
5	1025	1398.079883631854	0
5	1028	1401.545234091395	0
5	1041	1417.581792257848	13.418509226626
5	1042	1419.267258478047	12.468899857923
5	1043	1421.852813505379	7.448896315985
5	1046	1423.515048634729	0.785397380348
5	1049	1424.934495611985	0.018938918937
5	1052	1428.541550414091	0
5	1071	1477.002098207588	35.455012889063
5	1076	1479.464081640849	34.553320298594
5	1079	1481.389224076332	30.105554244702
5	1080	1481.450909752033	19.951030622695
5	1081	1481.637779654398	16.123911252694
5	1082	1484.990090965964	8.057809303997
5	1083	1485.868886785503	7.938463808838
5	1084	1486.715127374282	8.035344667213
5	1085	1487.146977875024	5.83249306305
5	1088	1487.852909850065	0
5	1094	1495.04889228525	0
5	1097	1499.214898260726	0
5	1103	1522.65592764376	0
5	1113	1536.465273426621	2.727871178816
5	1114	1536.655177853685	2.535247051649
5	1117	1540.960350477367	4.93941121849
5	1118	1541.10409261454	4.35945431518
5	1121	1543.753819866202	0
5	1124	1550.490048471193	0
5	1127	1552.127237901668	0
5	1141	1576.694705815011	15.595211285547
5	1142	1577.334934508022	15.598677724951
5	1143	1578.559861181354	16.358788983085
5	1144	1579.616192403471	16.127861824241
5	1147	1582.365743272166	10.034718408763
5	1148	1582.642629236612	2.876130666784
5	1151	1587.492534272374	0
5	1157	1596.385776891971	1.145441832039
5	1160	1601.067642778359	0
5	1163	1606.327122496521	0
5	1166	1608.53156167623	0.127419347688
5	1169	1610.240775493689	0
5	1172	1613.180574842746	0
5	1175	1642.949468969593	0
5	1178	1645.230652225811	0
5	1186	1660.512545996602	13.536711679311
5	1187	1660.612713291172	4.459385852337
5	1190	1661.66811981229	0
5	1193	1663.65800196839	0
5	1196	1665.192397847096	0
5	1199	1667.139679867468	0
5	1202	1669.883753546381	0
5	1205	1683.573017323815	0
5	1218	1724.047313032692	29.993273265115
5	1219	1724.49745015314	17.815557697183
5	1220	1726.053395210443	14.830412142904
5	1223	1728.949440781874	0.409902681855
5	1226	1730.185618733778	0
5	1242	1747.636351659812	9.211165740779
5	1243	1747.87351934473	2.531998395074
5	1244	1748.431559881056	2.635404061118
5	1247	1752.300936711196	0
5	1250	1752.777495615873	0
5	1256	1758.629948722102	0
5	1259	1762.701802685163	0
5	1262	1765.705743006637	0
5	1265	1775.40183782876	0
5	1268	1780.438407062401	1.724409110497
5	1274	1789.493359242992	0
5	1277	1792.09112358921	0
5	1280	1797.155801785771	0
5	1286	1816.036774818017	3.701281936122
5	1292	1827.93116526301	0
5	1295	1828.482551801269	0.468281615078
5	1298	1829.693950157638	0.855981222838
5	1301	1830.71774289348	0
5	1304	1833.030541028455	1.060346924824
5	1310	1855.054849523398	0
5	1313	1857.075892743294	0
5	1319	1867.848545537973	0
5	1342	1879.404488003351	10.711901372257
5	1343	1880.330034544397	10.997505432898
5	1344	1881.111118069943	11.677869496035
5	1345	1881.191142985323	9.886571910873
5	1346	1881.499341079901	9.652414148058
5	1347	1881.603733729569	9.126464423495
5	1348	1881.748024200272	8.77672996243
5	1351	1882.073690498983	6.749656213522
5	1352	1882.43306350646	5.564178390927
5	1353	1882.598496055728	5.57847972546
5	1354	1882.745234390282	4.640977962905
5	1355	1882.861676511685	0.898830470584
5	1358	1884.468347493103	0
5	1364	1899.046330339064	0
5	1367	1906.836550527302	0
5	1370	1909.781614405239	0
5	1373	1910.701263652609	0.458466594628
5	1376	1915.135665952905	0
5	1379	1921.022939332321	3.514443144497
5	1382	1922.239828333453	0
5	1385	1924.725001277255	0
5	1388	1938.268691111714	0
5	1391	1940.069004138125	0
5	1394	1946.700065200245	0
5	1397	1949.851232013444	0
5	1400	1958.560964706684	0
5	1403	1981.930198338307	0
5	1406	1983.976430138957	0
5	1409	1988.979105282137	4.625928856437
5	1412	1990.853171444784	0
5	1437	2024.967106327318	22.21311220665
5	1438	2025.855052746479	22.6629077883
5	1439	2026.900706439946	22.684441839725
5	1440	2027.829586878218	18.836058851122
5	1441	2028.318740248809	16.704118753463
5	1442	2028.756912651993	16.05629017834
5	1443	2029.377392573117	9.990163757456
5	1444	2030.87969054615	9.095550252336
5	1445	2030.993024303341	7.180635535107
5	1448	2038.541115580369	0
5	1451	2049.404790495866	0
5	1454	2050.746659379961	0
5	1462	2063.50928846712	2.908586010156
5	1463	2063.791162109774	0.58810626256
5	1466	2064.591824491396	0.486443549306
5	1472	2081.930435133934	0
5	1475	2083.24210508826	0
5	1478	2083.669400499912	0.202713857752
5	1483	2085.524825898489	1.788841180185
5	1484	2085.537757221028	0.122698083692
5	1494	2098.966472272995	3.766325352251
5	1495	2099.147564778672	2.370684533236
5	1496	2100.150399834339	1.301810853826
5	1499	2101.95597619816	0
5	1502	2104.454141400988	0
5	1505	2107.219261450394	0
5	1508	2108.795319100977	0
5	1511	2115.841072830904	0
5	1514	2117.880455101677	1.381841400098
5	1521	2123.599660551998	5.652636721124
5	1585	2225.887029378719	107.61453421567
5	1586	2226.609806599506	105.61011245872
5	1589	2231.583006861863	107.72054288124
5	1590	2231.911583287161	100.96033260144
5	1591	2232.572486075745	100.28368717567
5	1592	2233.552660786614	96.834637087932
5	1593	2233.70393274248	92.845045111892
5	1594	2233.877906364782	86.86153001449
5	1595	2233.956347099118	85.806941487521
5	1598	2236.198426662208	87.920371578763
5	1599	2237.363465368938	85.504484789339
5	1602	2238.674990965821	86.083041919997
5	1603	2240.390140536072	72.984200352122
5	1606	2241.078833682253	69.720131573644
5	1607	2242.037774439436	68.354320548702
5	1608	2243.069588875809	67.868146562183
5	1609	2245.333730369619	54.712847208358
5	1610	2246.046009591347	54.405593980615
5	1611	2247.041689888071	55.106737339992
5	1612	2247.22586294701	54.719514032213
5	1613	2248.836918450825	52.35128987646
5	1614	2249.862646811371	52.902209048789
5	1615	2250.312165019687	48.772804337322
5	1618	2254.749092620831	49.460991838697
5	1619	2254.777197060224	33.170603898523
5	1620	2256.248306051153	33.498976176527
5	1627	2262.441913142429	34.430500895843
5	1628	2262.616685341295	26.903662429998
5	1629	2262.816944267731	25.371282915738
5	1630	2263.644094465831	22.622428963155
5	1631	2263.771665394516	9.786174278359
5	1632	2265.675396767804	8.721771109656
5	1633	2268.137387343739	7.0270083979
5	1641	2283.037613060752	20.932091081586
5	1642	2283.59823760183	13.130677678138
5	1643	2284.224334814827	3.489999488115
5	1646	2286.63336356536	0.782975377928
5	1669	2330.279660579648	37.76075771893
5	1670	2331.662698881559	38.613935669827
5	1673	2333.66789102565	25.228341526263
5	1674	2335.097224586624	23.792653720109
5	1677	2335.654225412473	10.373930578717
5	1678	2335.808397850949	3.84798843859
5	1679	2339.604906726491	4.357844137207
5	1682	2344.051508722429	0
5	1688	2349.444001892747	0
5	1691	2351.907705382469	0
5	1694	2352.899043305321	0
5	1702	2358.758949959792	5.266696602636
5	1703	2358.780939454856	2.416099367529
5	1706	2360.360437559073	0
5	1709	2370.414650898789	0
5	1715	2378.265750812261	0
5	1718	2382.570410168009	0
5	1732	2416.673449700574	2.983552784217
5	1733	2416.98683014476	1.65820589853
5	1739	2424.757610659048	0.393365771735
5	1742	2426.341818205297	1.322533285302
5	1761	2439.368745175547	12.357882231331
5	1762	2440.379938524706	11.595399226776
5	1763	2440.441413172515	10.337988754896
5	1764	2441.315868376365	8.548442048299
5	1767	2441.731182038733	8.296141211682
5	1770	2443.201989078521	9.443898802392
5	1781	2458.654405620047	23.564882817327
5	1782	2459.570679267769	23.390224713297
5	1783	2460.635056508222	22.035468229077
5	1784	2463.89130930708	22.267603015832
5	1785	2464.576776815142	22.733841209783
5	1786	2465.054455236666	21.620526642994
5	1787	2465.829947062579	21.835164928274
5	1788	2466.676740575705	13.559180261594
5	1791	2467.363926255774	13.23260170913
5	1794	2471.254116003775	14.536809921751
5	1795	2471.667117412643	4.770738664835
5	1796	2473.093097916827	2.007369003612
5	1799	2474.450807700955	1.192607406997
5	1806	2480.194887736389	1.88183919191
5	1807	2480.552271312994	1.336636191674
5	1814	2488.051857369016	8.123551803463
5	1817	2489.655244973692	9.0340248769
5	1820	2492.111087555105	10.464412484602
5	1821	2494.769239598679	12.690919510265
5	1822	2494.85910936237	5.932077471152
5	1823	2494.968643288607	5.190443601195
6	240	356.86296960592	62
6	246	376.533231627958	63
6	249	380.254449926783	64
6	252	383.990531941031	65
6	261	386.153080722351	66
6	264	387.66500444285	67
6	265	388.622442305615	68
6	266	388.645642450802	69
6	267	389.473893700798	70
6	270	392.015240850271	71
6	273	392.798501160242	72
6	276	396.056955624896	73
6	279	398.226153958139	74
6	282	402.851718834423	75
6	294	413.423417364046	76
6	295	414.44449979968	77
6	309	431.401208228551	78
6	310	431.40695979806	79
6	311	433.310618507625	80
6	312	433.610504876196	81
6	313	434.885471028412	82
6	314	436.50747196138	83
6	319	437.607262337319	84
6	322	439.651206174835	85
6	323	439.874056524122	86
6	324	442.434759843778	87
6	327	443.779087256778	88
6	347	464.232327680042	89
6	348	465.088967692843	90
6	349	465.722881097879	91
6	350	466.589718548396	92
6	367	490.913962033768	93
6	368	491.423030545618	94
6	369	491.618128729741	95
6	370	493.298700068408	96
6	371	493.716531954603	97
6	372	493.778578030283	98
6	373	494.569242115896	99
6	386	506.2171733276	100
6	387	506.434676510101	101
6	390	507.586543097937	102
6	391	508.249997658423	103
6	392	508.379592203691	104
6	393	508.409135911375	105
6	403	518.581907339356	106
6	404	518.9543922047	107
6	405	520.307795829416	108
6	408	521.171208332424	109
6	418	533.054013279047	110
6	419	533.343356883728	111
6	420	533.407587776737	112
6	426	548.274007520122	113
6	429	555.78406817655	114
6	432	559.287649938434	115
6	435	560.441382114309	116
6	443	580.549433729403	117
6	446	583.415077371142	118
6	447	584.249977072972	119
6	450	588.65784059962	120
6	453	600.944952426847	121
6	456	602.623648620301	122
6	459	606.404593448058	123
6	462	616.840468795285	124
6	467	621.105047895635	125
6	468	621.322123621828	126
6	471	627.535825237997	127
6	474	635.808776598402	128
6	477	645.553648763647	129
6	480	653.044003771749	130
6	504	684.386312002849	131
6	505	685.539061901986	132
6	506	685.986988498581	133
6	507	686.538993315576	134
6	508	686.57514812883	135
6	509	687.410668822161	136
6	510	688.201116540094	137
6	511	688.443161632911	138
6	512	690.033496796603	139
6	513	690.204322024139	140
6	516	690.546822120084	141
6	519	693.526942877057	142
6	522	703.181661195419	143
6	538	723.074050514509	144
6	539	723.528933466145	145
6	540	724.560865343393	146
6	541	724.840964068796	147
6	542	724.985112475861	148
6	543	726.570284566606	149
6	546	735.239267494135	150
6	549	739.362273066801	151
6	552	740.201150817798	152
6	555	741.527329169221	153
6	561	749.171687912402	154
6	564	750.436631747249	155
6	570	765.027761975353	156
6	578	774.004170184144	157
6	579	776.217721657312	158
6	586	779.417141495276	159
6	591	782.114173570273	160
6	594	784.98839794619	161
6	595	785.077343952206	162
6	596	785.19578117846	163
6	597	786.863825382732	164
6	609	817.668202439307	165
6	614	822.858785104582	166
6	615	823.283476075937	167
6	616	823.718457239636	168
6	617	823.824737370988	169
6	618	824.486502743753	170
6	621	829.338004272697	171
6	633	859.730171126926	172
6	634	860.444245347604	173
6	635	860.910694191054	174
6	643	867.051891725248	175
6	644	867.415990809627	176
6	645	867.880430141464	177
6	648	871.966807408071	178
6	651	884.880981695384	179
6	657	899.328485820126	180
6	662	906.175825888823	181
6	663	906.30083125977	182
6	666	906.4816282995	183
6	669	910.093330500406	184
6	689	938.610372438328	185
6	690	938.93993279549	186
6	695	940.836919661952	187
6	696	942.408297727152	188
6	697	943.131363983855	189
6	698	943.722261705007	190
6	699	944.31395006017	191
6	746	1015.033331762502	192
6	747	1016.645154609509	193
6	748	1017.359961722828	194
6	749	1017.380563876733	195
6	750	1018.046288435795	196
6	751	1018.89636700942	197
6	752	1018.951259111639	198
6	753	1019.481239724877	199
6	754	1019.764044222598	200
6	755	1023.972910733634	201
6	756	1025.383196714137	202
6	757	1026.99966694158	203
6	758	1027.98717644445	204
6	759	1028.042649089365	205
6	760	1029.421076653776	206
6	761	1029.632387702428	207
6	771	1039.496972930391	208
6	772	1040.388416809202	209
6	773	1044.395601991146	210
6	774	1045.609430111101	211
6	779	1046.514971855996	212
6	780	1046.918511042456	213
6	786	1065.998131096347	214
6	789	1067.125793199442	215
6	792	1071.025307786037	216
6	845	1148.734737801881	217
6	846	1150.257607636789	218
6	849	1153.328721146035	219
6	850	1155.101946521268	220
6	851	1155.625664448512	221
6	852	1155.901511063274	222
6	853	1158.189908810659	223
6	854	1160.120679790088	224
6	855	1160.521535422201	225
6	856	1160.675405375309	226
6	857	1160.761768122797	227
6	858	1162.188413747518	228
6	859	1162.936476692745	229
6	860	1165.647683081025	230
6	861	1166.728979324674	231
6	864	1167.987683678665	232
6	865	1170.222463360721	233
6	866	1170.35948813466	234
6	867	1173.716406877591	235
6	870	1180.525430723261	236
6	875	1182.818812820577	237
6	876	1183.748468406825	238
6	908	1226.136126169054	239
6	909	1230.24639187433	240
6	910	1231.484435353414	241
6	911	1233.832825104518	242
6	912	1235.041987454169	243
6	913	1235.344493768563	244
6	914	1236.80263382877	245
6	915	1237.710785289978	246
6	920	1243.52960462504	247
6	921	1243.936092914498	248
6	929	1258.633492773433	249
6	932	1259.22318752205	250
6	933	1259.309894699415	251
6	938	1265.274361283704	252
6	939	1265.548325137675	253
6	942	1269.117356383867	254
6	948	1274.818724296295	255
6	953	1280.96554444145	256
6	954	1281.417472103909	257
6	960	1292.188587069941	258
6	965	1298.035341189897	259
6	966	1298.258715385629	260
6	969	1300.346769543104	261
6	972	1312.114578226291	262
6	975	1317.723795645845	263
6	978	1321.372636717774	264
6	981	1325.219959901139	265
6	984	1329.43770443386	266
6	987	1330.209975706706	267
6	990	1330.957039544532	268
6	993	1345.637950318221	269
6	996	1350.165570429238	270
6	999	1355.557378173468	271
6	1004	1361.522747115791	272
6	1005	1361.611655343893	273
6	1008	1363.830512913309	274
6	1011	1365.901730228229	275
6	1014	1377.75855494543	276
6	1017	1382.831795442458	277
6	1023	1396.802789268253	278
6	1026	1398.297224830143	279
6	1029	1403.26003950738	280
6	1042	1419.267258478047	281
6	1043	1421.852813505379	282
6	1046	1423.515048634729	283
6	1049	1424.934495611985	284
6	1050	1425.824567753931	285
6	1053	1430.65418961936	286
6	1076	1479.464081640849	287
6	1079	1481.389224076332	288
6	1080	1481.450909752033	289
6	1081	1481.637779654398	290
6	1082	1484.990090965964	291
6	1083	1485.868886785503	292
6	1084	1486.715127374282	293
6	1085	1487.146977875024	294
6	1086	1487.507256603504	295
6	1089	1489.19480969282	296
6	1095	1496.795903076418	297
6	1098	1499.244297025785	298
6	1104	1523.733024889104	299
6	1114	1536.655177853685	300
6	1117	1540.960350477367	301
6	1118	1541.10409261454	302
6	1119	1541.21780964545	303
6	1122	1547.677384334367	304
6	1125	1551.359738389462	305
6	1128	1554.816361573289	306
6	1142	1577.334934508022	307
6	1143	1578.559861181354	308
6	1144	1579.616192403471	309
6	1147	1582.365743272166	310
6	1148	1582.642629236612	311
6	1149	1583.97893811204	312
6	1152	1587.524159171574	313
6	1158	1596.871120583069	314
6	1161	1601.853414910174	315
6	1166	1608.53156167623	316
6	1167	1608.985235650767	317
6	1170	1611.098768320837	318
6	1173	1615.409289492921	319
6	1176	1644.717695334794	320
6	1179	1645.845627247702	321
6	1187	1660.612713291172	322
6	1188	1661.155122647693	323
6	1191	1661.801465359469	324
6	1194	1664.660138052833	325
6	1197	1666.478213365429	326
6	1200	1667.888717909992	327
6	1203	1670.116668593184	328
6	1206	1686.822639619735	329
6	1219	1724.49745015314	330
6	1220	1726.053395210443	331
6	1223	1728.949440781874	332
6	1224	1729.63600072529	333
6	1227	1731.541337022712	334
6	1243	1747.87351934473	335
6	1244	1748.431559881056	336
6	1245	1749.357860902254	337
6	1248	1752.482428156944	338
6	1251	1754.158109372418	339
6	1257	1759.381628126189	340
6	1260	1764.111831842606	341
6	1263	1765.821350301509	342
6	1268	1780.438407062401	343
6	1269	1781.654508393714	344
6	1275	1789.739896530428	345
6	1278	1793.625959133557	346
6	1281	1797.710296045047	347
6	1287	1817.996083222488	348
6	1295	1828.482551801269	349
6	1298	1829.693950157638	350
6	1299	1830.077624080072	351
6	1304	1833.030541028455	352
6	1305	1833.48519588227	353
6	1311	1856.501983921803	354
6	1314	1857.725868010503	355
6	1343	1880.330034544397	356
6	1344	1881.111118069943	357
6	1345	1881.191142985323	358
6	1346	1881.499341079901	359
6	1347	1881.603733729569	360
6	1348	1881.748024200272	361
6	1351	1882.073690498983	362
6	1352	1882.43306350646	363
6	1353	1882.598496055728	364
6	1354	1882.745234390282	365
6	1355	1882.861676511685	366
6	1356	1883.243962644431	367
6	1359	1885.120588030123	368
6	1365	1900.183213771187	369
6	1368	1907.227324440566	370
6	1373	1910.701263652609	371
6	1374	1911.895856699075	372
6	1379	1921.022939332321	373
6	1380	1921.57774359856	374
6	1383	1923.062889661468	375
6	1386	1926.59821307586	376
6	1389	1939.064372140337	377
6	1392	1940.69997863034	378
6	1395	1947.728264325545	379
6	1398	1951.827963114556	380
6	1401	1959.858476976577	381
6	1404	1981.993125895069	382
6	1410	1989.787359449379	383
6	1413	1991.010773841377	384
6	1438	2025.855052746479	385
6	1439	2026.900706439946	386
6	1440	2027.829586878218	387
6	1441	2028.318740248809	388
6	1442	2028.756912651993	389
6	1443	2029.377392573117	390
6	1444	2030.87969054615	391
6	1445	2030.993024303341	392
6	1446	2031.92089006026	393
6	1449	2038.73671858202	394
6	1452	2049.77473996806	395
6	1455	2051.601989853211	396
6	1463	2063.791162109774	397
6	1466	2064.591824491396	398
6	1467	2064.665757388334	399
6	1473	2082.563260271466	400
6	1478	2083.669400499912	401
6	1483	2085.524825898489	402
6	1484	2085.537757221028	403
6	1485	2085.892755974947	404
6	1495	2099.147564778672	405
6	1496	2100.150399834339	406
6	1497	2100.212665134537	407
6	1500	2102.47782853837	408
6	1503	2104.780087542789	409
6	1506	2107.865614708914	410
6	1509	2109.223539133685	411
6	1514	2117.880455101677	412
6	1586	2226.609806599506	413
6	1590	2231.911583287161	414
6	1591	2232.572486075745	415
6	1592	2233.552660786614	416
6	1593	2233.70393274248	417
6	1594	2233.877906364782	418
6	1595	2233.956347099118	419
6	1598	2236.198426662208	420
6	1599	2237.363465368938	421
6	1602	2238.674990965821	422
6	1603	2240.390140536072	423
6	1606	2241.078833682253	424
6	1607	2242.037774439436	425
6	1608	2243.069588875809	426
6	1609	2245.333730369619	427
6	1610	2246.046009591347	428
6	1611	2247.041689888071	429
6	1612	2247.22586294701	430
6	1613	2248.836918450825	431
6	1614	2249.862646811371	432
6	1615	2250.312165019687	433
6	1618	2254.749092620831	434
6	1619	2254.777197060224	435
6	1620	2256.248306051153	436
6	1628	2262.616685341295	437
6	1629	2262.816944267731	438
6	1630	2263.644094465831	439
6	1631	2263.771665394516	440
6	1632	2265.675396767804	441
6	1633	2268.137387343739	442
6	1642	2283.59823760183	443
6	1643	2284.224334814827	444
6	1646	2286.63336356536	445
6	1647	2287.874107963514	446
6	1670	2331.662698881559	447
6	1673	2333.66789102565	448
6	1674	2335.097224586624	449
6	1677	2335.654225412473	450
6	1678	2335.808397850949	451
6	1679	2339.604906726491	452
6	1680	2341.275923211095	453
6	1683	2345.111768819839	454
6	1689	2349.657540835172	455
6	1692	2352.156710808659	456
6	1695	2353.067160363062	457
6	1703	2358.780939454856	458
6	1704	2359.303633495164	459
6	1707	2361.441963977961	460
6	1710	2370.415033871653	461
6	1716	2378.504091707283	462
6	1719	2384.438086678897	463
6	1733	2416.98683014476	464
6	1734	2417.162532596779	465
6	1742	2426.341818205297	466
6	1762	2440.379938524706	467
6	1763	2440.441413172515	468
6	1764	2441.315868376365	469
6	1767	2441.731182038733	470
6	1770	2443.201989078521	471
6	1782	2459.570679267769	472
6	1783	2460.635056508222	473
6	1784	2463.89130930708	474
6	1785	2464.576776815142	475
6	1786	2465.054455236666	476
6	1787	2465.829947062579	477
6	1788	2466.676740575705	478
6	1791	2467.363926255774	479
6	1794	2471.254116003775	480
6	1795	2471.667117412643	481
6	1796	2473.093097916827	482
6	1799	2474.450807700955	483
6	1806	2480.194887736389	484
6	1807	2480.552271312994	485
6	1817	2489.655244973692	486
6	1820	2492.111087555105	487
6	1821	2494.769239598679	488
6	1822	2494.85910936237	489
6	1823	2494.968643288607	490
6	1824	2495.23739061668	491
7	240	356.86296960592	0.648942222727
7	246	376.533231627958	6.450530555797
7	249	380.254449926783	1.154914759843
7	252	383.990531941031	1.203451646156
7	261	386.153080722351	1.853902545175
7	264	387.66500444285	2.793296410652
7	265	388.622442305615	3.568668404721
7	266	388.645642450802	2.730665401866
7	267	389.473893700798	2.260120991776
7	270	392.015240850271	0.861951379568
7	273	392.798501160242	0.459122562377
7	276	396.056955624896	0.001643519969
7	279	398.226153958139	1.174191360501
7	282	402.851718834423	0.724581309565
7	294	413.423417364046	9.164843277911
7	295	414.44449979968	7.850920146673
7	309	431.401208228551	18.182279445273
7	310	431.40695979806	15.83506452928
7	311	433.310618507625	17.521942415824
7	312	433.610504876196	15.510248285416
7	313	434.885471028412	11.777823141317
7	314	436.50747196138	8.510108749607
7	319	437.607262337319	8.348115207706
7	322	439.651206174835	3.099777063563
7	323	439.874056524122	2.575768137653
7	324	442.434759843778	4.150469510482
7	327	443.779087256778	1.192917253151
7	347	464.232327680042	19.291531262723
7	348	465.088967692843	17.981365386467
7	349	465.722881097879	15.124147895208
7	350	466.589718548396	12.837772153193
7	367	490.913962033768	29.137763473524
7	368	491.423030545618	28.183830228927
7	369	491.618128729741	27.944767294662
7	370	493.298700068408	25.579844436079
7	371	493.716531954603	24.539830842418
7	372	493.778578030283	23.231707923058
7	373	494.569242115896	20.48931665369
7	386	506.2171733276	11.187443218607
7	387	506.434676510101	7.564927633738
7	390	507.586543097937	7.072975622565
7	391	508.249997658423	7.126469759517
7	392	508.379592203691	5.90920188525
7	393	508.409135911375	0.864304360756
7	403	518.581907339356	1.647007155687
7	404	518.9543922047	1.345078147605
7	405	520.307795829416	2.498495405681
7	408	521.171208332424	0.118168648088
7	418	533.054013279047	11.607346183871
7	419	533.343356883728	10.889501834617
7	420	533.407587776737	5.168474237401
7	426	548.274007520122	6.349005290468
7	429	555.78406817655	0.322058347638
7	432	559.287649938434	0.999036811973
7	435	560.441382114309	0.25616839548
7	443	580.549433729403	11.498900460626
7	446	583.415077371142	3.91619268323
7	447	584.249977072972	2.055170021402
7	450	588.65784059962	0.473649685926
7	453	600.944952426847	1.008834299765
7	456	602.623648620301	0.484350229261
7	459	606.404593448058	1.67079427526
7	462	616.840468795285	0.359538989074
7	467	621.105047895635	2.612957600989
7	468	621.322123621828	0.468646500891
7	471	627.535825237997	2.437566281239
7	474	635.808776598402	1.332998712421
7	477	645.553648763647	1.741888259278
7	480	653.044003771749	2.621442191354
7	504	684.386312002849	24.096829009277
7	505	685.539061901986	19.246669010791
7	506	685.986988498581	15.166752048751
7	507	686.538993315576	10.182864382443
7	508	686.57514812883	9.776711898511
7	509	687.410668822161	10.195437372162
7	510	688.201116540094	6.438482631306
7	511	688.443161632911	6.45215152187
7	512	690.033496796603	6.634293428842
7	513	690.204322024139	6.30492251001
7	516	690.546822120084	0.052496969454
7	519	693.526942877057	1.806756362064
7	522	703.181661195419	0.209077605805
7	538	723.074050514509	11.875712793637
7	539	723.528933466145	8.715305587986
7	540	724.560865343393	9.218320956964
7	541	724.840964068796	4.872222544517
7	542	724.985112475861	4.684328931533
7	543	726.570284566606	5.933094651512
7	546	735.239267494135	0.194461886793
7	549	739.362273066801	0.434011101977
7	552	740.201150817798	0.383999048694
7	555	741.527329169221	1.01853854551
7	561	749.171687912402	4.182004984626
7	564	750.436631747249	0.680063257018
7	570	765.027761975353	0.256939742711
7	578	774.004170184144	6.883777758928
7	579	776.217721657312	6.902258660532
7	586	779.417141495276	2.801800874858
7	591	782.114173570273	5.389553933701
7	594	784.98839794619	8.015020945496
7	595	785.077343952206	4.427091121519
7	596	785.19578117846	3.963880963656
7	597	786.863825382732	3.798207342411
7	609	817.668202439307	27.852412848881
7	614	822.858785104582	25.07947744256
7	615	823.283476075937	21.889705356233
7	616	823.718457239636	9.073284131524
7	617	823.824737370988	4.940591624238
7	618	824.486502743753	4.912161690675
7	621	829.338004272697	0.483549461389
7	633	859.730171126926	21.98242500429
7	634	860.444245347604	19.351907451202
7	635	860.910694191054	12.091832068387
7	643	867.051891725248	4.075393495523
7	644	867.415990809627	3.445917400452
7	645	867.880430141464	1.334695816695
7	648	871.966807408071	0.165656926463
7	651	884.880981695384	0.01244654852
7	657	899.328485820126	0.613660885447
7	662	906.175825888823	1.964021425871
7	663	906.30083125977	0.742096669705
7	666	906.4816282995	0.117782629542
7	669	910.093330500406	0.445794833364
7	689	938.610372438328	13.581157645601
7	690	938.93993279549	4.467848263062
7	695	940.836919661952	5.766518997481
7	696	942.408297727152	6.36142243208
7	697	943.131363983855	4.92837967192
7	698	943.722261705007	4.688837691374
7	699	944.31395006017	4.232931141161
7	746	1015.033331762502	55.199037428737
7	747	1016.645154609509	56.20466573025
7	748	1017.359961722828	54.986631573661
7	749	1017.380563876733	52.512903502532
7	750	1018.046288435795	42.329735431213
7	751	1018.89636700942	38.355954043002
7	752	1018.951259111639	34.469413215521
7	753	1019.481239724877	32.129090724322
7	754	1019.764044222598	30.092930977987
7	755	1023.972910733634	32.790037344518
7	756	1025.383196714137	33.464050157521
7	757	1026.99966694158	32.42136170034
7	758	1027.98717644445	32.812079185797
7	759	1028.042649089365	30.15223626369
7	760	1029.421076653776	31.155519702331
7	761	1029.632387702428	19.731321879093
7	771	1039.496972930391	9.057178003554
7	772	1040.388416809202	9.933967450548
7	773	1044.395601991146	13.452449391578
7	774	1045.609430111101	10.269880317654
7	779	1046.514971855996	0.705980820375
7	780	1046.918511042456	0.675276961731
7	786	1065.998131096347	5.921107802494
7	789	1067.125793199442	0.446260848568
7	792	1071.025307786037	0.853488433065
7	845	1148.734737801881	72.886245542571
7	846	1150.257607636789	67.527497927656
7	849	1153.328721146035	61.854454306935
7	850	1155.101946521268	60.27885530835
7	851	1155.625664448512	58.668225414617
7	852	1155.901511063274	58.924429009319
7	853	1158.189908810659	60.909403154203
7	854	1160.120679790088	59.737628614393
7	855	1160.521535422201	55.407030168304
7	856	1160.675405375309	54.77492667091
7	857	1160.761768122797	54.199260023507
7	858	1162.188413747518	53.779314659423
7	859	1162.936476692745	47.401587703513
7	860	1165.647683081025	43.116664373904
7	861	1166.728979324674	36.288279842974
7	864	1167.987683678665	30.507158912557
7	865	1170.222463360721	30.115398796869
7	866	1170.35948813466	17.776922913439
7	867	1173.716406877591	6.739870995849
7	870	1180.525430723261	0.13047093543
7	875	1182.818812820577	1.469383288167
7	876	1183.748468406825	1.926706721543
7	908	1226.136126169054	30.027041553916
7	909	1230.24639187433	33.050849283241
7	910	1231.484435353414	31.156871588612
7	911	1233.832825104518	29.383643579425
7	912	1235.041987454169	23.394464242632
7	913	1235.344493768563	23.64456350446
7	914	1236.80263382877	18.114507203836
7	915	1237.710785289978	17.716504280002
7	920	1243.52960462504	3.663191330511
7	921	1243.936092914498	3.881889044353
7	929	1258.633492773433	0.467948964783
7	932	1259.22318752205	0.616861283794
7	933	1259.309894699415	0.498983874526
7	938	1265.274361283704	1.035427645906
7	939	1265.548325137675	1.228890543495
7	942	1269.117356383867	0.418055087304
7	948	1274.818724296295	2.200886250207
7	953	1280.96554444145	1.858797068372
7	954	1281.417472103909	2.138400918134
7	960	1292.188587069941	1.172826148027
7	965	1298.035341189897	1.662386432354
7	966	1298.258715385629	1.801465734501
7	969	1300.346769543104	0.061977718512
7	972	1312.114578226291	0.479591109862
7	975	1317.723795645845	0.597370849886
7	978	1321.372636717774	0.741313214762
7	981	1325.219959901139	1.677559000301
7	984	1329.43770443386	1.125088079295
7	987	1330.209975706706	0.306849091482
7	990	1330.957039544532	0.330254107066
7	993	1345.637950318221	0.065500031148
7	996	1350.165570429238	1.400127591104
7	999	1355.557378173468	0.277213950815
7	1004	1361.522747115791	1.209187129552
7	1005	1361.611655343893	1.266375252981
7	1008	1363.830512913309	0.100953409875
7	1011	1365.901730228229	1.649101414938
7	1014	1377.75855494543	0.107572396471
7	1017	1382.831795442458	0.186630922344
7	1023	1396.802789268253	0.421551108943
7	1026	1398.297224830143	0.217341198289
7	1029	1403.26003950738	1.714805415985
7	1042	1419.267258478047	15.103975446825
7	1043	1421.852813505379	15.054454885255
7	1046	1423.515048634729	9.111131445335
7	1049	1424.934495611985	2.204844357604
7	1050	1425.824567753931	0.909011060883
7	1053	1430.65418961936	2.112639205269
7	1076	1479.464081640849	37.916996322324
7	1079	1481.389224076332	36.478462734077
7	1080	1481.450909752033	30.167239920403
7	1081	1481.637779654398	20.13790052506
7	1082	1484.990090965964	19.47622256426
7	1083	1485.868886785503	8.936605123536
7	1084	1486.715127374282	8.784704397617
7	1085	1487.146977875024	8.467195167955
7	1086	1487.507256603504	6.19277179153
7	1089	1489.19480969282	1.341899842755
7	1095	1496.795903076418	1.747010791168
7	1098	1499.244297025785	0.029398765059
7	1104	1523.733024889104	1.077097245344
7	1114	1536.655177853685	2.91777560588
7	1117	1540.960350477367	6.840419675331
7	1118	1541.10409261454	5.083153355663
7	1119	1541.21780964545	4.47317134609
7	1122	1547.677384334367	3.923564468165
7	1125	1551.359738389462	0.869689918269
7	1128	1554.816361573289	2.689123671621
7	1142	1577.334934508022	16.235439978558
7	1143	1578.559861181354	16.823604398283
7	1144	1579.616192403471	17.415120205202
7	1147	1582.365743272166	18.877412692936
7	1148	1582.642629236612	10.311604373209
7	1149	1583.97893811204	4.212439542212
7	1152	1587.524159171574	0.0316248992
7	1158	1596.871120583069	1.630785523137
7	1161	1601.853414910174	0.785772131815
7	1166	1608.53156167623	2.204439179709
7	1167	1608.985235650767	0.581093322225
7	1170	1611.098768320837	0.857992827148
7	1173	1615.409289492921	2.228714650175
7	1176	1644.717695334794	1.768226365201
7	1179	1645.845627247702	0.614975021891
7	1187	1660.612713291172	13.636878973881
7	1188	1661.155122647693	5.001795208858
7	1191	1661.801465359469	0.133345547179
7	1194	1664.660138052833	1.002136084443
7	1197	1666.478213365429	1.285815518333
7	1200	1667.888717909992	0.749038042524
7	1203	1670.116668593184	0.232915046803
7	1206	1686.822639619735	3.24962229592
7	1219	1724.49745015314	30.443410385563
7	1220	1726.053395210443	19.371502754486
7	1223	1728.949440781874	17.726457714335
7	1224	1729.63600072529	1.096462625271
7	1227	1731.541337022712	1.355718288934
7	1243	1747.87351934473	9.448333425697
7	1244	1748.431559881056	3.0900389314
7	1245	1749.357860902254	3.561705082316
7	1248	1752.482428156944	0.181491445748
7	1251	1754.158109372418	1.380613756545
7	1257	1759.381628126189	0.751679404087
7	1260	1764.111831842606	1.410029157443
7	1263	1765.821350301509	0.115607294872
7	1268	1780.438407062401	5.036569233641
7	1269	1781.654508393714	2.94051044181
7	1275	1789.739896530428	0.246537287436
7	1278	1793.625959133557	1.534835544347
7	1281	1797.710296045047	0.554494259276
7	1287	1817.996083222488	5.660590340593
7	1295	1828.482551801269	0.551386538259
7	1298	1829.693950157638	1.679679971447
7	1299	1830.077624080072	1.239655145272
7	1304	1833.030541028455	2.312798134975
7	1305	1833.48519588227	1.515001778639
7	1311	1856.501983921803	1.447134398405
7	1314	1857.725868010503	0.649975267209
7	1343	1880.330034544397	11.637447913303
7	1344	1881.111118069943	11.778588958444
7	1345	1881.191142985323	11.757894411415
7	1346	1881.499341079901	10.194770005451
7	1347	1881.603733729569	9.756806797726
7	1348	1881.748024200272	9.270754894198
7	1351	1882.073690498983	9.102396261141
7	1352	1882.43306350646	7.109029220999
7	1353	1882.598496055728	5.729610940195
7	1354	1882.745234390282	5.725218060014
7	1355	1882.861676511685	4.757420084308
7	1356	1883.243962644431	1.28111660333
7	1359	1885.120588030123	0.65224053702
7	1365	1900.183213771187	1.136883432123
7	1368	1907.227324440566	0.390773913264
7	1373	1910.701263652609	0.91964924737
7	1374	1911.895856699075	1.653059641094
7	1379	1921.022939332321	5.887273379416
7	1380	1921.57774359856	4.069247410736
7	1383	1923.062889661468	0.823061328015
7	1386	1926.59821307586	1.873211798605
7	1389	1939.064372140337	0.795681028623
7	1392	1940.69997863034	0.630974492215
7	1395	1947.728264325545	1.0281991253
7	1398	1951.827963114556	1.976731101112
7	1401	1959.858476976577	1.297512269893
7	1404	1981.993125895069	0.062927556762
7	1410	1989.787359449379	5.434183023679
7	1413	1991.010773841377	0.157602396593
7	1438	2025.855052746479	23.101058625811
7	1439	2026.900706439946	23.708561481767
7	1440	2027.829586878218	23.613322277997
7	1441	2028.318740248809	19.325212221713
7	1442	2028.756912651993	17.142291156647
7	1443	2029.377392573117	16.676770099464
7	1444	2030.87969054615	11.492461730489
7	1445	2030.993024303341	9.208884009527
7	1446	2031.92089006026	8.108501292026
7	1449	2038.73671858202	0.195603001651
7	1452	2049.77473996806	0.369949472194
7	1455	2051.601989853211	0.85533047325
7	1463	2063.791162109774	3.19045965281
7	1466	2064.591824491396	1.388768644182
7	1467	2064.665757388334	0.560376446244
7	1473	2082.563260271466	0.632825137532
7	1478	2083.669400499912	0.427295411652
7	1483	2085.524825898489	2.058139256329
7	1484	2085.537757221028	1.801772502724
7	1485	2085.892755974947	0.477696837611
7	1495	2099.147564778672	3.947417857928
7	1496	2100.150399834339	3.373519588903
7	1497	2100.212665134537	1.364076154024
7	1500	2102.47782853837	0.52185234021
7	1503	2104.780087542789	0.325946141801
7	1506	2107.865614708914	0.64635325852
7	1509	2109.223539133685	0.428220032708
7	1514	2117.880455101677	2.039382270773
7	1586	2226.609806599506	108.33731143645
7	1590	2231.911583287161	108.04911930654
7	1591	2232.572486075745	101.62123539003
7	1592	2233.552660786614	101.26386188654
7	1593	2233.70393274248	96.985909043798
7	1594	2233.877906364782	93.019018734194
7	1595	2233.956347099118	86.939970748826
7	1598	2236.198426662208	88.049021050611
7	1599	2237.363465368938	89.085410285493
7	1602	2238.674990965821	86.816010386222
7	1603	2240.390140536072	87.798191490248
7	1606	2241.078833682253	73.672893498303
7	1607	2242.037774439436	70.679072330827
7	1608	2243.069588875809	69.386134985075
7	1609	2245.333730369619	70.132288055993
7	1610	2246.046009591347	55.425126430086
7	1611	2247.041689888071	55.401274277339
7	1612	2247.22586294701	55.290910398931
7	1613	2248.836918450825	56.330569536028
7	1614	2249.862646811371	53.377018237006
7	1615	2250.312165019687	53.351727257105
7	1618	2254.749092620831	53.209731938466
7	1619	2254.777197060224	49.48909627809
7	1620	2256.248306051153	34.641712889452
7	1628	2262.616685341295	34.605273094709
7	1629	2262.816944267731	27.103921356434
7	1630	2263.644094465831	26.198433113838
7	1631	2263.771665394516	22.74999989184
7	1632	2265.675396767804	11.689905651647
7	1633	2268.137387343739	11.183761685591
7	1642	2283.59823760183	21.492715622664
7	1643	2284.224334814827	13.756774891135
7	1646	2286.63336356536	5.899028238648
7	1647	2287.874107963514	2.023719776082
7	1670	2331.662698881559	39.143796020841
7	1673	2333.66789102565	40.619127813918
7	1674	2335.097224586624	26.657675087237
7	1677	2335.654225412473	24.349654545958
7	1678	2335.808397850949	10.528103017193
7	1679	2339.604906726491	7.644497314132
7	1680	2341.275923211095	6.028860621811
7	1683	2345.111768819839	1.06026009741
7	1689	2349.657540835172	0.213538942425
7	1692	2352.156710808659	0.24900542619
7	1695	2353.067160363062	0.168117057741
7	1703	2358.780939454856	5.2886860977
7	1704	2359.303633495164	2.938793407837
7	1707	2361.441963977961	1.081526418888
7	1710	2370.415033871653	0.000382972864
7	1716	2378.504091707283	0.238340895022
7	1719	2384.438086678897	1.867676510888
7	1733	2416.98683014476	3.296933228403
7	1734	2417.162532596779	1.833908350549
7	1742	2426.341818205297	1.977573317984
7	1762	2440.379938524706	13.36907558049
7	1763	2440.441413172515	11.656873874585
7	1764	2441.315868376365	11.212443958746
7	1767	2441.731182038733	8.963755710667
7	1770	2443.201989078521	9.76694825147
7	1782	2459.570679267769	24.481156465049
7	1783	2460.635056508222	24.45460195375
7	1784	2463.89130930708	25.291721027935
7	1785	2464.576776815142	22.953070523894
7	1786	2465.054455236666	23.211519631307
7	1787	2465.829947062579	22.396018468907
7	1788	2466.676740575705	22.6819584414
7	1791	2467.363926255774	14.246365941663
7	1794	2471.254116003775	17.122791457131
7	1795	2471.667117412643	14.949811330619
7	1796	2473.093097916827	6.196719169019
7	1799	2474.450807700955	3.36507878774
7	1806	2480.194887736389	6.936687442431
7	1807	2480.552271312994	2.239222768515
7	1817	2489.655244973692	9.726939408139
7	1820	2492.111087555105	11.489867458313
7	1821	2494.769239598679	13.122564528176
7	1822	2494.85910936237	12.780789273956
7	1823	2494.968643288607	6.041611397389
7	1824	2495.23739061668	5.459190929268
8	242	369.375255317272	1
8	286	404.258574086135	1
8	299	415.788676091801	1
8	329	443.919676013075	1
8	356	470.546870107225	1
8	362	480.431995840156	2
8	375	495.029730108993	1
8	380	500.513567475372	1
8	401	517.809300423735	1
8	410	521.192237302952	1
8	424	541.925002229654	1
8	437	567.695925539455	1
8	482	660.252978140038	1
8	524	709.366630100926	1
8	557	743.646848964604	1
8	566	756.458935907148	1
8	574	767.120392425216	1
8	601	789.815789590426	1
8	623	831.608480159845	1
8	639	863.970073409175	1
8	653	898.688180290939	1
8	671	910.944778126664	1
8	675	912.065066633432	2
8	681	934.472084532428	1
8	703	959.834294333765	1
8	709	963.034023953894	2
8	732	995.44102465029	2
8	738	1004.276199296497	3
8	767	1030.943152599568	1
8	782	1050.110245986447	1
8	794	1074.807943387107	1
8	800	1086.494175780376	2
8	815	1102.06552599861	2
8	827	1119.223715317434	3
8	829	1121.890324746436	4
8	833	1123.663479696237	5
8	878	1186.897939430832	1
8	880	1191.951539220539	2
8	889	1202.276890746692	2
8	894	1207.192094069512	2
8	900	1212.083298246598	3
8	923	1247.010455122903	1
8	944	1272.276126545475	1
8	956	1284.608791838486	1
8	1019	1387.632399260903	1
8	1031	1403.412013724196	1
8	1037	1409.315926484005	2
8	1055	1440.302525160037	1
8	1065	1462.555294735073	2
8	1091	1489.486066902343	1
8	1100	1507.762238717833	1
8	1106	1533.228522866138	1
8	1130	1558.498177338543	1
8	1154	1590.470735222049	1
8	1181	1645.874418155944	1
8	1208	1688.598277283569	1
8	1212	1697.269698461538	2
8	1229	1731.744765826945	1
8	1232	1737.595552176882	1
8	1236	1744.899527686484	2
8	1253	1755.198627303625	1
8	1271	1782.557906561692	1
8	1283	1810.00658113624	1
8	1289	1819.834207241802	1
8	1307	1845.586409673488	1
8	1316	1858.271437782732	1
8	1321	1868.692586631094	1
8	1361	1893.453134115984	1
8	1408	1984.3531764257	1
8	1415	1993.439770634155	1
8	1423	2005.414674315447	2
8	1457	2057.829292268349	1
8	1469	2067.19127090892	1
8	1487	2093.540604683601	1
8	1518	2118.272495163052	1
8	1523	2123.862463980623	1
8	1525	2125.583614538701	2
8	1541	2148.351335550223	3
8	1547	2158.513685384924	4
8	1549	2159.742235841395	5
8	1560	2189.21250810744	5
8	1588	2228.011412246586	1
8	1622	2256.953625658148	1
8	1635	2270.467559923692	1
8	1637	2277.145134657383	2
8	1649	2292.356304954715	1
8	1655	2296.559424856657	2
8	1657	2299.848805152245	3
8	1665	2312.593632662147	2
8	1685	2345.24593224152	1
8	1697	2353.399464487008	1
8	1712	2372.427930054302	1
8	1721	2398.96845263205	1
8	1724	2404.701489116181	1
8	1726	2408.893875339512	2
8	1736	2418.968326914021	1
8	1744	2427.010862944216	1
8	1772	2443.433928593672	1
8	1809	2480.621220096792	1
8	1826	2496.852317827315	1
9	242	369.375255317272	0
9	286	404.258574086135	0
9	299	415.788676091801	0
9	329	443.919676013075	0
9	356	470.546870107225	0
9	365	486.829970918353	6.397975078197
9	375	495.029730108993	0
9	380	500.513567475372	0
9	401	517.809300423735	0
9	410	521.192237302952	0
9	424	541.925002229654	0
9	437	567.695925539455	0
9	482	660.252978140038	0
9	524	709.366630100926	0
9	557	743.646848964604	0
9	566	756.458935907148	0
9	574	767.120392425216	0
9	601	789.815789590426	0
9	623	831.608480159845	0
9	639	863.970073409175	0
9	653	898.688180290939	0
9	671	910.944778126664	0
9	676	924.838277457415	12.773210823983
9	681	934.472084532428	0
9	703	959.834294333765	0
9	722	989.817549478953	26.783525525059
9	739	1008.875429587279	13.434404936989
9	744	1011.493011551974	7.216812255477
9	767	1030.943152599568	0
9	782	1050.110245986447	0
9	794	1074.807943387107	0
9	811	1098.791017535818	12.296841755442
9	834	1126.537620262126	24.472094263516
9	835	1127.966737852433	8.743022534999
9	838	1133.923781468426	12.03345672199
9	843	1141.334822536745	17.671342840508
9	878	1186.897939430832	0
9	887	1200.777290827494	8.825751606955
9	892	1205.200790094899	2.923899348207
9	901	1216.257559234682	9.06546516517
9	902	1218.406283006224	6.322984759626
9	923	1247.010455122903	0
9	944	1272.276126545475	0
9	956	1284.608791838486	0
9	1019	1387.632399260903	0
9	1031	1403.412013724196	0
9	1038	1412.923513637678	3.607587153673
9	1055	1440.302525160037	0
9	1068	1470.512686868949	7.957392133876
9	1091	1489.486066902343	0
9	1100	1507.762238717833	0
9	1106	1533.228522866138	0
9	1130	1558.498177338543	0
9	1154	1590.470735222049	0
9	1181	1645.874418155944	0
9	1208	1688.598277283569	0
9	1217	1720.278614052922	23.008915591384
9	1229	1731.744765826945	0
9	1232	1737.595552176882	0
9	1241	1746.096494370955	1.196966684471
9	1253	1755.198627303625	0
9	1271	1782.557906561692	0
9	1283	1810.00658113624	0
9	1289	1819.834207241802	0
9	1307	1845.586409673488	0
9	1316	1858.271437782732	0
9	1321	1868.692586631094	0
9	1361	1893.453134115984	0
9	1408	1984.3531764257	0
9	1415	1993.439770634155	0
9	1430	2018.822027590576	13.407353275129
9	1457	2057.829292268349	0
9	1469	2067.19127090892	0
9	1487	2093.540604683601	0
9	1518	2118.272495163052	0
9	1523	2123.862463980623	0
9	1550	2166.710116442927	41.126501904226
9	1561	2190.399851221376	42.048515671153
9	1578	2206.177790246279	47.664104861355
9	1579	2208.167808753161	48.425572911766
9	1580	2212.37316627217	23.16065816473
9	1588	2228.011412246586	0
9	1622	2256.953625658148	0
9	1635	2270.467559923692	0
9	1638	2277.47844915517	0.333314497787
9	1649	2292.356304954715	0
9	1658	2302.118193936643	5.558769079986
9	1663	2312.179797706559	12.330992554314
9	1666	2322.879238966684	10.285606304537
9	1685	2345.24593224152	0
9	1697	2353.399464487008	0
9	1712	2372.427930054302	0
9	1721	2398.96845263205	0
9	1724	2404.701489116181	0
9	1731	2415.705450969541	6.811575630029
9	1736	2418.968326914021	0
9	1744	2427.010862944216	0
9	1772	2443.433928593672	0
9	1809	2480.621220096792	0
9	1826	2496.852317827315	0
10	286	404.258574086135	4
10	299	415.788676091801	5
10	356	470.546870107225	6
10	375	495.029730108993	7
10	380	500.513567475372	8
10	401	517.809300423735	9
10	424	541.925002229654	10
10	574	767.120392425216	11
10	601	789.815789590426	12
10	639	863.970073409175	13
10	681	934.472084532428	14
10	703	959.834294333765	15
10	767	1030.943152599568	16
10	1321	1868.692586631094	17
10	1408	1984.3531764257	18
10	1518	2118.272495163052	19
10	1523	2123.862463980623	20
10	1588	2228.011412246586	21
10	1622	2256.953625658148	22
10	1635	2270.467559923692	23
10	1744	2427.010862944216	24
10	1772	2443.433928593672	25
10	1809	2480.621220096792	26
11	1827	2500	0.1964
12	1827	2500	0.0468

