version 2
run factors_calibration_range_test-76-20230302-19:09:18-12078
attr configname factors_calibration_range_test
attr datetime 20230302-19:09:18
attr experiment factors_calibration_range_test
attr inifile omnetpp.ini
attr iterationvars "$0=10, $1=1"
attr iterationvarsf 10,1-
attr measurement "$0=10, $1=1"
attr network Network
attr processid 12078
attr repetition 16
attr replication #16
attr resultdir results
attr runnumber 76
attr seedset 16
param *.boss.arrival_mean 20
param *.boss.service_mean 10
param *.minion.arrival_mean 5
param *.minion.service_mean 1
param **.minion.arrival_distribution 0
param **.minion.service_distribution 0
param **.boss.arrival_distribution 0
param **.boss.service_distribution 0

scalar Network.player boss_throughput:mean 0.0616
attr source signal_boss_throughput
scalar Network.player boss_throughput:last 0.0616
attr source signal_boss_throughput
scalar Network.player boss_defeated_stat:count 137
attr source signal_boss_defeated
scalar Network.player boss_defeated_stat:mean 86
attr source signal_boss_defeated
scalar Network.player boss_waiting_time_stat:mean 21.498703535894
attr source signal_boss_waiting_time
scalar Network.player boss_response_time_stat:mean 31.845576850944
attr source signal_boss_response_time
scalar Network.player minion_throughput:mean 0.2096
attr source signal_minion_throughput
scalar Network.player minion_throughput:last 0.2096
attr source signal_minion_throughput
scalar Network.player minion_recovered_stat:count 18
attr source signal_minion_recovered
scalar Network.player minion_recovered_stat:mean 10.5
attr source signal_minion_recovered
scalar Network.player minion_defeated_stat:count 472
attr source signal_minion_defeated
scalar Network.player minion_defeated_stat:mean 288.5
attr source signal_minion_defeated
scalar Network.player minion_waiting_time_stat:mean 70.794549919406
attr source signal_minion_waiting_time
scalar Network.player minion_response_time_stat:mean 72.934592971512
attr source signal_minion_response_time

