version 2
run factors_calibration_range_test-132-20230302-19:09:23-12366
attr configname factors_calibration_range_test
attr datetime 20230302-19:09:23
attr experiment factors_calibration_range_test
attr inifile omnetpp.ini
attr iterationvars "$0=15, $1=1"
attr iterationvarsf 15,1-
attr measurement "$0=15, $1=1"
attr network Network
attr processid 12366
attr repetition 12
attr replication #12
attr resultdir results
attr runnumber 132
attr seedset 12
param *.boss.arrival_mean 20
param *.boss.service_mean 15
param *.minion.arrival_mean 5
param *.minion.service_mean 1
param **.minion.arrival_distribution 0
param **.minion.service_distribution 0
param **.boss.arrival_distribution 0
param **.boss.service_distribution 0

scalar Network.player boss_throughput:mean 0.0452
attr source signal_boss_throughput
scalar Network.player boss_throughput:last 0.0452
attr source signal_boss_throughput
scalar Network.player boss_defeated_stat:count 97
attr source signal_boss_defeated
scalar Network.player boss_defeated_stat:mean 65
attr source signal_boss_defeated
scalar Network.player boss_waiting_time_stat:mean 11.38282953659
attr source signal_boss_waiting_time
scalar Network.player boss_response_time_stat:mean 25.104367359178
attr source signal_boss_response_time
scalar Network.player minion_throughput:mean 0.2024
attr source signal_minion_throughput
scalar Network.player minion_throughput:last 0.2024
attr source signal_minion_throughput
scalar Network.player minion_recovered_stat:count 19
attr source signal_minion_recovered
scalar Network.player minion_recovered_stat:mean 14
attr source signal_minion_recovered
scalar Network.player minion_defeated_stat:count 441
attr source signal_minion_defeated
scalar Network.player minion_defeated_stat:mean 286
attr source signal_minion_defeated
scalar Network.player minion_waiting_time_stat:mean 55.006177000721
attr source signal_minion_waiting_time
scalar Network.player minion_response_time_stat:mean 56.759496126389
attr source signal_minion_response_time

