version 2
run theoretical_model_minions-1-20230314-09:54:15-7759
attr configname theoretical_model_minions
attr datetime 20230314-09:54:15
attr experiment theoretical_model_minions
attr inifile omnetpp.ini
attr iterationvars ""
attr iterationvarsf ""
attr measurement ""
attr network Network
attr processid 7759
attr repetition 1
attr replication #1
attr resultdir results
attr runnumber 1
attr seedset 1
param *.minion.arrival_distribution 0
param *.minion.service_distribution 0
param *.minion.arrival_mean 1
param *.minion.service_mean 0.8
param *.boss.arrival_distribution 1
param *.boss.service_distribution 1
param *.boss.arrival_mean 0
param *.boss.service_mean 0

vector 0 Network.player minion_jobs_number_stat:vector ETV
attr source signal_minion_jobs_number
vector 1 Network.player minion_jobs_queue_number_stat:vector ETV
attr source signal_minion_jobs_queue_number
vector 2 Network.player minion_recovered_stat:vector ETV
attr source signal_minion_recovered
vector 3 Network.player minion_defeated_stat:vector ETV
attr source signal_minion_defeated
vector 4 Network.player boss_jobs_number_stat:vector ETV
attr source signal_boss_jobs_number
vector 5 Network.player boss_jobs_queue_number_stat:vector ETV
attr source signal_boss_jobs_queue_number
vector 6 Network.player boss_defeated_stat:vector ETV
attr source signal_boss_defeated
vector 7 Network.player minion_waiting_time_stat:vector ETV
attr source signal_minion_waiting_time
vector 8 Network.player minion_response_time_stat:vector ETV
attr source signal_minion_response_time
vector 9 Network.player minion_throughput:vector ETV
attr source signal_minion_throughput
vector 10 Network.player boss_throughput:vector ETV
attr source signal_boss_throughput
0	0	0	0
0	2	3.412152319184	1
0	3	3.612968301338	0
0	5	5.720971349824	1
0	6	5.766380128721	0
0	8	6.513347335117	1
0	10	6.702929576993	2
0	11	8.150043221479	1
0	12	9.573881885198	0
0	14	10.303225197912	1
0	15	10.488487568881	0
0	17	12.238538308549	1
0	18	12.600252800289	0
0	20	13.493158982232	1
0	22	14.432297749144	2
0	23	15.499970162404	1
0	25	15.62872848099	2
0	27	16.538928314353	3
0	29	16.782388738404	4
0	31	16.934915605668	5
0	32	18.607690916601	4
0	33	19.143878182241	3
0	34	19.219169408637	2
0	35	19.976041413906	1
0	36	20.380362511881	0
0	38	20.67611855763	1
0	40	20.930373496469	2
0	42	20.936623242496	3
0	43	21.837750942423	2
0	45	22.135343994292	3
0	46	22.187486531659	2
0	48	22.427010475313	3
0	49	22.772029525975	2
0	50	23.305448747155	1
0	51	23.587140457321	0
0	53	24.761896949092	1
0	55	25.332457590736	2
0	57	26.334750480443	3
0	59	27.846077257352	4
0	61	27.851249761595	5
0	63	28.071503831151	6
0	64	28.514560650347	5
0	65	28.680889994482	4
0	67	28.920969186428	5
0	68	30.002272475152	4
0	69	30.0696226037	3
0	70	30.908244411284	2
0	72	30.908694162948	3
0	74	31.357322036505	4
0	75	31.981118570981	3
0	76	33.350617609514	2
0	77	33.816344915273	1
0	78	34.03857298399	0
0	80	35.455715185566	1
0	81	35.593589859695	0
0	83	36.382389483119	1
0	85	36.561327463279	2
0	87	37.058523387205	3
0	88	37.538792319181	2
0	90	37.96817108987	3
0	91	39.234583484017	2
0	92	39.328620624951	1
0	93	39.584880120329	0
0	95	39.639206519958	1
0	97	39.648233232923	2
0	98	39.821886937092	1
0	99	40.249756246143	0
0	101	40.596338067048	1
0	102	40.697782786193	0
0	104	41.085029277799	1
0	105	41.365901654372	0
0	107	41.394921217751	1
0	109	41.440086017781	2
0	111	42.472669761283	3
0	112	43.077273266657	2
0	113	43.870058627196	1
0	114	44.463383017941	0
0	116	45.611186772155	1
0	117	46.304878349989	0
0	119	47.277523685497	1
0	120	47.819556946586	0
0	122	47.85048476204	1
0	124	47.869692802098	2
0	125	48.583375756384	1
0	126	49.636405707108	0
0	128	50.845177585574	1
0	130	50.885770816725	2
0	131	51.092377467504	1
0	132	51.104127943074	0
0	134	52.428980936813	1
0	135	52.697007744193	0
0	137	55.329472938417	1
0	138	55.407883472891	0
0	140	57.341549685028	1
0	141	57.575531942149	0
0	143	57.932770801922	1
0	145	58.12292143072	2
0	147	58.705150925417	3
0	149	58.783056886546	4
0	151	58.851024789305	5
0	152	59.334283139416	4
0	153	59.65176174125	3
0	155	59.769174064833	4
0	157	59.962590423969	5
0	159	60.14647982974	6
0	160	61.085934857426	5
0	161	61.210476341105	4
0	163	62.155520728823	5
0	164	62.994025977348	4
0	165	63.138872202698	3
0	167	63.477452204541	4
0	169	65.332331161782	5
0	170	65.675197903798	4
0	172	65.857329845116	5
0	173	68.333044670742	4
0	175	68.449641219477	5
0	176	68.992263940551	4
0	178	69.200224362358	5
0	180	71.242805476637	6
0	181	71.571911936485	5
0	182	71.647842994424	4
0	183	71.814855571109	3
0	185	74.016540214431	4
0	187	75.819907033387	5
0	188	76.229810227546	4
0	189	76.249495699899	3
0	191	76.557416058974	4
0	192	76.76864947808	3
0	194	76.859835635434	4
0	195	76.951732884906	3
0	197	76.974341606438	4
0	199	77.010754780177	5
0	201	77.182995409785	6
0	203	77.442754541802	7
0	204	77.875664692781	6
0	206	78.230657894138	7
0	208	78.46787571957	8
0	209	78.838426009706	7
0	211	79.211062420982	8
0	213	79.410392519524	9
0	214	80.321548045846	8
0	216	80.425427504968	9
0	218	80.805394791467	10
0	220	81.318715930598	11
0	221	81.531087022245	10
0	223	81.594520296594	11
0	224	82.297037312457	10
0	225	82.315597428607	9
0	227	82.643785756652	10
0	228	82.978198428604	9
0	230	83.114379053752	10
0	232	83.620051318152	11
0	233	83.667759532258	10
0	234	84.03505758216	9
0	235	84.036372398135	8
0	237	84.621529577415	9
0	238	84.975725486536	8
0	239	85.555390534188	7
0	241	85.599472642351	8
0	243	85.851829425919	9
0	244	86.910375533589	8
0	246	87.310285822251	9
0	248	87.45965767729	10
0	250	87.656858066655	11
0	251	87.727241482096	10
0	253	88.517234000721	11
0	255	88.988159283459	12
0	257	89.42152046127	13
0	258	89.806348687114	12
0	260	90.119746640529	13
0	262	90.750389279035	14
0	264	91.910878295892	15
0	266	92.355239712044	16
0	268	92.647840063333	17
0	270	92.734672287011	18
0	271	93.200127242891	17
0	272	93.204728498498	16
0	273	93.444637593355	15
0	275	93.543771126461	16
0	277	93.835340222432	17
0	278	94.464610515128	16
0	280	94.815985092436	17
0	282	94.864551051571	18
0	283	95.762211261502	17
0	284	96.642043562253	16
0	286	97.123130375886	17
0	287	98.277198632265	16
0	288	98.455478911695	15
0	290	99.773949775268	16
0	292	100.224705579777	17
0	294	100.494078063684	18
0	295	100.50404156742	17
0	296	101.458375369941	16
0	297	101.460148706124	15
0	299	101.50896631012	16
0	300	102.145460716365	15
0	301	102.652591440394	14
0	303	103.174471720944	15
0	304	103.346061400808	14
0	306	103.38698003673	15
0	308	103.521862811415	16
0	310	104.210607936863	17
0	312	104.289333419031	18
0	314	104.490771009818	19
0	316	105.647822707863	20
0	317	106.536698361697	19
0	318	106.590043566558	18
0	319	106.997298376038	17
0	320	107.153376923337	16
0	322	108.15354089192	17
0	323	108.49783399427	16
0	324	108.832099503226	15
0	325	109.464630771717	14
0	326	110.215260654321	13
0	328	111.092401965778	14
0	329	111.393977712167	13
0	330	111.567980258168	12
0	332	111.657722625288	13
0	334	112.037042743762	14
0	335	112.098743906557	13
0	336	112.202419542771	12
0	337	112.226054508918	11
0	339	113.810106653752	12
0	340	114.408814182886	11
0	341	114.481214200389	10
0	342	114.779202092665	9
0	343	114.873737011135	8
0	344	115.388181881844	7
0	345	115.619656765589	6
0	346	115.671041479996	5
0	348	115.899776937579	6
0	350	116.438961410311	7
0	352	117.636838182736	8
0	353	118.351033534856	7
0	354	118.608680212967	6
0	355	119.407909662545	5
0	356	119.612844378929	4
0	358	119.987223625414	5
0	360	120.427859678206	6
0	362	120.946759834558	7
0	363	120.969975580648	6
0	364	123.262490494039	5
0	366	123.296185961241	6
0	368	123.698418058928	7
0	369	123.930410255503	6
0	371	124.170695424186	7
0	372	124.309330004244	6
0	374	125.01965179135	7
0	375	125.116397444056	6
0	376	125.503877627465	5
0	377	126.840513047673	4
0	379	126.895155577195	5
0	380	127.128144238932	4
0	382	128.762352100873	5
0	383	129.218510319723	4
0	384	129.392170900677	3
0	386	130.084512316078	4
0	387	131.342223925668	3
0	389	132.057896598713	4
0	390	132.408622895605	3
0	392	133.258478578238	4
0	393	133.802133503027	3
0	395	134.164047289965	4
0	397	135.271225786626	5
0	399	135.359687246063	6
0	401	135.443046289999	7
0	402	135.89928725611	6
0	403	135.978439067474	5
0	405	136.352526781757	6
0	407	136.398202022208	7
0	409	136.679840673552	8
0	411	136.779879902826	9
0	412	136.900638986784	8
0	413	137.25898026406	7
0	414	137.700584117656	6
0	415	137.729507968259	5
0	417	138.098865030126	6
0	419	138.344037302999	7
0	420	138.397924522924	6
0	421	139.03028269727	5
0	422	139.223918771523	4
0	423	140.496186902476	3
0	425	140.594516717923	4
0	426	140.632847084504	3
0	427	140.674844660067	2
0	428	142.120249749718	1
0	430	142.239667544175	2
0	431	142.287511834362	1
0	433	142.962725575632	2
0	435	143.068508877286	3
0	436	143.779261076285	2
0	438	143.993748304856	3
0	440	144.060156708866	4
0	442	144.127437983019	5
0	443	144.143167437594	4
0	444	144.968712939393	3
0	445	145.192791919716	2
0	446	145.308110645368	1
0	447	146.576248317964	0
0	449	147.008961121469	1
0	450	147.164530630904	0
0	452	147.785652392965	1
0	454	147.963430353821	2
0	456	148.101758124742	3
0	457	148.132861274546	2
0	458	148.440060513502	1
0	460	148.997936585555	2
0	461	149.25489134991	1
0	463	149.951313698046	2
0	464	151.754628111955	1
0	465	152.298678717569	0
0	467	152.954164446528	1
0	468	153.159716240697	0
0	470	153.406171548561	1
0	472	153.863092599355	2
0	473	154.106866106405	1
0	475	155.323068124083	2
0	477	155.344923927314	3
0	479	155.394675400138	4
0	480	155.877707284939	3
0	482	156.130050566137	4
0	484	156.24638004296	5
0	486	156.613123608063	6
0	488	157.765210141988	7
0	489	158.119147984825	6
0	491	159.555861532403	7
0	492	160.276773644823	6
0	494	160.278754143939	7
0	495	162.576153145556	6
0	496	162.647309950369	5
0	497	162.742059731372	4
0	499	162.929034621621	5
0	501	163.776829149349	6
0	503	163.914868210615	7
0	504	164.076495094789	6
0	505	165.560535521	5
0	507	165.770890962261	6
0	509	167.549549224527	7
0	511	168.21846757928	8
0	512	169.71300165322	7
0	514	169.763772424533	8
0	515	170.052754430304	7
0	516	170.400739361263	6
0	517	170.485763466345	5
0	518	171.015175764557	4
0	519	171.402015333668	3
0	521	171.425264039212	4
0	522	172.486255418218	3
0	524	172.595299645945	4
0	525	173.05751479476	3
0	527	173.309146864954	4
0	528	173.43067386952	3
0	530	174.360230096322	4
0	531	176.028146220095	3
0	532	176.056778547117	2
0	533	176.428330012587	1
0	534	176.560855553757	0
0	536	176.973707029373	1
0	537	176.983664268189	0
0	539	179.742964986936	1
0	540	180.05349376033	0
0	542	180.842360892591	1
0	544	181.111746918014	2
0	546	181.272769133993	3
0	548	181.92950713341	4
0	550	182.382933992839	5
0	551	182.413578033288	4
0	552	182.513582330046	3
0	553	182.607808433679	2
0	554	182.96444430037	1
0	555	183.485034231023	0
0	557	185.005842958547	1
0	558	185.962642304921	0
0	560	187.014080132896	1
0	562	187.209375059016	2
0	564	187.640596862389	3
0	566	187.806684802729	4
0	568	188.016203783804	5
0	569	188.531669626066	4
0	570	189.788772078226	3
0	571	190.367225083588	2
0	572	190.83994326051	1
0	573	191.31329394464	0
0	575	191.448261360609	1
0	577	192.088097775854	2
0	579	192.474666029836	3
0	581	192.973532074843	4
0	582	194.273703305628	3
0	584	195.143310600919	4
0	585	195.563161583234	3
0	587	196.108082593286	4
0	588	196.135007273889	3
0	589	196.151488997013	2
0	590	196.684068644263	1
0	592	196.896369179226	2
0	593	197.364131503163	1
0	594	197.408045184938	0
0	596	197.470429800113	1
0	597	197.894414290703	0
0	599	197.934222648924	1
0	600	198.160466247101	0
0	602	198.236574677825	1
0	604	198.383829311325	2
0	606	198.91566104825	3
0	608	199.035019451733	4
0	610	199.578082565137	5
0	612	199.653111390291	6
0	613	201.603667886654	5
0	615	201.980213164669	6
0	617	202.194941074448	7
0	618	202.731896671057	6
0	619	204.025072853011	5
0	620	204.815080455307	4
0	621	204.859458571239	3
0	622	205.962200622768	2
0	624	206.08795898537	3
0	626	206.090889871733	4
0	627	206.13124946169	3
0	629	207.067909958692	4
0	631	209.161798207127	5
0	633	209.248646816148	6
0	634	209.649532693679	5
0	635	210.131328372165	4
0	636	210.844483475214	3
0	637	211.815545971178	2
0	639	212.015404658774	3
0	640	212.380330627478	2
0	641	212.703161976646	1
0	642	212.899149124924	0
0	644	213.335906470178	1
0	645	213.692915149032	0
0	647	214.034363870598	1
0	648	214.71715461705	0
0	650	215.169698451866	1
0	652	216.546021941831	2
0	653	217.205123838183	1
0	655	218.294853367824	2
0	656	218.42341970611	1
0	658	218.964618242588	2
0	660	219.391487806783	3
0	662	219.395416410795	4
0	664	219.456101131295	5
0	666	220.076610235143	6
0	667	220.880310513506	5
0	669	221.022901050783	6
0	671	221.180095740883	7
0	673	221.312501619861	8
0	675	221.681819817622	9
0	676	222.298890813693	8
0	677	222.717865155488	7
0	678	222.938542447298	6
0	680	223.106977797849	7
0	682	224.506203741427	8
0	683	224.769260645206	7
0	685	226.088139896343	8
0	686	226.313877428749	7
0	687	226.63456193444	6
0	688	226.757657896926	5
0	689	226.826748094916	4
0	691	227.496104953225	5
0	692	227.968064594693	4
0	694	228.021412912774	5
0	695	228.566514950875	4
0	697	230.516513044248	5
0	698	230.735480061499	4
0	699	231.600517056418	3
0	700	232.607480539611	2
0	702	233.395307176352	3
0	703	234.395304285256	2
0	704	234.504924104407	1
0	706	236.07899195757	2
0	708	236.269885906486	3
0	710	236.36435233706	4
0	711	237.190459098752	3
0	712	237.294835847096	2
0	713	238.47034247763	1
0	714	239.214066946628	0
0	716	239.221816923031	1
0	718	239.439108518221	2
0	720	240.065512752964	3
0	721	240.360512679278	2
0	723	240.889836305022	3
0	725	242.329504642311	4
0	727	242.339986052824	5
0	728	243.648725243498	4
0	730	243.73762532499	5
0	732	243.998856201998	6
0	733	244.639160026766	5
0	734	246.517871827649	4
0	735	247.48520170737	3
0	736	247.727206758885	2
0	738	247.973282658909	3
0	740	248.010840774032	4
0	741	248.89371880705	3
0	742	249.620239976017	2
0	744	251.633108761733	3
0	746	251.721265247654	4
0	748	251.762182164981	5
0	749	252.550793040426	4
0	751	252.847786727563	5
0	753	252.863886918839	6
0	754	252.875983671992	5
0	755	253.250342843818	4
0	756	253.722098642711	3
0	758	253.739860259316	4
0	759	253.791464384603	3
0	761	254.523567609221	4
0	762	254.619806501328	3
0	763	254.838977584505	2
0	764	255.173421654348	1
0	765	255.37371296911	0
0	767	255.821349474619	1
0	769	255.855814237158	2
0	770	257.308387129317	1
0	771	257.669929259284	0
0	773	258.203152184386	1
0	774	258.994905637956	0
0	776	259.274590951512	1
0	778	259.291449930229	2
0	780	260.056958364922	3
0	781	260.604500097395	2
0	782	260.78319945398	1
0	783	260.832781628789	0
0	785	262.326997423289	1
0	786	262.710670311179	0
0	788	263.425284959195	1
0	789	263.903181639104	0
0	791	264.126264700606	1
0	793	264.708480180171	2
0	794	264.719315272415	1
0	796	265.662523270916	2
0	798	265.980625323048	3
0	799	266.061362472656	2
0	801	266.125357087496	3
0	802	266.961432936092	2
0	803	267.206912209277	1
0	804	267.471115494929	0
0	806	269.114490057417	1
0	807	269.166890082335	0
0	809	269.753088567629	1
0	810	270.873190640513	0
0	812	271.056032844533	1
0	813	271.277804005185	0
0	815	272.06271199725	1
0	817	272.069056018185	2
0	819	272.745911900689	3
0	821	272.85052576266	4
0	822	273.030061700891	3
0	823	273.101188283373	2
0	824	273.181951011273	1
0	825	274.501232143223	0
0	827	275.530196509794	1
0	828	275.616254426971	0
0	830	276.529032904025	1
0	831	276.6783376419	0
0	833	279.276247631864	1
0	834	279.613488519018	0
0	836	279.615976726373	1
0	837	279.789849685004	0
0	839	280.309046818281	1
0	841	280.832656606246	2
0	843	281.359671724026	3
0	844	281.680891151069	2
0	846	282.88078343788	3
0	847	283.029264127228	2
0	849	284.545930250877	3
0	851	284.98311133861	4
0	852	285.097708149093	3
0	854	285.708310082819	4
0	855	286.427496252573	3
0	856	287.563053834378	2
0	857	288.275111547935	1
0	859	288.309417063706	2
0	861	288.982152268452	3
0	862	289.96522291215	2
0	864	290.256733966327	3
0	865	291.934809658759	2
0	867	292.299975825869	3
0	869	293.102773680342	4
0	870	293.474923607146	3
0	871	293.524272147707	2
0	872	293.673768069599	1
0	874	295.386456332395	2
0	876	295.586084595335	3
0	878	295.735956541416	4
0	880	296.262896962397	5
0	881	296.355617118852	4
0	882	297.058653774483	3
0	884	297.570581970015	4
0	885	297.735646245506	3
0	886	298.0811266461	2
0	887	298.369349628884	1
0	889	299.009778457052	2
0	890	299.442869503088	1
0	892	299.842979652147	2
0	893	300.840478136023	1
0	894	300.86399714807	0
0	896	304.531185528754	1
0	897	305.392863325029	0
0	899	306.747480449563	1
0	901	306.823986160409	2
0	902	306.899403991214	1
0	904	307.204187851777	2
0	906	307.348927659874	3
0	908	308.750763973242	4
0	910	310.09800969424	5
0	911	310.34354209016	4
0	913	310.425447580335	5
0	914	310.458535799898	4
0	915	310.549509424626	3
0	917	312.219898905894	4
0	919	312.347251356615	5
0	921	312.440214439655	6
0	923	312.697666115847	7
0	924	313.688360999158	6
0	925	314.384112933773	5
0	927	314.466204972682	6
0	929	315.953299713967	7
0	930	316.535411871069	6
0	931	317.047594825478	5
0	933	317.498506854476	6
0	934	318.027536164143	5
0	935	318.872601141836	4
0	937	319.048067011988	5
0	939	320.213528555673	6
0	940	321.072241836792	5
0	942	321.265424499305	6
0	943	321.293750608349	5
0	945	321.680828465709	6
0	947	322.048155098738	7
0	948	322.362797708691	6
0	949	322.388097628051	5
0	951	322.636114968549	6
0	952	322.776372580929	5
0	953	323.404990286381	4
0	954	325.168541630148	3
0	955	325.531480809778	2
0	956	326.217875071496	1
0	957	328.000846791636	0
0	959	328.589893793918	1
0	961	329.046130445162	2
0	963	329.395166863458	3
0	964	330.004474886079	2
0	965	330.496454903592	1
0	966	330.576588739248	0
0	968	331.230665487767	1
0	969	331.664592972983	0
0	971	332.333623962458	1
0	972	332.440300400201	0
0	974	332.731600393678	1
0	976	333.038479569419	2
0	978	333.427935973493	3
0	979	333.533309261232	2
0	981	333.976750709276	3
0	982	334.561961675898	2
0	983	335.161192109917	1
0	984	335.34752414736	0
0	986	336.714603464763	1
0	988	338.810807953515	2
0	989	339.314301301499	1
0	990	339.674410997857	0
0	992	341.336378491191	1
0	994	342.244596613507	2
0	995	342.581134537034	1
0	996	344.897970994179	0
0	998	345.707907620003	1
0	1000	346.037123746755	2
0	1001	346.257155574736	1
0	1002	347.341730205883	0
0	1004	347.685037183806	1
0	1005	347.874771331741	0
0	1007	349.068304189931	1
0	1009	349.159231163987	2
0	1010	349.514736618992	1
0	1011	350.25577743595	0
0	1013	350.460187342239	1
0	1015	350.555499123174	2
0	1016	350.605380498838	1
0	1017	351.709871504074	0
0	1019	351.72598974442	1
0	1020	352.327333267689	0
0	1022	352.540360537032	1
0	1024	353.141148601327	2
0	1025	353.668383862986	1
0	1026	353.760869698884	0
0	1028	355.080367565752	1
0	1030	355.742799590381	2
0	1032	357.898671848599	3
0	1034	358.418224717843	4
0	1035	359.109622952665	3
0	1037	359.431160357155	4
0	1038	360.082504017715	3
0	1039	360.279733847664	2
0	1040	361.507602283141	1
0	1041	361.951197690562	0
0	1043	362.46709857638	1
0	1044	364.034545299957	0
0	1046	365.586233052603	1
0	1048	365.602854037239	2
0	1050	365.767593786961	3
0	1051	366.02734228321	2
0	1053	366.143548578697	3
0	1055	366.394038820727	4
0	1056	366.996460968305	3
0	1057	367.303400106252	2
0	1058	369.153638614232	1
0	1059	369.517362497284	0
0	1061	371.01096990468	1
0	1063	371.415178548659	2
0	1064	372.168677423404	1
0	1065	372.688657637171	0
0	1067	373.569709107595	1
0	1069	373.8665058223	2
0	1071	373.886649714782	3
0	1073	374.26091421489	4
0	1075	374.369385386369	5
0	1077	374.495453861215	6
0	1079	374.594258847569	7
0	1080	374.709993473658	6
0	1082	375.064806857093	7
0	1083	375.334860294094	6
0	1085	375.373777023107	7
0	1086	375.398880226398	6
0	1088	375.404003266054	7
0	1090	375.620851285476	8
0	1091	375.64543870206	7
0	1092	375.728952821794	6
0	1093	375.844385198356	5
0	1094	376.104918237325	4
0	1095	376.392416643306	3
0	1097	376.392569208221	4
0	1098	376.52476268272	3
0	1099	376.642153350363	2
0	1100	376.735307047486	1
0	1102	376.893669498621	2
0	1103	377.041135953683	1
0	1104	377.562928383299	0
0	1106	379.809266067813	1
0	1107	380.718772813512	0
0	1109	381.367310105461	1
0	1110	381.679929236072	0
0	1112	381.956322881048	1
0	1114	382.048559411596	2
0	1115	382.692042278944	1
0	1117	383.027133190581	2
0	1119	383.501699237565	3
0	1120	383.647716716117	2
0	1122	384.447965666691	3
0	1124	384.945000255451	4
0	1126	387.653738222343	5
0	1128	388.013800827625	6
0	1129	388.35753541965	5
0	1130	388.801378832641	4
0	1132	389.340013040049	5
0	1133	389.459827895053	4
0	1135	389.970246402689	5
0	1136	390.958397333937	4
0	1137	391.594942156835	3
0	1139	391.712192941337	4
0	1140	392.099721750607	3
0	1141	392.922281050847	2
0	1142	394.503665931737	1
0	1143	395.541675747651	0
0	1145	396.386039667662	1
0	1146	396.436381713071	0
0	1148	396.795286027792	1
0	1149	397.560587849833	0
0	1151	398.170634288957	1
0	1152	398.296716206231	0
0	1154	400.550798824134	1
0	1156	400.638428991636	2
0	1158	400.843252920044	3
0	1159	401.261155959463	2
0	1161	401.798705605419	3
0	1162	402.097678914236	2
0	1164	402.322924299069	3
0	1166	402.54012449473	4
0	1167	402.840783264853	3
0	1168	403.232105961326	2
0	1169	403.582643883873	1
0	1171	403.877445763132	2
0	1172	404.079027820772	1
0	1174	404.356828058763	2
0	1176	404.762477753647	3
0	1177	405.280866199198	2
0	1178	405.371533204951	1
0	1179	406.113825810487	0
0	1181	407.708223116074	1
0	1182	407.864705517395	0
0	1184	409.880958099173	1
0	1186	410.149331875992	2
0	1187	410.176917676928	1
0	1188	410.861182055528	0
0	1190	412.120140491393	1
0	1191	412.345639405516	0
0	1193	412.640611169443	1
0	1195	412.821076188418	2
0	1196	413.28114107474	1
0	1197	413.34028739229	0
0	1199	416.386087026787	1
0	1201	416.648421017652	2
0	1203	416.693337328432	3
0	1205	416.747196943661	4
0	1206	416.892347136813	3
0	1208	417.083011827467	4
0	1209	417.234183466135	3
0	1210	418.718523784997	2
0	1211	418.728868843028	1
0	1212	419.012867846163	0
0	1214	419.040029384149	1
0	1215	419.18490338869	0
0	1217	419.355376049087	1
0	1219	419.769717796102	2
0	1220	420.157644093621	1
0	1221	420.207456333779	0
0	1223	420.391195239631	1
0	1224	420.808677111799	0
0	1226	420.890828280197	1
0	1227	421.151585193638	0
0	1229	421.443852290078	1
0	1231	421.759063820195	2
0	1232	421.960934896894	1
0	1233	422.303510923061	0
0	1235	423.16821456618	1
0	1237	423.299722740315	2
0	1239	423.589404766174	3
0	1241	424.199938828157	4
0	1242	424.799720382798	3
0	1243	425.515387443248	2
0	1244	425.894761566861	1
0	1246	426.190250137143	2
0	1248	426.457759780014	3
0	1249	427.08813215962	2
0	1251	427.343604739736	3
0	1252	427.616854390488	2
0	1254	428.171777526117	3
0	1255	428.400994159183	2
0	1256	428.522011723875	1
0	1257	428.661190621716	0
0	1259	429.403275270058	1
0	1260	429.466027857526	0
0	1262	429.629881122319	1
0	1264	429.655611016689	2
0	1266	430.37179611592	3
0	1268	430.518389809165	4
0	1269	431.423544772791	3
0	1270	432.355575738175	2
0	1271	433.404796215681	1
0	1273	433.48118803679	2
0	1275	434.271740421722	3
0	1277	434.736690778147	4
0	1278	434.776915871882	3
0	1280	435.040288462725	4
0	1281	435.327870388827	3
0	1282	436.095022994573	2
0	1283	436.920474543672	1
0	1285	438.124176632252	2
0	1287	438.328083122146	3
0	1289	438.386990509615	4
0	1291	438.501269782959	5
0	1292	438.73178773872	4
0	1294	439.297125714873	5
0	1295	439.301611116102	4
0	1297	439.392087552516	5
0	1298	440.098155353481	4
0	1299	440.245493800632	3
0	1301	440.307872136473	4
0	1303	441.057620156427	5
0	1304	441.534338203684	4
0	1305	442.354920892121	3
0	1306	442.714535458774	2
0	1308	444.32131863234	3
0	1310	444.549865974925	4
0	1311	446.264077539689	3
0	1312	446.286561091203	2
0	1314	447.142604582259	3
0	1315	447.463448283946	2
0	1317	447.489132270398	3
0	1319	448.204333100535	4
0	1320	449.583237066762	3
0	1321	449.74344420791	2
0	1322	450.40516436639	1
0	1323	450.507221109338	0
0	1325	450.797098223231	1
0	1327	452.222075789167	2
0	1328	452.320083321861	1
0	1330	452.421104395832	2
0	1331	454.4514077317	1
0	1332	454.899907364563	0
0	1334	456.146867065341	1
0	1336	457.170077637485	2
0	1337	458.074090065767	1
0	1339	458.503780572142	2
0	1341	458.609752642345	3
0	1342	459.06668558429	2
0	1343	460.173116225819	1
0	1345	461.687909899876	2
0	1346	461.777269941092	1
0	1348	462.260914173302	2
0	1349	462.920736789871	1
0	1350	463.36633745055	0
0	1352	465.05605896675	1
0	1353	465.179396917531	0
0	1355	466.392081882471	1
0	1357	467.049412517856	2
0	1359	468.810301744485	3
0	1360	469.429288982904	2
0	1362	469.888800378549	3
0	1364	470.381541076493	4
0	1366	470.579808661063	5
0	1368	470.69845067143	6
0	1369	470.766102170588	5
0	1371	471.272968017464	6
0	1372	471.614310248516	5
0	1373	471.785141402456	4
0	1374	471.984345743408	3
0	1376	472.072087511813	4
0	1377	472.118839389601	3
0	1378	472.136430985652	2
0	1379	472.554586217899	1
0	1380	473.419807353009	0
0	1382	474.082930179756	1
0	1383	474.083236558047	0
0	1385	475.65315016245	1
0	1386	475.843822878467	0
0	1388	476.5140820336	1
0	1389	478.00822324231	0
0	1391	482.73797938327	1
0	1392	482.988683738618	0
0	1394	483.065724849245	1
0	1395	483.206286810861	0
0	1397	484.872848977462	1
0	1399	485.003856983998	2
0	1401	485.756907859585	3
0	1403	486.020684883523	4
0	1404	486.140215014461	3
0	1406	486.553485265612	4
0	1408	486.687008165409	5
0	1410	486.751618055225	6
0	1412	487.017904560543	7
0	1413	487.215571829459	6
0	1415	487.236090910893	7
0	1416	487.264751547706	6
0	1418	487.719917655828	7
0	1419	487.964315710786	6
0	1420	488.29656664068	5
0	1422	488.324741258249	6
0	1424	488.368587121071	7
0	1426	488.79895642686	8
0	1427	489.473212272511	7
0	1428	490.14486634793	6
0	1430	490.623512062821	7
0	1432	490.826264909328	8
0	1433	490.877885266108	7
0	1435	491.343461216404	8
0	1436	491.72938705847	7
0	1438	493.379275749561	8
0	1440	494.217145782642	9
0	1441	494.334389297556	8
0	1443	494.651640058791	9
0	1444	494.882763304006	8
0	1445	495.264906041225	7
0	1447	495.662609708895	8
0	1449	495.843127024263	9
0	1450	495.942340851725	8
0	1452	495.98566111311	9
0	1454	496.3293350141	10
0	1456	496.415664017682	11
0	1457	496.49208939578	10
0	1459	497.785406378243	11
0	1461	497.955639937482	12
0	1462	499.604241194181	11
0	1463	499.934642321275	10
0	1465	500.985313601503	11
0	1466	501.075426724622	10
0	1467	502.161594551924	9
0	1469	505.270193521689	10
0	1471	506.357237775676	11
0	1473	506.467627853097	12
0	1474	506.756858580271	11
0	1476	506.853826731667	12
0	1477	507.042765441555	11
0	1479	507.403143594492	12
0	1481	508.106058024927	13
0	1482	509.008986900166	12
0	1484	510.185998466429	13
0	1486	510.281050699659	14
0	1487	510.291696983907	13
0	1489	511.158783557866	14
0	1491	512.159245719559	15
0	1493	512.176934922918	16
0	1494	512.418218618766	15
0	1495	512.490114429719	14
0	1496	512.577741570709	13
0	1497	512.792739433168	12
0	1498	512.808603454235	11
0	1500	512.942696166162	12
0	1501	513.269846656171	11
0	1502	513.495604196582	10
0	1503	513.603386091388	9
0	1504	513.628380872309	8
0	1505	513.80993345976	7
0	1506	513.961584849887	6
0	1508	515.138245392889	7
0	1509	515.435401142282	6
0	1511	515.48701322639	7
0	1513	515.971761284212	8
0	1515	516.823396948881	9
0	1516	516.842496608157	8
0	1518	517.006995573477	9
0	1519	517.215219778844	8
0	1521	517.520657028604	9
0	1523	517.9319085932	10
0	1524	519.369982487067	9
0	1526	519.531861843957	10
0	1527	519.567400637888	9
0	1529	520.433628894561	10
0	1531	520.873098132415	11
0	1533	520.911574111681	12
0	1535	521.278883815313	13
0	1536	521.283300621762	12
0	1538	522.309767907	13
0	1540	522.453490610604	14
0	1541	522.780633078368	13
0	1542	522.793186348574	12
0	1544	523.395371999789	13
0	1545	523.478424802009	12
0	1546	523.755804934104	11
0	1547	524.559283004184	10
0	1549	525.593691610866	11
0	1550	525.763768470438	10
0	1552	525.853491261581	11
0	1554	526.375640466118	12
0	1556	526.930797279595	13
0	1557	527.521833716904	12
0	1558	528.055126869827	11
0	1560	528.933977700012	12
0	1561	529.056423136123	11
0	1563	529.149047636233	12
0	1564	530.26675239085	11
0	1566	530.459178797766	12
0	1568	530.480739406865	13
0	1569	530.513182849359	12
0	1571	531.38832631922	13
0	1573	532.265203737901	14
0	1575	533.95350299959	15
0	1577	534.542933694359	16
0	1578	535.080968832141	15
0	1579	535.088773427212	14
0	1580	535.16176305369	13
0	1582	535.637325223739	14
0	1583	535.799615928706	13
0	1584	535.936247588298	12
0	1585	536.91975180121	11
0	1586	537.411380140951	10
0	1588	537.482844101686	11
0	1590	537.642420982293	12
0	1592	537.864384794068	13
0	1593	538.722039480608	12
0	1595	538.833467970635	13
0	1597	539.414356768356	14
0	1599	539.485819939373	15
0	1601	540.586798612987	16
0	1602	541.468953164568	15
0	1603	541.638178483661	14
0	1604	541.642110918691	13
0	1605	542.446676977151	12
0	1606	542.618412114838	11
0	1608	542.881657375526	12
0	1610	542.952438946352	13
0	1612	544.4877473027	14
0	1613	544.85007542734	13
0	1615	544.926774309216	14
0	1617	544.93065446493	15
0	1618	545.29124916043	14
0	1619	545.530174967537	13
0	1621	546.089132358385	14
0	1622	547.325180684721	13
0	1623	547.601972706629	12
0	1624	548.798993337847	11
0	1626	548.800326932933	12
0	1628	549.081459696316	13
0	1629	549.2425980491	12
0	1631	549.32725299742	13
0	1632	549.4545098838	12
0	1634	549.779774055193	13
0	1636	550.087544179115	14
0	1637	550.131881699071	13
0	1638	550.29887607078	12
0	1640	550.948787450742	13
0	1642	553.080799693452	14
0	1644	553.607476262195	15
0	1645	553.987468393782	14
0	1646	556.578840909305	13
0	1648	556.771858034635	14
0	1649	557.288614144382	13
0	1650	558.079046618369	12
0	1652	558.865654165802	13
0	1654	559.141445653759	14
0	1655	559.829733475444	13
0	1656	560.948234058518	12
0	1658	561.106710847808	13
0	1660	561.781892696337	14
0	1661	561.802416436703	13
0	1663	563.577520989364	14
0	1664	564.403295931418	13
0	1665	564.915404118074	12
0	1667	564.927059643856	13
0	1668	565.235121554996	12
0	1670	565.482658047826	13
0	1671	565.526827951746	12
0	1672	566.010398001452	11
0	1674	566.185856395619	12
0	1675	566.355245389604	11
0	1677	566.396737934508	12
0	1679	566.430356216889	13
0	1680	566.717463319437	12
0	1682	567.448854408825	13
0	1684	567.680739839393	14
0	1685	567.9184120542	13
0	1686	567.964779145107	12
0	1687	568.121113386361	11
0	1688	568.146099671037	10
0	1690	568.239627108692	11
0	1691	568.264839685514	10
0	1692	568.693469949292	9
0	1693	568.885137286054	8
0	1694	568.94271434857	7
0	1695	569.827014688289	6
0	1696	569.970836350432	5
0	1698	570.078819775686	6
0	1699	570.342250774807	5
0	1700	570.478287252964	4
0	1701	570.663331349389	3
0	1703	570.783649058338	4
0	1704	571.002196086173	3
0	1705	571.323419658842	2
0	1706	572.136692971614	1
0	1707	572.204816526206	0
0	1709	572.655705113518	1
0	1710	573.071052279041	0
0	1712	573.708536192774	1
0	1713	574.167457030037	0
0	1715	577.396614270702	1
0	1716	577.553363238619	0
0	1718	580.209051118978	1
0	1720	580.455163535342	2
0	1721	581.5427724637	1
0	1722	581.620768510729	0
0	1724	582.106724927927	1
0	1725	582.578897760245	0
0	1727	585.47145338471	1
0	1729	585.602948717516	2
0	1730	585.757413811234	1
0	1731	586.23178044526	0
0	1733	586.438766144277	1
0	1734	587.133348629199	0
0	1736	588.81890428312	1
0	1737	588.841235858384	0
0	1739	591.640387066754	1
0	1741	592.770698508122	2
0	1743	592.87516974713	3
0	1744	593.027061859899	2
0	1746	593.259987277707	3
0	1747	593.288730003151	2
0	1748	593.583899010332	1
0	1749	593.646415716131	0
0	1751	596.51976802927	1
0	1752	597.502952774148	0
0	1754	597.829075394941	1
0	1755	597.868207766307	0
0	1757	598.305948508415	1
0	1758	598.884165002321	0
0	1760	598.950236804164	1
0	1762	599.070549555306	2
0	1764	599.893879602505	3
0	1766	599.944462386573	4
0	1767	600.54388307519	3
0	1769	600.792684959411	4
0	1771	601.009736057962	5
0	1772	601.038579908702	4
0	1774	601.174008581714	5
0	1775	602.040879551556	4
0	1776	602.075316682531	3
0	1778	603.071562896888	4
0	1779	603.494944565051	3
0	1781	603.520951862681	4
0	1782	603.890439109327	3
0	1783	604.004525237232	2
0	1784	604.028941699851	1
0	1786	604.198847792115	2
0	1787	604.392606894447	1
0	1789	604.771078608114	2
0	1790	605.277835654597	1
0	1791	607.233316280597	0
0	1793	608.705221331764	1
0	1795	608.764679553419	2
0	1796	609.666729204973	1
0	1798	609.840656545728	2
0	1799	610.121193464534	1
0	1800	610.180169493651	0
0	1802	611.127042257028	1
0	1804	611.445107273784	2
0	1806	611.840827170389	3
0	1808	612.877728408289	4
0	1809	613.206239069106	3
0	1810	613.4592931416	2
0	1812	613.525620938271	3
0	1814	613.802884995671	4
0	1815	616.062234108211	3
0	1817	616.760508848491	4
0	1819	617.790358610042	5
0	1820	618.460331130948	4
0	1821	618.465635161189	3
0	1822	618.685963285573	2
0	1823	619.13978212779	1
0	1824	619.813686074672	0
0	1826	619.815072107452	1
0	1828	619.933372544497	2
0	1830	620.252333651885	3
0	1831	620.515023466391	2
0	1833	620.689060454349	3
0	1834	620.705115433587	2
0	1835	621.048300081212	1
0	1837	621.200339012062	2
0	1838	621.234390598365	1
0	1839	621.611715577355	0
0	1841	621.95733560168	1
0	1842	622.040235946269	0
0	1844	622.804180040587	1
0	1846	622.805536831938	2
0	1848	622.932781645477	3
0	1849	623.156003670275	2
0	1851	623.708111573553	3
0	1852	623.752025534781	2
0	1853	623.96219118325	1
0	1854	624.693284750858	0
0	1856	625.298651094701	1
0	1857	625.319756862773	0
0	1859	625.742180871083	1
0	1861	626.133376214728	2
0	1863	626.862789336686	3
0	1865	626.985667566468	4
0	1866	626.991791780833	3
0	1868	627.22610105442	4
0	1869	628.042774303378	3
0	1870	628.233651993011	2
0	1872	628.454366017959	3
0	1874	630.84931298156	4
0	1876	631.572730175669	5
0	1878	633.432098240939	6
0	1879	633.443935469303	5
0	1881	633.459572631545	6
0	1883	633.740344335005	7
0	1884	634.293438222927	6
0	1885	634.324715281444	5
0	1887	634.567671376387	6
0	1888	635.444099605552	5
0	1890	636.984055775538	6
0	1891	637.011853343659	5
0	1892	638.333269752653	4
0	1894	638.428864553442	5
0	1895	638.962014883776	4
0	1896	639.11499292929	3
0	1897	639.130763320975	2
0	1898	639.724467247408	1
0	1899	639.781506311799	0
0	1901	640.139571649802	1
0	1902	640.145897237691	0
0	1904	640.171106349243	1
0	1906	640.633518539712	2
0	1907	640.767416109178	1
0	1908	641.369733416766	0
0	1910	641.705258024553	1
0	1911	641.793610256005	0
0	1913	642.236144077744	1
0	1915	642.524015377145	2
0	1916	642.578158074487	1
0	1917	642.858936695326	0
0	1919	647.17303281671	1
0	1920	647.3867134767	0
0	1922	647.744451529168	1
0	1924	647.892403945291	2
0	1926	647.967307917061	3
0	1927	648.001535724257	2
0	1929	648.13820711895	3
0	1930	648.267342872035	2
0	1932	648.897982521124	3
0	1934	649.028603806266	4
0	1935	651.088906638775	3
0	1937	651.822684400613	4
0	1939	651.928575543127	5
0	1941	652.292153844299	6
0	1942	652.621525012197	5
0	1943	653.128924369218	4
0	1945	653.659819632587	5
0	1947	653.725465298798	6
0	1948	653.726411397247	5
0	1949	653.994992201984	4
0	1950	654.573885779074	3
0	1952	654.798634177258	4
0	1954	656.683999064437	5
0	1955	656.801512404126	4
0	1956	656.87026168144	3
0	1958	657.346723452203	4
0	1959	659.592660971071	3
0	1960	659.666564384374	2
0	1962	660.295449366156	3
0	1963	660.683224141692	2
0	1965	660.802694477159	3
0	1967	661.478140742588	4
0	1968	661.961614998225	3
0	1970	662.043345490138	4
0	1971	662.07937533447	3
0	1972	663.123729273967	2
0	1974	664.434865417146	3
0	1975	664.888814861175	2
0	1977	666.461673355077	3
0	1978	667.861229814272	2
0	1979	668.326887058546	1
0	1980	668.37428352072	0
0	1982	668.854625409609	1
0	1983	670.088525144602	0
0	1985	670.217084069005	1
0	1986	670.991585755485	0
0	1988	671.543296748001	1
0	1990	672.259705191261	2
0	1991	672.565934137688	1
0	1993	674.039500488232	2
0	1994	674.384436773659	1
0	1995	675.23155953751	0
0	1997	675.408223063495	1
0	1999	675.584965293724	2
0	2001	675.809337478698	3
0	2002	676.006969727972	2
0	2003	677.172250959885	1
0	2004	677.456189102531	0
0	2006	677.677151731644	1
0	2007	679.013480391184	0
0	2009	682.63774156412	1
0	2010	683.055430115353	0
0	2012	683.174983591072	1
0	2013	683.670397838431	0
0	2015	683.701060038284	1
0	2016	683.781445623437	0
0	2018	684.038895051897	1
0	2019	684.569176617022	0
0	2021	685.152360450611	1
0	2023	685.97758241526	2
0	2025	686.317846636796	3
0	2026	687.485885938318	2
0	2027	687.567854379956	1
0	2028	688.1331318388	0
0	2030	688.266212450266	1
0	2031	688.636937145192	0
0	2033	689.666155912242	1
0	2035	690.233849374257	2
0	2037	691.043620863996	3
0	2039	691.12458016143	4
0	2041	691.540650550094	5
0	2042	691.619860606574	4
0	2044	691.87931478609	5
0	2046	691.960385159176	6
0	2048	692.296292865799	7
0	2050	692.355598530543	8
0	2051	693.358049037998	7
0	2053	693.549790784001	8
0	2054	693.89087079458	7
0	2056	693.894557375645	8
0	2057	694.089918926238	7
0	2058	695.839310632617	6
0	2059	696.944882006069	5
0	2061	696.997116516758	6
0	2063	697.277732850355	7
0	2065	698.07656821687	8
0	2066	698.090302728309	7
0	2067	699.404821183521	6
0	2069	699.665776170346	7
0	2071	699.958286581502	8
0	2073	699.95906778098	9
0	2075	701.173528316583	10
0	2076	703.542298593647	9
0	2077	703.7173886023	8
0	2078	704.292800768036	7
0	2079	705.449985042795	6
0	2081	705.725384743098	7
0	2083	705.885233133947	8
0	2084	706.057115312214	7
0	2085	706.913943183183	6
0	2087	707.932788866635	7
0	2089	707.996398849068	8
0	2090	708.719525312103	7
0	2092	711.364044725051	8
0	2093	711.685460476838	7
0	2094	711.744438128322	6
0	2095	712.137639821591	5
0	2097	712.411035818062	6
0	2098	712.47546506204	5
0	2100	713.145967283789	6
0	2101	713.606397500526	5
0	2103	713.617175346051	6
0	2104	713.742917671311	5
0	2106	715.007210422079	6
0	2107	715.228999290736	5
0	2109	715.606517109859	6
0	2111	715.74429693725	7
0	2113	715.821159022939	8
0	2114	716.200620719158	7
0	2115	716.581853657788	6
0	2116	718.181375053246	5
0	2118	718.324432939081	6
0	2119	718.383935754741	5
0	2121	718.977759243965	6
0	2122	718.986474435188	5
0	2124	719.322426223917	6
0	2125	719.353874043253	5
0	2126	719.951682612035	4
0	2128	720.254196699115	5
0	2130	720.375611557996	6
0	2131	720.798034903394	5
0	2132	721.108332607857	4
0	2133	721.346397168301	3
0	2134	721.879850077029	2
0	2135	723.44420850211	1
0	2136	723.659711843886	0
0	2138	724.421844450843	1
0	2139	724.701707741537	0
0	2141	725.469664435716	1
0	2143	725.491368151417	2
0	2145	726.890000490983	3
0	2146	726.896995343091	2
0	2148	727.617214952829	3
0	2149	728.052251617902	2
0	2151	728.532336916932	3
0	2153	729.199362483857	4
0	2155	729.243607502939	5
0	2157	730.224813335109	6
0	2158	730.280480064331	5
0	2159	730.590238911346	4
0	2160	732.02017438988	3
0	2162	732.073832272001	4
0	2163	732.581638057804	3
0	2164	733.321733613987	2
0	2166	733.992335463502	3
0	2167	734.980079621139	2
0	2169	735.522841528794	3
0	2171	736.212062246248	4
0	2172	736.286863332208	3
0	2173	736.818350467297	2
0	2175	736.967795321409	3
0	2176	737.630980058213	2
0	2178	737.817786190789	3
0	2180	738.307652268878	4
0	2181	738.413914145437	3
0	2183	739.005921585273	4
0	2185	739.856814141768	5
0	2187	741.448618627016	6
0	2189	741.77794221979	7
0	2190	741.781352658119	6
0	2191	742.117175948467	5
0	2192	743.217718478086	4
0	2193	743.723470785098	3
0	2195	744.15240058694	4
0	2197	744.751864985079	5
0	2199	745.141448400716	6
0	2201	745.327317639751	7
0	2202	746.046011648488	6
0	2203	746.096716299498	5
0	2204	746.549479613974	4
0	2206	746.616111511782	5
0	2208	746.982757738155	6
0	2209	747.136265872279	5
0	2210	747.285880987627	4
0	2211	747.762921190125	3
0	2213	748.046261447345	4
0	2214	749.108505271338	3
0	2215	749.392683628024	2
0	2217	749.60931370912	3
0	2218	749.769859260493	2
0	2219	749.921700853513	1
0	2221	750.076581608966	2
0	2222	750.501978463763	1
0	2223	750.835195728767	0
0	2225	751.354108115732	1
0	2226	752.156988029558	0
0	2228	752.981180613934	1
0	2229	753.26065699739	0
0	2231	753.656699250681	1
0	2232	753.83912208112	0
0	2234	754.844318762006	1
0	2235	755.204526868905	0
0	2237	755.345340610792	1
0	2239	756.022364994986	2
0	2240	756.84896026353	1
0	2242	757.240656929654	2
0	2244	758.08910796265	3
0	2245	758.172316308093	2
0	2246	758.85275968034	1
0	2248	760.654530683231	2
0	2249	760.660376822727	1
0	2250	760.799773861261	0
0	2252	763.629273388334	1
0	2254	764.259292467039	2
0	2256	765.281416306579	3
0	2257	765.601670260903	2
0	2259	765.813238966155	3
0	2260	766.295384547022	2
0	2261	766.733314853294	1
0	2263	766.820798651936	2
0	2265	767.139479618837	3
0	2267	767.618548030717	4
0	2268	767.632150989308	3
0	2270	768.200976214832	4
0	2271	769.46189458356	3
0	2273	769.723798400077	4
0	2274	770.693350889286	3
0	2275	771.40094735472	2
0	2276	772.251923913828	1
0	2278	773.442596876596	2
0	2280	775.501326266483	3
0	2282	775.863416770748	4
0	2284	776.233743007728	5
0	2285	776.801722931466	4
0	2286	777.406439617879	3
0	2287	777.512591045562	2
0	2288	777.519334950791	1
0	2290	778.362687749779	2
0	2291	778.650535670469	1
0	2293	778.757824045769	2
0	2294	778.933409378134	1
0	2296	779.135552853912	2
0	2297	779.643316581417	1
0	2299	780.253948985756	2
0	2301	780.29406628224	3
0	2303	780.634945109234	4
0	2304	781.536318332681	3
0	2306	781.738884306646	4
0	2308	781.824130719602	5
0	2309	782.11448792046	4
0	2310	782.246292728769	3
0	2311	783.382059800327	2
0	2313	783.740185824689	3
0	2314	783.847797766784	2
0	2316	784.080002340405	3
0	2317	785.280957640145	2
0	2319	785.863504369972	3
0	2320	786.602763150662	2
0	2322	787.057786144885	3
0	2324	787.302177721669	4
0	2326	788.000670131662	5
0	2327	788.025464263424	4
0	2328	788.031510979135	3
0	2329	788.368931632179	2
0	2330	788.539444162552	1
0	2332	788.687950139064	2
0	2333	788.922746900749	1
0	2335	789.555601899193	2
0	2337	789.946751485344	3
0	2338	789.987197105683	2
0	2339	790.710855092303	1
0	2341	790.930886294394	2
0	2343	790.987538133453	3
0	2344	791.030337152412	2
0	2345	791.065391628278	1
0	2346	791.127560135335	0
0	2348	791.75348026775	1
0	2350	792.898993006394	2
0	2351	793.102126377603	1
0	2352	793.377329312465	0
0	2354	796.151006884261	1
0	2355	796.856562969922	0
0	2357	796.967849491598	1
0	2358	797.145625502474	0
0	2360	798.632078404292	1
0	2361	799.100955677531	0
0	2363	800.903804908572	1
0	2364	800.965886978405	0
0	2366	804.21102483291	1
0	2367	805.024211812303	0
0	2369	806.091914013611	1
0	2370	806.115258081101	0
0	2372	807.273944296558	1
0	2374	807.582366588679	2
0	2376	809.200411887101	3
0	2377	809.761093344735	2
0	2378	809.918397820086	1
0	2380	810.135647844643	2
0	2381	811.222972633994	1
0	2383	811.527491375356	2
0	2384	811.630579158987	1
0	2385	812.484618246782	0
0	2387	813.328368067826	1
0	2388	814.854842484892	0
0	2390	816.160240057907	1
0	2392	816.319711105179	2
0	2393	816.346333023067	1
0	2395	816.735912578726	2
0	2396	816.884442424392	1
0	2398	818.282600940074	2
0	2400	818.674786987909	3
0	2402	819.398030143344	4
0	2404	819.410023097417	5
0	2405	819.737376024696	4
0	2407	820.242103905595	5
0	2409	820.312320560007	6
0	2410	820.408531132232	5
0	2412	820.439182694545	6
0	2413	820.800191869448	5
0	2414	821.479962854362	4
0	2415	823.365057972015	3
0	2417	823.700824927126	4
0	2419	823.721090474101	5
0	2420	824.210164805643	4
0	2422	824.365308589563	5
0	2423	824.766371728108	4
0	2424	824.955267705256	3
0	2426	825.322739044235	4
0	2428	825.452435104876	5
0	2430	825.555615604541	6
0	2432	825.669774964643	7
0	2433	825.848057459981	6
0	2435	826.748167799254	7
0	2437	827.477149685052	8
0	2439	828.329953715471	9
0	2440	828.419805946098	8
0	2442	829.384074747205	9
0	2444	829.654234429096	10
0	2445	830.166957903992	9
0	2446	831.280037470519	8
0	2447	831.328165145587	7
0	2449	831.450709045103	8
0	2450	831.678422516106	7
0	2451	831.957781061343	6
0	2452	831.974493514272	5
0	2453	832.131007266203	4
0	2455	832.300105905431	5
0	2456	832.796789593783	4
0	2457	832.834937338648	3
0	2458	833.034019819691	2
0	2460	833.147442841229	3
0	2461	833.36862703808	2
0	2462	834.922419677815	1
0	2464	835.615631195529	2
0	2466	836.021950505133	3
0	2468	836.086246595637	4
0	2469	836.898283430259	3
0	2471	837.292913801303	4
0	2473	837.535571813963	5
0	2475	837.743448396682	6
0	2477	838.007022780278	7
0	2478	838.369309878583	6
0	2480	838.411675624165	7
0	2481	838.602358156108	6
0	2482	839.753438756614	5
0	2483	839.849401107451	4
0	2484	840.017069940913	3
0	2486	840.615826684879	4
0	2488	840.744718869707	5
0	2490	840.804056859597	6
0	2492	841.945646698651	7
0	2493	842.292783795786	6
0	2494	842.917172548895	5
0	2496	843.0113109829	6
0	2497	843.461058836418	5
0	2499	843.787082780439	6
0	2500	843.798355032572	5
0	2501	844.308965649275	4
0	2503	845.621159195728	5
0	2505	846.200039180731	6
0	2506	846.486815724056	5
0	2508	847.256717540426	6
0	2509	847.418224562108	5
0	2511	847.51842804977	6
0	2512	848.791584088398	5
0	2514	849.167324060496	6
0	2515	850.150570330151	5
0	2516	850.281704585352	4
0	2517	850.487589648906	3
0	2518	850.707788167093	2
0	2519	850.888659331421	1
0	2521	851.023250060415	2
0	2522	851.265673623503	1
0	2524	851.362591472772	2
0	2525	851.707684769121	1
0	2527	851.867542257247	2
0	2528	853.507066357199	1
0	2530	853.824545804222	2
0	2531	855.012026639736	1
0	2533	856.258376018872	2
0	2535	856.365700144799	3
0	2536	856.480246299997	2
0	2538	856.682870645014	3
0	2539	858.575414564293	2
0	2540	858.905891794009	1
0	2541	859.074867096635	0
0	2543	861.884362750008	1
0	2545	862.898409956644	2
0	2546	863.264954494495	1
0	2547	864.200506513349	0
0	2549	864.560082015319	1
0	2550	864.720030488393	0
0	2552	865.897516408265	1
0	2554	865.913299807938	2
0	2556	866.09875454497	3
0	2557	866.369799276483	2
0	2559	866.39559229907	3
0	2560	866.552408932426	2
0	2562	866.596576940546	3
0	2563	868.236119802224	2
0	2565	868.572187128521	3
0	2566	869.148833525528	2
0	2567	869.429173252975	1
0	2568	869.800107272279	0
0	2570	870.018896166299	1
0	2572	870.264736843885	2
0	2573	870.270888186799	1
0	2575	870.358405592338	2
0	2577	870.563299535205	3
0	2578	871.085286480779	2
0	2579	871.103027265071	1
0	2580	871.192119033162	0
0	2582	871.214058966006	1
0	2584	871.261333020651	2
0	2586	871.347788401191	3
0	2588	871.44965549534	4
0	2589	872.854592236317	3
0	2590	873.3615141312	2
0	2591	873.506788975853	1
0	2592	873.866057806095	0
0	2594	874.766955994075	1
0	2595	875.028128904632	0
0	2597	875.428775075412	1
0	2598	876.074608081315	0
0	2600	877.231793175512	1
0	2602	877.277764548986	2
0	2603	877.458034980906	1
0	2605	877.542217585863	2
0	2606	877.976067026176	1
0	2608	879.786776392948	2
0	2609	880.017439524351	1
0	2610	881.114923499114	0
0	2612	881.640955746937	1
0	2613	881.7090780842	0
0	2615	882.144119031915	1
0	2616	882.268861427141	0
0	2618	883.520549715119	1
0	2620	883.804641623641	2
0	2621	883.848921918369	1
0	2623	883.919431618897	2
0	2624	884.507608547469	1
0	2625	885.420244284346	0
0	2627	885.647162997337	1
0	2629	885.957639291732	2
0	2631	888.03850126676	3
0	2632	888.60098274117	2
0	2633	888.745783235211	1
0	2634	888.807914651162	0
0	2636	889.065290460653	1
0	2637	889.754843317478	0
0	2639	890.16711081627	1
0	2640	890.22326563049	0
0	2642	891.395194028689	1
0	2643	891.837425256458	0
0	2645	893.384285599613	1
0	2647	893.805301406485	2
0	2648	893.836792135957	1
0	2650	893.839299714684	2
0	2651	893.847373874567	1
0	2653	893.977394399842	2
0	2655	894.088238218443	3
0	2657	894.771177117452	4
0	2659	895.030885824153	5
0	2660	895.597344997474	4
0	2661	896.343693569001	3
0	2663	896.474775606165	4
0	2664	896.782984790512	3
0	2665	897.123825488339	2
0	2667	897.945844836235	3
0	2668	898.174900772271	2
0	2669	898.365026358231	1
0	2670	898.612178098006	0
0	2672	898.682150772069	1
0	2674	898.810792520745	2
0	2676	899.026959103611	3
0	2678	899.45345493265	4
0	2680	899.816351373692	5
0	2682	901.069868433696	6
0	2683	901.638069650005	5
0	2684	901.940652964196	4
0	2686	902.486112396552	5
0	2687	903.401645316787	4
0	2688	903.510136998673	3
0	2690	903.556166528483	4
0	2691	903.98653142501	3
0	2693	904.17365067796	4
0	2695	905.667497145785	5
0	2696	906.903620335682	4
0	2698	907.116703176705	5
0	2700	907.167304242797	6
0	2701	907.213621131292	5
0	2703	907.36090535398	6
0	2704	907.907699458599	5
0	2705	907.919058020975	4
0	2706	910.891547895627	3
0	2708	911.511308628153	4
0	2709	911.933315914188	3
0	2710	911.968889695894	2
0	2711	912.216639417137	1
0	2713	912.666265409835	2
0	2714	913.394585107982	1
0	2715	913.968028888073	0
0	2717	915.199608343464	1
0	2719	916.806956173325	2
0	2720	916.862165122203	1
0	2722	917.09644616773	2
0	2723	917.64900549729	1
0	2724	918.146445523807	0
0	2726	919.28091357367	1
0	2728	919.345903806803	2
0	2730	919.700191596106	3
0	2731	920.399302701905	2
0	2733	920.590440325113	3
0	2734	922.140376341057	2
0	2735	922.278095453027	1
0	2736	922.434665230581	0
0	2738	923.02262561074	1
0	2739	923.099232458032	0
0	2741	924.04713774479	1
0	2742	924.160794555002	0
0	2744	924.928262550132	1
0	2745	926.118276513151	0
0	2747	926.187661274834	1
0	2748	926.281675181101	0
0	2750	926.536037975772	1
0	2751	926.578301287703	0
0	2753	926.627418792685	1
0	2755	926.658864985745	2
0	2756	927.485890467752	1
0	2757	927.903423079765	0
0	2759	928.135951417516	1
0	2760	928.991590676292	0
0	2762	929.228594455266	1
0	2763	929.257945136885	0
0	2765	930.71606776931	1
0	2766	931.585496007148	0
0	2768	933.699901032622	1
0	2769	933.886242884139	0
0	2771	937.001483798339	1
0	2773	937.855974167856	2
0	2775	938.33525230866	3
0	2777	938.692329146884	4
0	2779	938.969347944687	5
0	2781	939.369470549719	6
0	2783	939.432815137173	7
0	2784	939.911842441873	6
0	2785	940.079824627589	5
0	2787	940.107478033531	6
0	2788	940.260080591921	5
0	2790	940.351389360122	6
0	2791	941.725650052872	5
0	2792	941.755086423618	4
0	2793	942.841848411926	3
0	2794	942.958611447695	2
0	2795	943.183098466384	1
0	2796	943.624120648384	0
0	2798	944.484415131033	1
0	2799	945.190251459682	0
0	2801	946.091787219118	1
0	2803	946.654865384692	2
0	2805	947.588018707983	3
0	2807	948.077744959926	4
0	2808	948.227312493216	3
0	2809	948.773234672144	2
0	2810	950.365475377519	1
0	2811	950.44194584023	0
0	2813	951.689447863869	1
0	2814	951.705520078728	0
0	2816	952.371725496398	1
0	2817	952.726031784987	0
0	2819	952.912958594687	1
0	2821	953.163622005686	2
0	2822	954.028689673158	1
0	2823	955.139971461302	0
0	2825	955.57224192681	1
0	2827	955.915782539887	2
0	2829	956.272545832389	3
0	2830	956.917066428174	2
0	2831	957.027343586798	1
0	2832	957.046434593252	0
0	2834	957.933710111259	1
0	2835	958.15315504633	0
0	2837	958.418836128285	1
0	2838	958.6546003384	0
0	2840	960.65260242789	1
0	2841	961.005175094538	0
0	2843	961.624360509239	1
0	2845	962.086751793839	2
0	2847	962.671699905505	3
0	2848	962.840528146987	2
0	2849	962.843752062467	1
0	2851	963.329668856888	2
0	2852	963.393920102449	1
0	2854	964.548742971263	2
0	2855	964.581764191326	1
0	2856	966.3944893972	0
0	2858	966.887035078406	1
0	2860	966.958568582948	2
0	2861	967.289177971323	1
0	2863	968.208297167092	2
0	2864	968.392746365757	1
0	2865	969.207109941612	0
0	2867	971.768679413247	1
0	2869	972.380724522989	2
0	2871	972.595568762659	3
0	2872	972.691582848533	2
0	2873	973.288879070175	1
0	2874	974.597331199409	0
0	2876	975.768486809942	1
0	2878	976.019837886404	2
0	2879	976.97749374715	1
0	2880	977.681241584596	0
0	2882	978.186650753887	1
0	2883	979.046985875485	0
0	2885	979.344097693381	1
0	2887	979.964992399887	2
0	2888	980.237229019135	1
0	2889	980.644234062107	0
0	2891	980.851088801539	1
0	2892	980.950399546668	0
0	2894	981.066039723304	1
0	2895	981.171642118088	0
0	2897	981.405889591974	1
0	2898	981.417949764924	0
0	2900	983.214125427434	1
0	2901	983.655452088497	0
0	2903	983.682577233676	1
0	2904	983.976204694289	0
0	2906	985.961676172287	1
0	2907	985.96591751747	0
0	2909	986.674552087521	1
0	2910	987.046463281849	0
0	2912	987.789160876081	1
0	2913	987.854272885119	0
0	2915	988.286705215621	1
0	2916	989.108425840413	0
0	2918	989.923455329031	1
0	2920	990.044583726784	2
0	2922	990.063785790723	3
0	2923	991.340119681905	2
0	2924	991.907064850353	1
0	2925	992.488873515699	0
0	2927	992.721893393943	1
0	2928	993.09901696288	0
0	2930	993.691119531699	1
0	2932	994.31769285695	2
0	2933	994.935628353204	1
0	2934	995.385512236701	0
0	2936	995.962864333524	1
0	2938	996.899574926329	2
0	2939	997.037792251723	1
0	2941	997.236246661341	2
0	2942	997.611742446918	1
0	2943	998.212023477399	0
0	2945	1000.296365972368	1
0	2947	1000.465224528763	2
0	2948	1001.089533682593	1
0	2949	1002.129026800266	0
0	2951	1003.147769280083	1
0	2952	1003.51350280927	0
0	2954	1005.359215007375	1
0	2955	1007.662612020268	0
0	2957	1009.425631941993	1
0	2959	1010.950452311956	2
0	2960	1011.848124271343	1
0	2962	1012.683822032858	2
0	2964	1013.127328704108	3
0	2966	1013.510522342024	4
0	2967	1014.219915786656	3
0	2968	1014.341401226401	2
0	2970	1014.372491909948	3
0	2971	1014.576287788777	2
0	2973	1014.76370109239	3
0	2975	1015.022364959756	4
0	2977	1015.379829141474	5
0	2978	1015.663922096724	4
0	2980	1015.782270175357	5
0	2981	1017.576040506941	4
0	2983	1017.649096947201	5
0	2984	1018.111831433983	4
0	2985	1018.621283796695	3
0	2987	1018.809369596609	4
0	2988	1021.128623490554	3
0	2989	1021.315565878776	2
0	2990	1023.837481934426	1
0	2991	1024.259788429078	0
0	2993	1025.582261193303	1
0	2994	1026.166494218999	0
0	2996	1027.014329601757	1
0	2997	1027.715853158319	0
0	2999	1028.536099284372	1
0	3000	1029.704651394108	0
0	3002	1030.653188152404	1
0	3003	1032.411763549309	0
0	3005	1034.195253290339	1
0	3006	1035.109030584124	0
0	3008	1035.270830139083	1
0	3010	1035.910159914308	2
0	3011	1037.140358037704	1
0	3012	1037.37222453117	0
0	3014	1037.516733500293	1
0	3016	1037.557745411256	2
0	3018	1037.767919524873	3
0	3019	1038.173109642262	2
0	3020	1038.218591372083	1
0	3022	1038.515371152066	2
0	3023	1039.53531307901	1
0	3025	1039.785122335338	2
0	3027	1039.842548971233	3
0	3028	1041.989335640805	2
0	3029	1042.591849352929	1
0	3030	1043.02064391044	0
0	3032	1043.79850480298	1
0	3033	1043.878429194205	0
0	3035	1044.109381361276	1
0	3036	1044.710801318933	0
0	3038	1046.503843409666	1
0	3040	1046.787923762367	2
0	3041	1046.961633609502	1
0	3042	1047.876488456022	0
0	3044	1048.321732480316	1
0	3046	1048.936981687301	2
0	3047	1049.282690784923	1
0	3048	1050.443905239077	0
0	3050	1051.171899068161	1
0	3051	1052.295621027355	0
0	3053	1053.778514927702	1
0	3055	1054.385636535191	2
0	3056	1054.435379451546	1
0	3057	1055.341578593339	0
0	3059	1056.069591866034	1
0	3061	1056.451920258976	2
0	3063	1056.541863714016	3
0	3065	1057.560365687217	4
0	3066	1058.572063003633	3
0	3067	1058.573748661844	2
0	3068	1058.582188103333	1
0	3070	1059.395524148473	2
0	3071	1059.499600653114	1
0	3072	1059.823979987931	0
0	3074	1060.276175878775	1
0	3076	1062.121588612464	2
0	3078	1062.162783685851	3
0	3079	1063.406644603217	2
0	3080	1063.713054496426	1
0	3081	1063.904680048762	0
0	3083	1064.533239058983	1
0	3085	1064.847820743626	2
0	3086	1064.911906232117	1
0	3088	1065.328125222751	2
0	3089	1065.911129749295	1
0	3091	1066.206279193154	2
0	3092	1067.895038750344	1
0	3093	1068.071246042313	0
0	3095	1071.676334117465	1
0	3097	1071.743435233417	2
0	3098	1071.816535129112	1
0	3100	1072.923796806848	2
0	3101	1072.980156989458	1
0	3103	1072.988603963456	2
0	3105	1074.468397650699	3
0	3107	1074.940604696974	4
0	3108	1075.946106582911	3
0	3110	1076.429328241657	4
0	3112	1076.558496379873	5
0	3114	1076.62570370812	6
0	3116	1077.161364770305	7
0	3117	1078.142670342612	6
0	3118	1078.457110811187	5
0	3120	1078.590660139837	6
0	3121	1078.64386914378	5
0	3122	1079.204875009662	4
0	3124	1079.714223272611	5
0	3125	1080.619343527121	4
0	3127	1081.276555610706	5
0	3129	1081.915658147176	6
0	3130	1082.71943307103	5
0	3132	1082.771663474394	6
0	3134	1082.790408977418	7
0	3135	1083.003920499862	6
0	3136	1083.030193904158	5
0	3138	1083.114100962527	6
0	3139	1084.73111861488	5
0	3140	1084.800890518062	4
0	3141	1084.82672305339	3
0	3142	1085.010268801828	2
0	3144	1085.752359475045	3
0	3145	1086.136220127915	2
0	3147	1086.282199313937	3
0	3149	1086.571130425521	4
0	3151	1086.850023642664	5
0	3153	1086.857440174044	6
0	3155	1088.348760160465	7
0	3157	1088.93315995102	8
0	3158	1089.302277460566	7
0	3159	1089.496303511503	6
0	3161	1089.528600054648	7
0	3162	1089.96096110889	6
0	3163	1090.326646127925	5
0	3164	1090.333474410486	4
0	3165	1090.470778134558	3
0	3166	1091.31957454137	2
0	3168	1091.429757930436	3
0	3169	1092.637415252125	2
0	3171	1092.736120969101	3
0	3172	1093.010100791333	2
0	3173	1093.189670188197	1
0	3174	1093.429685557834	0
0	3176	1095.448741128615	1
0	3177	1095.799022970646	0
0	3179	1097.197744478535	1
0	3180	1097.28440399195	0
0	3182	1097.340677759905	1
0	3183	1097.704735423388	0
0	3185	1098.022423567537	1
0	3187	1098.094024084546	2
0	3188	1099.031714865893	1
0	3189	1099.280773431718	0
0	3191	1099.39260723797	1
0	3192	1099.781755548116	0
0	3194	1101.19261596531	1
0	3195	1101.395418401754	0
0	3197	1101.868641794762	1
0	3198	1102.261510189134	0
0	3200	1103.728072543648	1
0	3201	1104.829496749671	0
0	3203	1104.888919605899	1
0	3204	1106.303797074835	0
0	3206	1107.35264010685	1
0	3207	1108.041670734477	0
0	3209	1108.818585037058	1
0	3210	1109.074972109483	0
0	3212	1110.381531250401	1
0	3213	1111.570822585791	0
0	3215	1111.593640863525	1
0	3216	1113.125697731886	0
0	3218	1113.403828702275	1
0	3219	1113.540417182975	0
0	3221	1115.198463810437	1
0	3223	1116.900827227766	2
0	3225	1117.922145256107	3
0	3227	1117.962768803577	4
0	3229	1118.965271423212	5
0	3231	1119.158971697402	6
0	3233	1119.172965156208	7
0	3235	1119.217525286043	8
0	3236	1119.333858647568	7
0	3237	1119.963938243482	6
0	3238	1122.155767100123	5
0	3239	1122.222216017703	4
0	3240	1123.287420039026	3
0	3241	1123.370297691416	2
0	3243	1123.656030882277	3
0	3245	1123.656937968678	4
0	3246	1123.703172232725	3
0	3248	1123.900719748422	4
0	3249	1124.155640249669	3
0	3250	1124.918227286398	2
0	3251	1125.635907803442	1
0	3252	1126.653716622862	0
0	3254	1127.655611152638	1
0	3256	1128.145815136873	2
0	3257	1128.664447592128	1
0	3258	1132.124866084339	0
0	3260	1135.50618102089	1
0	3261	1136.178179397952	0
0	3263	1137.368765568626	1
0	3265	1138.179638920368	2
0	3267	1138.516749590517	3
0	3269	1138.676901417827	4
0	3270	1138.912180783384	3
0	3271	1138.976325635958	2
0	3273	1139.089014987888	3
0	3275	1139.235399200337	4
0	3277	1140.202063513059	5
0	3278	1142.454331856983	4
0	3280	1142.626885369956	5
0	3281	1142.83276564879	4
0	3283	1143.236138913256	5
0	3284	1145.321689501996	4
0	3286	1145.734025591594	5
0	3288	1145.953212089212	6
0	3289	1146.392996545402	5
0	3291	1146.832116316864	6
0	3292	1148.267148924884	5
0	3294	1148.784839234429	6
0	3296	1150.066081236162	7
0	3297	1150.672602651069	6
0	3299	1150.94721663063	7
0	3300	1151.16067660343	6
0	3302	1151.862535956524	7
0	3304	1152.000305454117	8
0	3305	1153.046534416431	7
0	3306	1153.183696133034	6
0	3308	1153.248391467948	7
0	3309	1153.72487026884	6
0	3311	1154.200551235267	7
0	3312	1154.543124492015	6
0	3313	1156.736320102884	5
0	3314	1157.592802304827	4
0	3315	1157.824424822979	3
0	3317	1158.031982558895	4
0	3318	1158.319752738583	3
0	3320	1158.491640505695	4
0	3322	1159.062229847035	5
0	3323	1159.087358027709	4
0	3324	1159.179340690229	3
0	3326	1159.935748679325	4
0	3328	1160.016099533111	5
0	3329	1160.330485104526	4
0	3330	1160.407049623363	3
0	3331	1160.408393767328	2
0	3333	1160.719119968347	3
0	3335	1160.800231843989	4
0	3336	1161.045132711183	3
0	3337	1161.11368368132	2
0	3339	1161.250510015456	3
0	3341	1162.312222174493	4
0	3343	1162.728946742082	5
0	3345	1162.789636866004	6
0	3347	1163.190184051151	7
0	3349	1163.304485559588	8
0	3350	1163.631878484711	7
0	3351	1163.941796626896	6
0	3352	1164.392775322316	5
0	3353	1164.587809355612	4
0	3354	1164.705797362184	3
0	3355	1164.859459750034	2
0	3356	1165.17911249196	1
0	3358	1165.542669287354	2
0	3359	1165.82119723125	1
0	3360	1165.988888121511	0
0	3362	1167.68876838913	1
0	3363	1168.505264719822	0
0	3365	1170.901077893016	1
0	3366	1171.285058302783	0
0	3368	1173.68176414447	1
0	3370	1173.729973350884	2
0	3372	1173.850489460685	3
0	3374	1173.881538289971	4
0	3376	1174.131191204912	5
0	3377	1174.212677173488	4
0	3378	1174.291419881674	3
0	3380	1174.403977641309	4
0	3381	1175.253422139524	3
0	3382	1175.9742807513	2
0	3383	1176.280659410365	1
0	3384	1178.815624247084	0
0	3386	1179.078263926074	1
0	3388	1179.154045785887	2
0	3389	1179.442792370195	1
0	3390	1180.63808188724	0
0	3392	1181.675411647948	1
0	3393	1181.789581109793	0
0	3395	1182.073960397757	1
0	3396	1182.582955471616	0
0	3398	1183.063341926176	1
0	3399	1183.258982790419	0
0	3401	1183.718297720245	1
0	3402	1183.85901093263	0
0	3404	1184.360683506895	1
0	3405	1184.89437786533	0
0	3407	1185.231317117758	1
0	3408	1186.074081018835	0
0	3410	1186.791262503207	1
0	3411	1188.192087544836	0
0	3413	1188.474585910949	1
0	3414	1188.923384725874	0
0	3416	1189.143567330661	1
0	3417	1189.656849170851	0
0	3419	1193.479634229762	1
0	3420	1193.553130462729	0
0	3422	1197.195670933637	1
0	3424	1198.426060406509	2
0	3425	1198.913344338006	1
0	3426	1199.156562313953	0
0	3428	1199.888209114561	1
0	3430	1199.953288647977	2
0	3432	1200.966781787107	3
0	3433	1202.099488372743	2
0	3435	1202.386130154388	3
0	3437	1202.50500244785	4
0	3438	1202.93572137911	3
0	3440	1203.808226097418	4
0	3441	1204.116549320216	3
0	3442	1204.26273947164	2
0	3444	1205.082602696429	3
0	3446	1205.118611041405	4
0	3448	1205.243570887668	5
0	3450	1205.264971709853	6
0	3452	1205.423160739907	7
0	3453	1205.470462512915	6
0	3455	1206.259164894935	7
0	3456	1206.555842090057	6
0	3457	1206.567643751391	5
0	3459	1208.243086254108	6
0	3461	1208.94062737457	7
0	3462	1209.756548667395	6
0	3464	1209.792471853595	7
0	3465	1210.700899400445	6
0	3466	1210.943106377392	5
0	3467	1210.971044888055	4
0	3469	1211.080523618141	5
0	3470	1211.450571978523	4
0	3472	1211.90829682336	5
0	3473	1212.575360297074	4
0	3474	1213.145041354457	3
0	3476	1213.209722065482	4
0	3477	1213.587652187131	3
0	3478	1214.053376260969	2
0	3479	1214.123253761711	1
0	3481	1214.408468571982	2
0	3482	1216.885586554918	1
0	3484	1218.133250942341	2
0	3485	1219.018026042489	1
0	3487	1219.999656639074	2
0	3489	1220.591127258468	3
0	3490	1220.776652601385	2
0	3491	1220.940509720739	1
0	3492	1222.279843434271	0
0	3494	1223.524251546703	1
0	3496	1223.914891511313	2
0	3498	1223.981696390311	3
0	3500	1224.012052765657	4
0	3502	1224.053080871742	5
0	3504	1224.154056731842	6
0	3506	1224.234788775956	7
0	3508	1224.825981753854	8
0	3509	1226.107087539003	7
0	3510	1227.179147732449	6
0	3511	1228.405384779455	5
0	3512	1228.521811998708	4
0	3514	1228.642520823667	5
0	3516	1229.955022221302	6
0	3517	1230.569796101164	5
0	3519	1230.718785251673	6
0	3520	1230.781402194088	5
0	3521	1231.568215899066	4
0	3522	1231.571987271092	3
0	3523	1231.918806888889	2
0	3524	1232.008582413995	1
0	3526	1232.113974422595	2
0	3528	1232.584882331116	3
0	3530	1232.763141230169	4
0	3531	1232.969419830319	3
0	3533	1233.702863219204	4
0	3535	1233.885158007445	5
0	3537	1234.014424831962	6
0	3538	1234.791266060114	5
0	3540	1234.955831256706	6
0	3541	1235.284935058918	5
0	3543	1235.448145383974	6
0	3544	1235.98661148227	5
0	3545	1237.047929297101	4
0	3546	1237.1516233231	3
0	3548	1239.238987358084	4
0	3550	1239.590064940045	5
0	3551	1239.610596000729	4
0	3553	1239.842022513206	5
0	3554	1240.452140217297	4
0	3555	1240.498873120448	3
0	3556	1240.798100509951	2
0	3557	1240.9428925294	1
0	3559	1240.965423596825	2
0	3560	1242.346972192728	1
0	3561	1242.797170253657	0
0	3563	1243.393966573948	1
0	3564	1243.553539799017	0
0	3566	1243.564248111151	1
0	3567	1243.586513923849	0
0	3569	1243.586912290174	1
0	3570	1243.874601877654	0
0	3572	1247.20055506672	1
0	3573	1247.557088424774	0
0	3575	1249.052018063502	1
0	3577	1249.094042060909	2
0	3578	1251.353592711221	1
0	3579	1251.793770008129	0
0	3581	1253.156237318026	1
0	3583	1253.264848422711	2
0	3585	1253.46311057113	3
0	3587	1253.643746805789	4
0	3588	1253.811681907866	3
0	3589	1253.965122545866	2
0	3591	1254.301064455325	3
0	3592	1255.134301019555	2
0	3593	1255.168617192651	1
0	3594	1255.501464996779	0
0	3596	1258.888321722082	1
0	3597	1259.694818225486	0
0	3599	1260.435570356996	1
0	3601	1260.734392626429	2
0	3602	1260.972837226014	1
0	3603	1261.18924597378	0
0	3605	1261.638930660452	1
0	3606	1261.738980661796	0
0	3608	1262.800366227775	1
0	3609	1263.763545555793	0
0	3611	1264.373011674047	1
0	3612	1264.703417035068	0
0	3614	1265.506471692364	1
0	3615	1265.937860002199	0
0	3617	1266.979240587888	1
0	3619	1267.454876034087	2
0	3620	1267.461372114014	1
0	3622	1267.700515346093	2
0	3624	1268.054355882431	3
0	3626	1268.437897714371	4
0	3627	1269.288097312859	3
0	3628	1269.497411320671	2
0	3629	1269.780337918646	1
0	3631	1269.805597131471	2
0	3632	1271.899173786592	1
0	3634	1272.228508587464	2
0	3636	1272.314079784983	3
0	3637	1272.521749403229	2
0	3639	1272.566544490351	3
0	3641	1272.58873083863	4
0	3642	1273.979444299627	3
0	3644	1274.187468379215	4
0	3645	1274.247816402296	3
0	3646	1274.649353978173	2
0	3648	1274.707776973486	3
0	3650	1275.050946138758	4
0	3652	1275.441353380232	5
0	3654	1275.559430133549	6
0	3656	1275.632794674868	7
0	3658	1276.305011887443	8
0	3660	1276.395268608892	9
0	3662	1276.445141320978	10
0	3663	1277.023501098083	9
0	3664	1277.081968708185	8
0	3666	1277.139721694503	9
0	3667	1277.34229560599	8
0	3669	1277.999785215386	9
0	3670	1279.635407604047	8
0	3671	1280.537606186041	7
0	3673	1281.103133188923	8
0	3675	1281.120782973302	9
0	3677	1282.323537790799	10
0	3678	1282.403813399907	9
0	3680	1282.649717545597	10
0	3681	1282.753830606258	9
0	3683	1282.848083252834	10
0	3684	1284.22219072283	9
0	3686	1284.522127400816	10
0	3688	1284.965454519124	11
0	3690	1285.031591716977	12
0	3691	1285.142510364524	11
0	3692	1285.477697767172	10
0	3694	1286.17438558795	11
0	3695	1286.251508834844	10
0	3697	1286.459095679407	11
0	3699	1286.53968894608	12
0	3701	1287.178236206214	13
0	3703	1287.397223546781	14
0	3704	1287.818696080557	13
0	3706	1288.671214281516	14
0	3708	1288.74334992587	15
0	3710	1288.802243311901	16
0	3711	1289.00491393269	15
0	3712	1289.121203561092	14
0	3714	1289.438910684366	15
0	3716	1289.453483581912	16
0	3717	1289.90853964534	15
0	3718	1289.937548118795	14
0	3720	1290.241652598186	15
0	3721	1290.424740847749	14
0	3723	1290.701284072679	15
0	3725	1292.689037640479	16
0	3726	1293.056324195889	15
0	3727	1293.53542625571	14
0	3728	1293.625519821571	13
0	3729	1293.761542883959	12
0	3731	1293.960770963186	13
0	3733	1293.993181961957	14
0	3734	1294.586351332769	13
0	3735	1294.686401204933	12
0	3736	1294.690845775313	11
0	3738	1294.773743777628	12
0	3739	1294.825340248095	11
0	3741	1294.922404794316	12
0	3743	1295.062439946322	13
0	3744	1295.356825643618	12
0	3746	1295.387197558827	13
0	3748	1297.01922366192	14
0	3749	1297.478917774108	13
0	3751	1297.553806478598	14
0	3753	1298.613170478802	15
0	3755	1298.97595870637	16
0	3757	1299.527266184803	17
0	3758	1299.542433963502	16
0	3759	1300.430475061413	15
0	3760	1300.822976376927	14
0	3761	1302.70490953265	13
0	3762	1302.715600964138	12
0	3763	1303.478576860498	11
0	3765	1304.186490636776	12
0	3767	1304.344445537667	13
0	3769	1304.781465891293	14
0	3770	1305.631311927416	13
0	3771	1305.822742591512	12
0	3773	1306.215313031564	13
0	3774	1307.313764770127	12
0	3775	1307.323834825084	11
0	3776	1307.746790560448	10
0	3777	1308.357094844039	9
0	3779	1308.598053426971	10
0	3781	1309.339133009541	11
0	3782	1309.452115799455	10
0	3783	1312.341512995609	9
0	3784	1312.670486759965	8
0	3785	1313.933217116418	7
0	3787	1314.373372171901	8
0	3788	1314.584462803865	7
0	3789	1314.641595664752	6
0	3790	1314.80949352094	5
0	3792	1314.83961945795	6
0	3793	1315.171441670238	5
0	3795	1315.184852678125	6
0	3797	1315.352274920494	7
0	3799	1315.520188845561	8
0	3800	1316.357955489982	7
0	3801	1316.472492777813	6
0	3802	1317.475541378929	5
0	3803	1317.7277682951	4
0	3805	1317.775352462209	5
0	3806	1318.243513706867	4
0	3807	1319.149131796497	3
0	3808	1319.338085367789	2
0	3809	1319.653286968846	1
0	3811	1319.6919572065	2
0	3812	1319.831493524419	1
0	3813	1320.401271503941	0
0	3815	1320.791410072913	1
0	3816	1320.793854395769	0
0	3818	1320.806110564367	1
0	3819	1321.079258318065	0
0	3821	1321.575016807138	1
0	3822	1321.597548567885	0
0	3824	1321.709104468182	1
0	3825	1322.130780166858	0
0	3827	1322.753492440664	1
0	3829	1322.971705579294	2
0	3831	1322.997091376042	3
0	3832	1323.012469622883	2
0	3834	1323.020409556669	3
0	3836	1323.277707640445	4
0	3837	1323.392097449253	3
0	3838	1323.572570627715	2
0	3839	1324.273109222999	1
0	3841	1324.287121939013	2
0	3843	1325.05069057757	3
0	3845	1325.067331832189	4
0	3846	1325.172822272017	3
0	3847	1325.238610290791	2
0	3848	1325.69203733173	1
0	3850	1326.018872450064	2
0	3852	1326.338294807638	3
0	3854	1326.480281111668	4
0	3856	1327.294213001457	5
0	3858	1328.342669182816	6
0	3860	1329.456961180449	7
0	3862	1329.612337801245	8
0	3863	1329.734570688525	7
0	3865	1329.74234808015	8
0	3866	1329.970656179751	7
0	3868	1329.97836316143	8
0	3869	1330.087356789644	7
0	3870	1330.14906468083	6
0	3871	1330.193319190302	5
0	3872	1330.460246613798	4
0	3874	1330.752766124913	5
0	3876	1331.365620078479	6
0	3877	1332.386875429859	5
0	3879	1332.601695913708	6
0	3880	1332.997346666254	5
0	3881	1333.360813225601	4
0	3882	1333.412443746872	3
0	3883	1333.416030518229	2
0	3884	1333.421109510977	1
0	3885	1333.652183364086	0
0	3887	1333.806592945438	1
0	3889	1333.853826875921	2
0	3890	1334.565822163766	1
0	3892	1335.083362065201	2
0	3894	1335.705501438521	3
0	3895	1335.887453463862	2
0	3897	1336.452886049457	3
0	3899	1336.915053959833	4
0	3901	1337.54426155745	5
0	3903	1337.619187330403	6
0	3904	1338.169163884021	5
0	3906	1338.51137537082	6
0	3907	1339.255544959465	5
0	3908	1339.337372462378	4
0	3910	1339.381661207726	5
0	3911	1340.166206709708	4
0	3913	1340.798921042065	5
0	3915	1340.879324016574	6
0	3917	1340.941398422916	7
0	3919	1342.095494585145	8
0	3920	1342.48545646382	7
0	3921	1343.882782047357	6
0	3923	1344.070887440383	7
0	3924	1344.087981513121	6
0	3925	1344.600160243506	5
0	3927	1344.770392426572	6
0	3928	1344.844104847987	5
0	3930	1345.0327631587	6
0	3931	1346.85378309679	5
0	3933	1347.0289143948	6
0	3934	1347.858819505232	5
0	3936	1348.027642991403	6
0	3937	1348.110208361942	5
0	3939	1348.67810260651	6
0	3941	1349.794208591269	7
0	3943	1351.708643809745	8
0	3944	1351.860260428403	7
0	3945	1352.409428219369	6
0	3946	1352.81351337807	5
0	3948	1353.095588208695	6
0	3950	1353.538233716966	7
0	3951	1354.228165864746	6
0	3952	1354.852582822477	5
0	3953	1355.480526929615	4
0	3955	1356.26897476724	5
0	3956	1356.327865288471	4
0	3957	1356.547248528716	3
0	3958	1356.689559492333	2
0	3960	1356.918505570358	3
0	3961	1357.014314435241	2
0	3963	1357.270931151421	3
0	3964	1357.312915175631	2
0	3966	1358.192440935519	3
0	3968	1358.256959570261	4
0	3969	1358.888843509124	3
0	3970	1359.119508486102	2
0	3972	1359.432006938457	3
0	3973	1359.721818254169	2
0	3975	1360.222080940069	3
0	3976	1360.329912136422	2
0	3978	1360.586509605804	3
0	3979	1360.669350478062	2
0	3980	1360.771008742624	1
0	3982	1360.779106963534	2
0	3984	1360.829241008822	3
0	3986	1361.08443690471	4
0	3987	1361.553585600474	3
0	3988	1361.962388856531	2
0	3989	1362.090535157766	1
0	3991	1362.285095418645	2
0	3992	1362.378679532871	1
0	3994	1362.434234575495	2
0	3995	1363.460578990887	1
0	3996	1363.489324982295	0
0	3998	1363.857691219934	1
0	3999	1364.219581817291	0
0	4001	1367.435144287804	1
0	4002	1367.865246814042	0
0	4004	1369.54547292171	1
0	4006	1369.68632233646	2
0	4007	1370.127215882894	1
0	4009	1370.621754668528	2
0	4010	1372.099435291912	1
0	4012	1372.143664220229	2
0	4013	1372.439971124857	1
0	4015	1373.742486351	2
0	4016	1374.008687466706	1
0	4018	1375.560425716088	2
0	4019	1375.566221081324	1
0	4020	1375.605089267019	0
0	4022	1375.761495340482	1
0	4023	1375.916882362957	0
0	4025	1378.658493188768	1
0	4026	1379.040751353925	0
0	4028	1379.078742834879	1
0	4029	1380.705547723496	0
0	4031	1381.443642746909	1
0	4032	1381.451648009173	0
0	4034	1381.952726994619	1
0	4035	1382.820134298482	0
0	4037	1382.907119777618	1
0	4039	1383.316139511422	2
0	4041	1383.333453050408	3
0	4042	1383.511377319601	2
0	4043	1383.671674640592	1
0	4045	1383.729613918328	2
0	4046	1383.955000311887	1
0	4047	1384.091253438506	0
0	4049	1384.134981741603	1
0	4050	1384.253157877134	0
0	4052	1385.164953956175	1
0	4053	1385.405547916889	0
0	4055	1386.639754658014	1
0	4056	1387.024163608186	0
0	4058	1388.439058616467	1
0	4060	1388.637906259654	2
0	4061	1388.908168033364	1
0	4063	1389.384139189385	2
0	4065	1389.579441154862	3
0	4066	1389.846169600678	2
0	4068	1390.886818778528	3
0	4069	1392.154787869164	2
0	4071	1392.158845973583	3
0	4072	1392.775213272169	2
0	4074	1393.055516428439	3
0	4075	1394.003433946791	2
0	4076	1394.19063066561	1
0	4078	1394.302237000628	2
0	4079	1394.462426389503	1
0	4081	1395.524412377847	2
0	4082	1395.620141405767	1
0	4084	1395.629599995585	2
0	4085	1396.136703803754	1
0	4087	1396.544997319744	2
0	4088	1397.225945971036	1
0	4089	1397.260678324074	0
0	4091	1397.478435412378	1
0	4093	1397.626875482148	2
0	4095	1398.597726653344	3
0	4096	1398.841873814715	2
0	4097	1400.038890012278	1
0	4098	1400.449412121539	0
0	4100	1400.569403966199	1
0	4102	1401.241691249957	2
0	4104	1401.425770742876	3
0	4105	1401.572945969983	2
0	4107	1403.383647548244	3
0	4109	1403.70566423851	4
0	4110	1404.187160887311	3
0	4112	1404.510177779746	4
0	4113	1405.009435399473	3
0	4115	1405.2748480394	4
0	4116	1405.954888648878	3
0	4118	1406.313573509363	4
0	4119	1406.693998334561	3
0	4120	1407.010140165218	2
0	4121	1407.072084311508	1
0	4122	1407.441141302964	0
0	4124	1407.446368799056	1
0	4125	1408.040204495444	0
0	4127	1408.41714328352	1
0	4128	1411.03393912616	0
0	4130	1411.055146354045	1
0	4131	1411.789794803064	0
0	4133	1412.207139102621	1
0	4135	1412.365407607518	2
0	4136	1412.399249220785	1
0	4138	1413.033987810708	2
0	4140	1413.083918513188	3
0	4141	1413.172017448838	2
0	4143	1413.219171363046	3
0	4144	1413.244174156136	2
0	4146	1414.16874080855	3
0	4147	1415.067640467816	2
0	4149	1415.433973750692	3
0	4150	1415.456510793754	2
0	4151	1415.777173107816	1
0	4153	1416.286186811231	2
0	4154	1416.48137569801	1
0	4155	1416.705438284611	0
0	4157	1417.004218213544	1
0	4159	1418.311161064633	2
0	4160	1418.483138301276	1
0	4162	1418.691506484338	2
0	4164	1418.893236037968	3
0	4165	1418.944132507033	2
0	4167	1419.047522955237	3
0	4168	1419.369431439018	2
0	4169	1420.137631947705	1
0	4171	1420.577137863568	2
0	4172	1421.057341875648	1
0	4174	1422.077132893082	2
0	4176	1422.143450687333	3
0	4177	1422.583703263708	2
0	4178	1422.879243201349	1
0	4180	1423.064059910208	2
0	4182	1423.202395433062	3
0	4183	1423.967062793408	2
0	4185	1424.075725535709	3
0	4187	1424.271576676427	4
0	4189	1424.289586341956	5
0	4191	1424.381601534513	6
0	4193	1424.946577984095	7
0	4195	1424.990744625181	8
0	4196	1425.842926066358	7
0	4197	1426.426139918292	6
0	4199	1426.844807326335	7
0	4200	1427.69155713118	6
0	4202	1427.888493420535	7
0	4204	1428.035962333722	8
0	4205	1428.086513848757	7
0	4206	1431.77913251701	6
0	4208	1431.815111528517	7
0	4210	1431.839145467574	8
0	4212	1432.383705625737	9
0	4213	1432.876863784502	8
0	4214	1433.207411228717	7
0	4215	1433.577830799971	6
0	4216	1433.602142751328	5
0	4218	1433.953228755522	6
0	4219	1434.043885686947	5
0	4220	1434.065047463353	4
0	4221	1434.079872530214	3
0	4223	1434.117617832722	4
0	4225	1434.28409664521	5
0	4227	1434.634494568595	6
0	4228	1436.236983300214	5
0	4229	1436.804016796281	4
0	4231	1437.198882663021	5
0	4233	1437.479123828383	6
0	4234	1437.957256411643	5
0	4235	1438.140734001997	4
0	4236	1438.280602876832	3
0	4238	1440.07678920289	4
0	4239	1440.993973227178	3
0	4241	1441.334000391192	4
0	4243	1442.162921598033	5
0	4245	1443.135463737582	6
0	4247	1443.849327223517	7
0	4248	1443.985644554198	6
0	4249	1444.06327295929	5
0	4251	1444.794367466937	6
0	4252	1444.817131976556	5
0	4253	1444.851140071373	4
0	4255	1445.558459989707	5
0	4256	1446.046167042079	4
0	4257	1446.628528858086	3
0	4258	1446.764862209214	2
0	4260	1449.735234451027	3
0	4262	1449.789797891527	4
0	4263	1450.046320097621	3
0	4265	1450.112639295579	4
0	4266	1450.712834312768	3
0	4267	1450.968938693062	2
0	4269	1451.258914242452	3
0	4271	1452.242806247496	4
0	4272	1452.581210697446	3
0	4273	1452.695451255452	2
0	4274	1452.794537858733	1
0	4275	1452.87046000422	0
0	4277	1453.177694453845	1
0	4279	1453.682012563103	2
0	4281	1454.053278628289	3
0	4282	1454.339211020978	2
0	4283	1454.342003346081	1
0	4284	1454.760018513587	0
0	4286	1455.38983156745	1
0	4287	1456.154922928432	0
0	4289	1456.950617122323	1
0	4290	1456.978034758238	0
0	4292	1457.39909763873	1
0	4293	1457.74771792029	0
0	4295	1458.201366472091	1
0	4296	1458.811799153607	0
0	4298	1459.966131199525	1
0	4300	1461.253280196021	2
0	4301	1461.338003442663	1
0	4303	1461.577152015548	2
0	4304	1462.888885271607	1
0	4305	1463.089396489264	0
0	4307	1463.294258090433	1
0	4308	1464.031878443158	0
0	4310	1464.472821482473	1
0	4312	1464.568487417456	2
0	4314	1464.804387303889	3
0	4315	1465.108079927916	2
0	4316	1465.327798905976	1
0	4317	1465.372545580536	0
0	4319	1466.432450879002	1
0	4320	1466.966312826295	0
0	4322	1467.86329980931	1
0	4323	1468.175250105103	0
0	4325	1468.364223540767	1
0	4326	1468.616743996496	0
0	4328	1469.095228192426	1
0	4330	1469.26491316191	2
0	4332	1469.535219182342	3
0	4333	1470.999980384994	2
0	4334	1471.489007632406	1
0	4336	1471.591118509776	2
0	4337	1472.228919293253	1
0	4339	1472.947826110127	2
0	4341	1472.975046604828	3
0	4343	1473.098958825133	4
0	4344	1475.218038239602	3
0	4346	1475.482473670835	4
0	4347	1475.716545980122	3
0	4348	1476.44216630017	2
0	4350	1476.730857879915	3
0	4352	1477.463163564482	4
0	4353	1478.582903632059	3
0	4355	1478.912410598078	4
0	4357	1479.714145775437	5
0	4358	1480.310602079225	4
0	4360	1480.4848548715	5
0	4362	1480.609800569138	6
0	4363	1480.654498669627	5
0	4364	1480.727577413858	4
0	4365	1480.787751792701	3
0	4367	1481.371678009466	4
0	4368	1481.937503551903	3
0	4369	1482.423439742018	2
0	4371	1482.82278854784	3
0	4372	1482.919801814317	2
0	4373	1483.631401258511	1
0	4375	1484.246630248025	2
0	4377	1484.3349426486	3
0	4379	1485.170098600097	4
0	4380	1485.699878057801	3
0	4381	1486.985411437855	2
0	4383	1487.743281904319	3
0	4385	1487.820843272071	4
0	4387	1488.481035007774	5
0	4389	1488.557714221159	6
0	4390	1488.610939539051	5
0	4392	1488.831210644536	6
0	4393	1488.978532423285	5
0	4394	1489.049494012285	4
0	4395	1489.636195380938	3
0	4396	1489.748432084282	2
0	4397	1491.50388887614	1
0	4399	1491.955172376042	2
0	4401	1492.287593879533	3
0	4403	1492.967380495222	4
0	4405	1493.241773449928	5
0	4407	1494.333221640454	6
0	4409	1494.460169769182	7
0	4411	1494.913716524117	8
0	4412	1495.117221322734	7
0	4414	1495.318364813357	8
0	4416	1495.760777108899	9
0	4417	1495.918918056365	8
0	4418	1496.474478395162	7
0	4419	1496.730208952703	6
0	4420	1496.889589823573	5
0	4422	1498.65103091616	6
0	4423	1499.035807386152	5
0	4424	1499.185321856759	4
0	4426	1499.806182345109	5
0	4427	1499.859988051328	4
0	4428	1500.056088724203	3
0	4430	1500.341273964418	4
0	4432	1500.713471898461	5
0	4433	1501.511973342029	4
0	4434	1501.551246401337	3
0	4435	1502.86526850096	2
0	4436	1503.632133084648	1
0	4437	1504.523111099861	0
0	4439	1506.739042873742	1
0	4441	1506.845857447755	2
0	4442	1506.91982682593	1
0	4443	1507.203946471964	0
0	4445	1509.009351993551	1
0	4446	1509.26283118774	0
0	4448	1509.410757993252	1
0	4450	1509.727109588302	2
0	4452	1509.853209270785	3
0	4453	1510.257798666806	2
0	4454	1510.477605020077	1
0	4455	1510.575682552749	0
0	4457	1511.349704192116	1
0	4458	1511.664646098536	0
0	4460	1515.079355118786	1
0	4462	1515.524238292524	2
0	4463	1515.965875265336	1
0	4465	1517.415523604975	2
0	4467	1517.99313069894	3
0	4468	1518.851678121931	2
0	4470	1519.005507793814	3
0	4472	1519.044595912486	4
0	4474	1519.119718137102	5
0	4475	1519.447515875354	4
0	4476	1519.722912766009	3
0	4477	1520.034919621345	2
0	4478	1521.264666002019	1
0	4480	1521.584804158277	2
0	4481	1521.731826045568	1
0	4482	1521.954513641084	0
0	4484	1522.161425204345	1
0	4486	1522.291209863919	2
0	4487	1522.429877451052	1
0	4488	1524.356688553862	0
0	4490	1524.538274302837	1
0	4491	1525.046043404127	0
0	4493	1527.780544024708	1
0	4494	1527.881786701873	0
0	4496	1528.737454701598	1
0	4497	1529.181632708934	0
0	4499	1530.348545217479	1
0	4500	1530.538438878921	0
0	4502	1530.847303347826	1
0	4503	1531.389417626037	0
0	4505	1531.664072281968	1
0	4506	1531.837032862938	0
0	4508	1532.130709794757	1
0	4509	1532.152536245282	0
0	4511	1536.107857702408	1
0	4513	1536.301532512933	2
[...]
8	4396	1489.748432084282	1.267397076508
8	4397	1491.50388887614	2.946174654981
8	4412	1495.117221322734	6.286010678198
8	4417	1495.918918056365	3.963745680323
8	4418	1496.474478395162	4.186884515629
8	4419	1496.730208952703	3.762828457481
8	4420	1496.889589823573	3.647816373645
8	4423	1499.035807386152	4.702585745698
8	4424	1499.185321856759	4.725152087577
8	4427	1499.859988051328	4.946271527211
8	4428	1500.056088724203	4.737723910846
8	4433	1501.511973342029	5.75119623313
8	4434	1501.551246401337	2.900215485177
8	4435	1502.86526850096	3.059086155851
8	4436	1503.632133084648	3.29085912023
8	4437	1504.523111099861	3.8096392014
8	4442	1506.91982682593	0.180783952188
8	4443	1507.203946471964	0.358089024209
8	4446	1509.26283118774	0.253479194189
8	4453	1510.257798666806	0.847040673554
8	4454	1510.477605020077	0.750495431775
8	4455	1510.575682552749	0.722473281964
8	4458	1511.664646098536	0.31494190642
8	4463	1515.965875265336	0.88652014655
8	4468	1518.851678121931	3.327439829407
8	4475	1519.447515875354	2.031992270379
8	4476	1519.722912766009	1.729782067069
8	4477	1520.034919621345	1.029411827531
8	4478	1521.264666002019	2.220070089533
8	4481	1521.731826045568	2.612107908466
8	4482	1521.954513641084	0.369709482807
8	4487	1522.429877451052	0.268452246707
8	4488	1524.356688553862	2.065478689943
8	4491	1525.046043404127	0.50776910129
8	4494	1527.881786701873	0.101242677165
8	4497	1529.181632708934	0.444178007336
8	4500	1530.538438878921	0.189893661442
8	4503	1531.389417626037	0.542114278211
8	4506	1531.837032862938	0.17296058097
8	4509	1532.152536245282	0.021826450525
8	4518	1537.01387030452	0.906012602112
8	4519	1537.105785250137	0.804252737204
8	4520	1537.553100476215	1.049712289317
8	4523	1539.091910262316	2.585471448026
8	4528	1540.234154815437	1.857274771785
8	4529	1540.388823570367	1.238441845208
8	4530	1541.278853578551	1.088951001297
8	4535	1541.587054140466	0.297625989208
8	4538	1542.215128308457	0.774781735044
8	4541	1543.166738805154	1.494588476773
8	4544	1544.259508168968	1.228436389876
8	4547	1544.648360186594	0.73519714493
8	4550	1545.081278437084	0.631314737414
8	4555	1545.495142012666	0.520814433416
8	4556	1545.748146845265	0.637333277465
8	4557	1545.779104838638	0.545932929078
8	4560	1547.536938890585	0.632738614368
8	4563	1548.120551624179	0.456156285076
8	4566	1548.442750643883	0.112135727939
8	4569	1550.776649995103	0.67653160318
8	4572	1551.838457543967	0.073872472141
8	4575	1553.154009606095	0.465999880644
8	4578	1558.400904952083	0.096672964813
8	4581	1559.193297644485	0.384492688288
8	4586	1560.657110057178	1.312469433068
8	4587	1560.809030555454	1.440680217038
8	4592	1561.405179337943	0.45787198545
8	4593	1561.796973908967	0.554066123974
8	4598	1564.922638291323	1.198857610863
8	4599	1564.964364938969	0.312700134497
8	4602	1568.815684293348	0.423502314447
8	4605	1569.819355427749	0.266340070716
8	4610	1572.071501547861	1.216692807447
8	4611	1572.078223603308	0.825365292393
8	4616	1572.837867948126	0.265851299797
8	4617	1572.980357134652	0.182908863141
8	4620	1573.551572292208	0.486662298022
8	4623	1574.588069141626	0.053982295272
8	4628	1575.577246915306	0.162493423229
8	4635	1577.687131884988	2.177060637072
8	4638	1578.47325259049	2.644617960313
8	4639	1579.0739655677	2.707258724479
8	4642	1579.897504078585	2.437393233051
8	4645	1580.105849995052	1.689204966205
8	4646	1580.125580352853	0.73314221822
8	4647	1580.890099939652	0.790231710615
8	4652	1582.167834956592	0.804295921382
8	4653	1582.411296168707	0.991495948651
8	4658	1584.114200924271	1.610005456314
8	4659	1584.95115164042	2.213873080547
8	4668	1589.135693456715	2.378833260978
8	4669	1589.714437577936	2.766963358071
8	4670	1589.724632777507	1.641142488644
8	4671	1590.128106939419	1.327972165735
8	4678	1592.377480810515	1.417324526633
8	4691	1594.257885504663	3.067463947085
8	4692	1594.779984120725	3.09337745008
8	4693	1595.70423768645	2.633282265225
8	4696	1596.818235232821	3.722681884219
8	4699	1599.165162801135	5.980427376862
8	4700	1599.40038903643	5.985271769913
8	4701	1599.655332586219	5.737932515099
8	4702	1599.773887040184	5.751480740149
8	4705	1600.161243468472	3.996504493864
8	4706	1600.639315418009	3.653499688892
8	4707	1601.526098585735	1.51435339883
8	4716	1604.598611366582	1.553591848558
8	4717	1605.378394478785	1.959686191381
8	4722	1605.714470388994	1.896856436069
8	4723	1605.968236744227	1.920789771461
8	4724	1606.3387803843	0.947482212075
8	4725	1606.418694578746	1.00660955086
8	4730	1608.653946924366	1.48627116102
8	4731	1610.064685408308	1.695720474779
8	4738	1615.176177050626	3.581944650847
8	4739	1615.507511790569	3.837952169483
8	4740	1617.430066993837	5.574148833464
8	4743	1617.75850803934	0.00093891693
8	4750	1619.347471924606	1.486918583821
8	4751	1620.290654752245	2.073300452901
8	4752	1620.964348535981	1.849204945131
8	4755	1622.724590829759	0.321367527599
8	4758	1623.565469408958	0.803478687431
8	4765	1625.101239690439	1.052920824901
8	4768	1625.227466595851	0.900204540249
8	4769	1625.329849461861	0.470818200156
8	4772	1626.304107678144	1.192850987277
8	4773	1626.542038317459	1.042848975292
8	4776	1629.256514905415	0.364316094648
8	4781	1631.953941022392	1.950055525626
8	4782	1632.295866638301	1.505021709757
8	4789	1634.216698656443	0.758540968554
8	4790	1634.433268457696	0.644584590643
8	4791	1634.849259006786	0.749883075893
8	4794	1635.567442359703	0.598929641152
8	4797	1637.56019717972	1.555715064002
8	4800	1637.783277407046	0.056046590466
8	4803	1639.190484940515	0.894280457838
8	4808	1640.554254936768	0.563299422001
8	4811	1640.712267115424	0.681948775966
8	4814	1641.915928232464	1.2240951964
8	4815	1642.168616624608	1.424314981188
8	4820	1642.570124208372	0.196343463147
8	4829	1644.269853836105	1.84949241182
8	4830	1644.38807369662	1.787507977499
8	4833	1646.59549817204	3.947598705544
8	4834	1647.061885184343	3.57223274178
8	4839	1648.031276743096	4.174885935396
8	4840	1648.43200491617	2.717002881009
8	4841	1649.039553954665	1.727378150091
8	4842	1650.037671539696	2.341016962839
8	4849	1652.509134816204	1.932973427345
8	4850	1652.57360751818	1.684014563584
8	4853	1653.43746407175	2.018615879244
8	4854	1654.621324051945	1.322226193656
8	4859	1657.036434448532	2.244347631983
8	4862	1657.930825878619	2.779443973063
8	4869	1658.908248585061	1.573514292476
8	4870	1659.379828765945	1.311101941174
8	4873	1659.57551179662	1.210391901102
8	4876	1659.959550910597	1.474412425937
8	4877	1661.631989248482	2.159355406206
8	4878	1662.695816251536	2.993293306301
8	4881	1663.389774684004	0.612735976083
8	4884	1664.489666644588	0.444538493281
8	4889	1665.237142378943	0.334516227591
8	4890	1665.30392743346	0.375512027437
8	4893	1666.423049317367	0.211871970758
8	4896	1666.697453156321	0.050810913181
8	4899	1667.025378880557	0.252867186532
8	4902	1667.142558192047	0.04873115592
8	4907	1668.24379931841	0.627254205887
8	4910	1668.321447935441	0.489214497775
8	4911	1668.35949169469	0.085665454706
8	4914	1668.675910952285	0.248378719084
8	4917	1670.307186074063	0.36258056124
8	4922	1671.033669357712	0.677959382137
8	4923	1671.269361259799	0.765928991547
8	4926	1672.106190343722	0.169788776017
8	4929	1673.473761908	0.081831766835
8	4934	1676.692812020857	2.099302124916
8	4937	1677.251639247119	1.863242772175
8	4938	1677.774685651304	0.77718202175
8	4941	1678.371903631579	0.351764987778
8	4944	1680.670445866754	1.094189256286
8	4951	1683.94720836178	1.684179163119
8	4956	1685.393248321075	3.050471359652
8	4959	1685.991697387172	2.192407708054
8	4970	1689.272375748558	5.041016319916
8	4971	1689.398477882647	4.397839304079
8	4972	1689.622121167619	3.714740306959
8	4973	1689.686614359596	3.45991554763
8	4978	1690.560467506484	2.54849929932
8	4979	1691.233124426223	2.726270023376
8	4980	1691.266275892632	2.481790668732
8	4981	1692.47544999665	3.426658345284
8	4982	1692.479737401437	2.371426439125
8	4985	1692.902034886574	2.493647283613
8	4992	1695.194915170931	2.504165884356
8	4993	1695.807033997385	2.070668282855
8	4994	1696.079286716387	2.277633607272
8	4997	1697.392773215091	3.112756619384
8	4998	1697.433374345501	0.323313037081
8	5007	1701.517857224771	0.843679173669
8	5008	1701.551012264045	0.863407303847
8	5009	1702.298809826853	1.356050453995
8	5012	1703.088953932237	1.778490962841
8	5017	1704.881577501182	2.337657269796
8	5020	1707.340856942492	3.641752185951
8	5021	1707.484746621363	3.470420413336
8	5024	1708.06765691045	2.186373391678
8	5025	1708.219386492668	0.24115033774
8	5028	1710.482403730532	0.191450630827
8	5033	1713.325093947567	2.317471164067
8	5036	1714.48310930325	2.255606377551
8	5039	1715.80031612193	1.384544894646
8	5040	1715.953099154077	1.357212828562
8	5043	1719.801826552593	3.009531512107
8	5046	1720.449220977242	0.257886071065
8	5051	1725.923229817724	0.596956303139
8	5056	1727.896919443725	2.298995765134
8	5057	1728.339599770947	1.296770286427
8	5066	1730.931689953304	3.410863314157
8	5071	1733.387826714555	4.877643356045
8	5072	1733.596605663127	4.424853750023
8	5075	1734.372486295813	4.539401246454
8	5078	1735.348119741647	4.99701522596
8	5079	1735.779371983801	3.344880643256
8	5080	1735.919186696772	2.756220109866
8	5081	1736.375022389712	2.54244485141
8	5082	1736.444718526541	2.022972546875
8	5087	1737.84416924815	0.521284640941
8	5088	1738.036118386249	0.594269282697
8	5093	1738.870644493638	0.049773004661
8	5096	1739.775678189031	0.914495944856
8	5097	1739.912041455877	0.223203117305
8	5104	1744.529907930351	2.137343924115
8	5107	1745.335655579672	2.634264100785
8	5114	1745.757781985389	1.59100390394
8	5115	1746.693893892556	2.127838761417
8	5118	1747.836146751856	2.340115724966
8	5119	1749.559436914278	3.894624557873
8	5122	1751.462521854582	5.770560951942
8	5125	1752.14599171833	4.992972993509
8	5126	1753.011106488798	2.492420335085
8	5127	1753.138369439424	1.51799972269
8	5130	1754.468235820674	1.086968463013
8	5133	1755.674373160089	0.933187908957
8	5136	1755.962499810817	0.24224571115
8	5139	1756.490802561414	0.140758769271
8	5142	1758.390792764141	1.694148513737
8	5145	1760.432100061542	0.60719830146
8	5158	1763.419659207426	2.300093758672
8	5159	1763.599845405359	2.305174581236
8	5160	1764.508836415696	2.557177667409
8	5161	1764.767567595177	2.434876459888
8	5162	1765.312764456279	2.734863434553
8	5163	1766.948734321289	3.763818644942
8	5170	1769.38516287731	1.232047698125
8	5171	1770.031911478631	1.836226467476
8	5176	1771.182042043489	1.908634311667
8	5183	1772.285007727705	1.736642159
8	5184	1772.388855254541	1.515907215489
8	5185	1772.520850110671	1.316383524844
8	5186	1773.01416751856	1.156155218727
8	5189	1773.486512733705	1.365124424126
8	5190	1773.560766429479	0.118099421797
8	5193	1774.815046606245	0.398633645237
8	5196	1779.033822930338	0.719953838614
8	5207	1783.24369405432	3.007763477346
8	5214	1784.827115942715	3.651594695675
8	5215	1785.90889528385	4.702197476481
8	5216	1786.982821668532	5.680577247233
8	5217	1788.368151119157	6.326718992581
8	5218	1788.463310712044	4.707573890892
8	5221	1789.376197466443	5.0353702775
8	5226	1791.090136529524	6.650766241484
8	5229	1791.145710887794	2.582616855124
8	5234	1792.106632804505	2.292129937382
8	5235	1793.33007049216	3.070812062782
8	5236	1794.344130111686	3.205941676501
8	5237	1795.37849960493	4.134602212932
8	5242	1795.972309880051	4.095481676446
8	5247	1796.932662392714	1.391825019425
8	5250	1798.29593978208	2.753344552341
8	5251	1798.742421049308	2.582708980172
8	5252	1799.023017890683	2.110482232867
8	5253	1799.277471692093	1.70487259693
8	5258	1800.294225169426	0.754186473343
8	5261	1800.83971124076	0.551009368952
8	5266	1801.78786075303	0.960017485869
8	5267	1802.204626660086	1.084195137008
8	5270	1802.628069353072	1.198922389888
8	5271	1802.717666157809	0.241908323772
8	5274	1804.229473308075	0.675839025476
8	5279	1806.005826681971	1.184771711677
8	5284	1807.705238582964	2.319055110627
8	5287	1808.57284022576	2.253151489298
8	5288	1808.65417914989	1.13814766959
8	5291	1808.784681695135	0.382059254813
8	5294	1809.722248597239	1.00521593371
8	5295	1810.481780953659	1.21779512536
8	5308	1814.810681194485	4.006014355829
8	5315	1817.204529582252	5.3452436844
8	5318	1818.058830077626	5.547809532803
8	5321	1818.66707567452	6.082370416107
8	5322	1818.691288236669	5.784009310968
8	5323	1818.728006806019	5.366579790924
8	5324	1819.636020964137	4.148717929604
8	5329	1822.366269847298	6.857769823822
8	5332	1825.000116804857	8.077462858851
8	5335	1825.837788192423	8.061584121457
8	5336	1825.84611904118	7.490636428998
8	5337	1826.369862874832	5.156932209934
8	5338	1826.561015547198	5.110621642648
8	5345	1829.013469553228	4.877155584123
8	5346	1830.185643401609	4.578269585369
8	5349	1830.657805227002	3.800596922121
8	5350	1831.37619540533	4.214815950653
8	5351	1831.568842326187	3.65073287182
8	5358	1832.322819773121	2.015943113946
8	5359	1832.325706601886	0.507674415112
8	5362	1832.98064832926	0.944661428689
8	5365	1834.24858143227	1.946731707039
8	5366	1834.313614011567	1.382559439802
8	5369	1834.44204213172	1.168992864567
8	5372	1834.905855498365	0.484349488613
8	5379	1836.18131043944	1.34126288647
8	5380	1836.246746286667	1.092770225641
8	5381	1836.314589674491	0.565876412545
8	5386	1838.62299104284	2.748962195684
8	5387	1839.42576025519	1.405652562854
8	5388	1839.565201034235	1.288809396413
8	5391	1839.892770068556	0.018973325244
8	5404	1843.270169070309	3.300016106315
8	5407	1844.290840993536	3.597819956375
8	5410	1845.003614627213	3.619849018625
8	5411	1845.014910697671	2.899901960564
8	5412	1845.326312035738	2.553455324595
8	5417	1847.14269347449	4.174693539311
8	5420	1847.558382138935	3.663207367008
8	5421	1848.267894909139	3.911097838011
8	5422	1848.372874437004	2.763837137701
8	5425	1849.63222563142	2.865690033927
8	5428	1852.009200332962	4.736424128696
8	5433	1854.070388513621	4.656071491992
8	5438	1854.552907828067	3.40108116931
8	5439	1855.243859425725	3.157002231538
8	5440	1855.890098654417	2.806053725732
8	5445	1856.529981516271	2.201116138843
8	5446	1856.853713330116	2.479635952329
8	5451	1858.962325880594	3.01937122498
8	5454	1859.395249068032	3.069865945243
8	5455	1860.336010493083	2.914003867315
8	5458	1861.008936857125	3.469981166369
8	5461	1862.266886158148	2.936895281953
8	5464	1863.389182619388	2.522272918388
8	5465	1863.954048294848	1.940113762148
8	5466	1863.995452106937	0.967386606191
8	5473	1869.196694835095	4.12604444827
8	5476	1870.218492376632	3.906549597772
8	5477	1870.879952089253	2.484376382728
8	5478	1871.730810654529	1.637799993367
8	5481	1872.716225687371	0.121607716878
8	5484	1875.14567939893	0.070220375131
8	5487	1876.498713788354	0.03332930429
8	5492	1877.612522863459	0.60606063265
8	5497	1879.086661239578	2.069588282585
8	5498	1879.090226245152	1.117798503717
8	5499	1879.167566250611	0.388504458847
8	5504	1880.82154439096	1.202158355547
8	5505	1881.528603896789	1.809837975306
8	5508	1883.553508134147	0.442431690342
8	5511	1885.632033599349	0.5529416402
8	5516	1887.280312937553	0.967653333823
8	5521	1888.628407573263	1.686827325197
8	5522	1889.01863763193	1.219524409942
8	5523	1889.387767165677	1.575152182191
8	5530	1890.977739473357	1.20706002716
8	5531	1891.122413496258	0.914329365942
8	5534	1892.757810971239	2.3803240941
8	5537	1892.915201255702	0.865901164465
8	5538	1892.976546091892	0.191441197394
8	5541	1894.528568379695	0.099982962865
8	5544	1896.442665558649	1.805344021476
8	5549	1897.818270438636	0.586026547716
8	5550	1898.078594745571	0.271076743063
8	5553	1898.849115942143	0.059061929637
8	5556	1899.711813910647	0.615522316448
8	5559	1900.799464086703	0.436590824026
8	5562	1901.070507842991	0.051626812084
8	5565	1901.332657676555	0.209801365013
8	5568	1901.996107789324	0.33376656151
8	5571	1902.148494416379	0.12274324687
8	5576	1902.939987033675	0.586868086327
8	5579	1903.99010707411	1.51957959341
8	5582	1904.704137201524	1.502770328603
8	5591	1905.985828702453	1.874091211025
8	5592	1906.324193616486	1.619288422624
8	5593	1907.404969658441	2.098822597561
8	5594	1908.391267616882	2.631695675889
8	5595	1908.792862639755	2.817433721029
8	5598	1910.682913221468	0.888166729004
8	5603	1911.519800432835	0.513773460531
8	5604	1912.465440638392	1.121983595405
8	5607	1914.137995483519	1.015527675292
8	5610	1914.669957081082	0.11966064612
8	5615	1915.55694584646	0.824292465869
8	5616	1916.52195167292	1.71312398465
8	5621	1917.392669120138	0.611484890139
8	5626	1917.862436998533	0.796607182596
8	5627	1918.081553844474	0.667215749049
8	5628	1918.770570153014	1.308998834973
8	5631	1919.397396161472	0.231624518351
8	5634	1920.489471688217	0.350715653744
8	5639	1921.758852557473	0.639261125724
8	5642	1922.465851747738	0.88895851042
8	5645	1923.708627773001	1.405412079768
8	5646	1923.711280521008	0.388953662446
8	5649	1924.281289371957	0.37877871051
8	5652	1924.569736819383	0.052286933282
8	5657	1927.229530591241	0.661973236077
8	5658	1927.297580096185	0.650461561147
8	5667	1931.166324541515	3.625981260912
8	5668	1931.721518282153	4.047295700761
8	5669	1932.073858757746	2.8176178091
8	5670	1932.709806965539	2.340268167343
8	5677	1934.945327074168	1.261797033559
8	5682	1935.905258630935	1.703792878664
8	5683	1936.610568609711	2.216868671334
8	5686	1937.096150884029	1.487642519353
8	5687	1937.48903985518	1.589587963458
8	5690	1938.132441763201	1.28924466673
8	5691	1938.70326222206	0.845828701546
8	5696	1939.621819237912	0.268070819061
8	5697	1939.677879751296	0.123989975163
8	5704	1943.687066002888	2.338585676624
8	5705	1944.392457440724	2.88329986231
8	5708	1945.838466448041	3.305456897761
8	5711	1947.268055137325	1.830824872275
8	5712	1947.666989164255	1.241751813768
8	5715	1948.694211492474	0.056869072681
8	5720	1951.58321023413	2.166509613738
8	5725	1952.416246326577	0.872927322586
8	5726	1952.420307411905	0.705437400498
8	5727	1952.462150541121	0.453402690115
8	5730	1953.360926978294	0.54253372639
8	5735	1953.659600813666	0.095993315505
8	5736	1954.039448726535	0.396318116905
8	5743	1955.09935092776	0.787532331575
8	5748	1956.389473562156	1.837260985373
8	5749	1957.001504212791	2.412265125295
8	5750	1957.420381801136	1.84280095198
8	5751	1957.588383161978	1.976153782921
8	5756	1958.252802935027	0.272833979071
8	5757	1958.590284751911	0.439889041017
8	5766	1960.976581877851	2.160431819325
8	5767	1961.073144080522	1.74575948203
8	5768	1961.079559210192	0.964711667412
8	5773	1962.019275585921	1.716773359823
8	5774	1962.197390016066	0.677443068408
8	5775	1963.109651785933	1.543955282934
8	5780	1966.573792615921	1.437366210756
8	5785	1969.192211831558	3.506409775078
8	5796	1972.003946388775	5.171910332705
8	5799	1972.936367287748	4.634843974226
8	5802	1973.630434757068	3.968583714157
8	5803	1975.629954585814	5.935348025248
8	5812	1979.265523976322	8.579131193601
8	5813	1980.564123702567	8.935282390778
8	5818	1981.937958209276	10.241463463738
8	5821	1982.636497137434	10.516121408903
8	5822	1983.016465940873	9.873914301435
8	5823	1983.640303456657	6.919320778339
8	5826	1984.709572152726	7.536757967742
8	5827	1984.792872367357	6.272907186902
8	5828	1984.887213672781	6.30861417311
8	5831	1985.038748953364	4.284070936464
8	5838	1985.503170295621	4.482256781738
8	5841	1986.243427997696	3.70887385275
8	5842	1986.248926385295	2.296733791514
8	5843	1986.630256102664	1.654925156252
8	5844	1988.133537407606	3.006132835175
8	5845	1988.233947158791	3.040507692175
8	5852	1989.117039032808	3.858513847416
8	5853	1990.442607417923	4.630106764095
8	5854	1990.490755587777	1.720812655017
8	5855	1990.861902272794	2.030232291377
8	5856	1991.718453114267	2.692425191214
8	5861	1991.955967946512	0.059052538979
8	5862	1992.096585742298	0.186865868624
8	5865	1992.936785966585	0.089065302928
8	5870	1993.863602875153	0.266919891276
8	5871	1993.912275607106	0.115405185401
8	5874	1994.942637354445	0.229573549954
8	5879	1995.208134386282	0.195912102428
8	5884	1996.311344548204	1.181796255283
8	5887	1996.956647665986	1.407934265927
8	5892	1998.167756502512	2.571968370024
8	5895	1998.727526303652	2.099299057183
8	5896	1998.773659000661	1.707383419545
8	5897	1998.952348268527	1.552250523341
9	5898	2000	0.9825
10	5898	2000	0

