version 2
run theoretical_model-8-20230312-12:23:38-10766
attr configname theoretical_model
attr datetime 20230312-12:23:38
attr experiment theoretical_model
attr inifile omnetpp.ini
attr iterationvars ""
attr iterationvarsf ""
attr measurement ""
attr network Network
attr processid 10766
attr repetition 8
attr replication #8
attr resultdir results
attr runnumber 8
attr seedset 8
param *.minion.arrival_distribution 0
param *.minion.service_distribution 0
param *.minion.arrival_mean 0
param *.minion.service_mean 0
param *.boss.arrival_distribution 0
param *.boss.service_distribution 0
param *.boss.arrival_mean 1
param *.boss.service_mean 0.8

scalar Network.player boss_throughput:mean 0.99566666666667
attr source signal_boss_throughput
scalar Network.player boss_throughput:last 0.99566666666667
attr source signal_boss_throughput
scalar Network.player boss_defeated_stat:count 2988
attr source signal_boss_defeated
scalar Network.player boss_defeated_stat:mean 1493.5
attr source signal_boss_defeated
scalar Network.player boss_waiting_time_stat:mean 3.0993043909844
attr source signal_boss_waiting_time
scalar Network.player boss_response_time_stat:mean 3.911131068014
attr source signal_boss_response_time
scalar Network.player minion_throughput:mean 0
attr source signal_minion_throughput
scalar Network.player minion_throughput:last 0
attr source signal_minion_throughput
scalar Network.player minion_recovered_stat:count 1
attr source signal_minion_recovered
scalar Network.player minion_recovered_stat:mean 0
attr source signal_minion_recovered
scalar Network.player minion_defeated_stat:count 1
attr source signal_minion_defeated
scalar Network.player minion_defeated_stat:mean 0
attr source signal_minion_defeated
scalar Network.player minion_waiting_time_stat:mean -nan
attr source signal_minion_waiting_time
scalar Network.player minion_response_time_stat:mean -nan
attr source signal_minion_response_time

