file 56510 1678221198                                           
version 2
run analysis_2kr_hard_game_mode-81-20230307-21:33:18-5483
attr configname analysis_2kr_hard_game_mode
attr datetime 20230307-21:33:18
attr experiment analysis_2kr_hard_game_mode
attr inifile omnetpp.ini
attr iterationvars "$0=25, $1=7.5, $2=10, $3=3.5, $4=0"
attr iterationvarsf 25,7.5,10,3.5,0-
attr measurement "$0=25, $1=7.5, $2=10, $3=3.5, $4=0"
attr network Network
attr processid 5483
attr repetition 1
attr replication #1
attr resultdir results
attr runnumber 81
attr seedset 1
param *.boss.arrival_mean 25
param *.boss.service_mean 7.5
param *.minion.arrival_mean 10
param *.minion.service_mean 3.5
param *.player.recover_rate_x 0
param **.minion.arrival_distribution 0
param **.minion.service_distribution 0
param **.boss.arrival_distribution 0
param **.boss.service_distribution 0

vector 0 Network.player minion_jobs_number_stat:vector ETV
attr source signal_minion_jobs_number
vector 1 Network.player minion_jobs_queue_number_stat:vector ETV
attr source signal_minion_jobs_queue_number
vector 2 Network.player minion_waiting_time_stat:vector ETV
attr source signal_minion_waiting_time
vector 3 Network.player boss_jobs_number_stat:vector ETV
attr source signal_boss_jobs_number
vector 4 Network.player boss_jobs_queue_number_stat:vector ETV
attr source signal_boss_jobs_queue_number
vector 5 Network.player minion_recovered_stat:vector ETV
attr source signal_minion_recovered
vector 6 Network.player boss_waiting_time_stat:vector ETV
attr source signal_boss_waiting_time
vector 7 Network.player boss_defeated_stat:vector ETV
attr source signal_boss_defeated
vector 8 Network.player boss_response_time_stat:vector ETV
attr source signal_boss_response_time
vector 9 Network.player minion_defeated_stat:vector ETV
attr source signal_minion_defeated
vector 10 Network.player minion_response_time_stat:vector ETV
attr source signal_minion_response_time
vector 11 Network.player minion_throughput:vector ETV
attr source signal_minion_throughput
vector 12 Network.player boss_throughput:vector ETV
attr source signal_boss_throughput
0	2048 5671 116 1000 354.557151855681 2480.108407740282 222 1 9 511 1725
1	7719 11312 116 1004 354.557151855681 2485.333626187555 443 0 8 578 1850
2	19031 8926 116 1004 354.557151855681 2485.333626187555 256 0 36.701483103182 1909.7530918567 31898.387122381
3	27957 1940 118 1006 354.757849584372 2491.799713292694 76 1 2 85 103
4	29897 3861 118 1006 354.757849584372 2491.799713292694 151 0 1 18 18
5	33758 922 118 1006 354.757849584372 2491.799713292694 35 3 37 700 17570
6	34680 2057 118 1006 354.757849584372 2491.799713292694 76 0 18.48777933373 60.385279291866 666.54508910931
7	36737 1996 119 1003 359.97327927152 2483.910917174453 75 13 87 3750 222650
8	38733 2908 119 1003 359.97327927152 2483.910917174453 75 0.120287157022 32.781189414974 546.48813694497 7483.2670238864
9	41641 6010 120 1004 360.375783242142 2485.333626187555 221 27 247 30277 5047419
10	47651 8818 120 1004 360.375783242142 2485.333626187555 221 0.043562919821 40.232403152361 2421.5871415173 42641.066011756
11	56469 20 1007 1007 2500 2500 1 0.0988 0.0988 0.0988 0.00976144
12	56489 20 1007 1007 2500 2500 1 0.0348 0.0348 0.0348 0.00121104

