version 2
run analysis_2kr_hard_game_mode-136-20230307-21:33:29-5760
attr configname analysis_2kr_hard_game_mode
attr datetime 20230307-21:33:29
attr experiment analysis_2kr_hard_game_mode
attr inifile omnetpp.ini
attr iterationvars "$0=25, $1=10, $2=10, $3=7, $4=100"
attr iterationvarsf 25,10,10,7,100-
attr measurement "$0=25, $1=10, $2=10, $3=7, $4=100"
attr network Network
attr processid 5760
attr repetition 1
attr replication #1
attr resultdir results
attr runnumber 136
attr seedset 1
param *.boss.arrival_mean 25
param *.boss.service_mean 10
param *.minion.arrival_mean 10
param *.minion.service_mean 7
param *.player.recover_rate_x 100
param **.minion.arrival_distribution 0
param **.minion.service_distribution 0
param **.boss.arrival_distribution 0
param **.boss.service_distribution 0

vector 0 Network.player minion_jobs_number_stat:vector ETV
attr source signal_minion_jobs_number
vector 1 Network.player minion_jobs_queue_number_stat:vector ETV
attr source signal_minion_jobs_queue_number
vector 2 Network.player boss_jobs_number_stat:vector ETV
attr source signal_boss_jobs_number
vector 3 Network.player boss_jobs_queue_number_stat:vector ETV
attr source signal_boss_jobs_queue_number
vector 4 Network.player minion_recovered_stat:vector ETV
attr source signal_minion_recovered
vector 5 Network.player boss_waiting_time_stat:vector ETV
attr source signal_boss_waiting_time
vector 6 Network.player boss_defeated_stat:vector ETV
attr source signal_boss_defeated
vector 7 Network.player boss_response_time_stat:vector ETV
attr source signal_boss_response_time
vector 8 Network.player minion_waiting_time_stat:vector ETV
attr source signal_minion_waiting_time
vector 9 Network.player minion_defeated_stat:vector ETV
attr source signal_minion_defeated
vector 10 Network.player minion_response_time_stat:vector ETV
attr source signal_minion_response_time
vector 11 Network.player minion_throughput:vector ETV
attr source signal_minion_throughput
vector 12 Network.player boss_throughput:vector ETV
attr source signal_boss_throughput
0	105	354.557151855681	12
0	111	363.823894831212	12
0	113	365.613274632813	13
0	115	370.585233872072	14
0	122	379.681710898725	13
0	128	396.392065199602	13
0	130	396.482332329256	14
0	133	405.963380670505	14
0	137	410.850292778012	15
0	139	413.949212177533	16
0	141	414.400860177836	17
0	148	424.726697612854	17
0	155	456.111867721576	16
0	161	472.775236854993	16
0	165	478.504847620427	15
0	167	478.696928021011	16
0	176	508.451775855767	12
0	178	508.857708167273	13
0	183	524.28980936815	14
0	189	553.294729384193	12
0	193	573.415496850299	13
0	196	579.327708019238	14
0	198	581.229214307217	15
0	202	587.051509254189	14
0	205	587.830568865482	14
0	209	588.51024789307	15
0	211	597.69174064835	16
0	213	599.625904239714	17
0	217	601.464798297421	18
0	224	621.555207288251	18
0	231	634.774522045433	18
0	242	653.323311617842	15
0	244	658.573298451177	16
0	252	684.49641219479	15
0	255	692.002243623595	15
0	261	712.428054766382	14
0	264	740.165402144317	15
0	270	758.199070333875	12
0	272	765.574160589746	13
0	274	768.598356354349	14
0	276	769.743416064392	15
0	278	770.107547801784	16
0	280	771.829954097869	17
0	283	774.42754541804	17
0	285	782.306578941402	18
0	287	784.678757195726	19
0	289	792.11062420985	20
0	291	794.103925195273	21
0	294	804.254275049714	21
0	297	808.053947914704	21
0	302	813.187159306011	19
0	304	815.945202965973	20
0	308	826.437857566554	21
0	310	831.143790537557	22
0	312	836.200513181557	23
0	314	846.215295774186	24
0	318	855.994726423543	24
0	320	858.518294259223	25
0	323	873.102858222541	25
0	325	874.596576772936	26
0	328	876.56858066659	26
0	332	885.172340007252	25
0	336	889.881592834636	26
0	338	894.21520461275	27
0	341	901.197466405341	28
0	343	907.503892790405	29
0	346	919.108782958971	29
0	349	923.552397120488	29
0	351	926.478400633381	30
0	353	927.346722870158	31
0	360	935.437711264658	30
0	363	938.35340222437	30
0	369	948.159850924412	29
0	371	948.645510515757	30
0	378	971.23130375891	30
0	383	997.739497752726	30
0	385	1002.247055797812	31
0	387	1004.940780636881	32
0	390	1015.089663101238	33
0	392	1031.744717209477	34
0	394	1033.869800367338	35
0	396	1035.218628114189	36
0	400	1042.10607936867	37
0	402	1042.89333419035	38
0	404	1044.907710098221	39
0	406	1056.478227078671	40
0	411	1081.535408919244	41
0	418	1110.924019657824	38
0	421	1116.577226252923	38
0	423	1120.370427437659	39
0	429	1138.101066537554	39
0	436	1158.997769375823	40
0	439	1164.389614103138	41
0	444	1176.368381827385	42
0	453	1199.872236254162	38
0	457	1204.278596782078	39
0	459	1209.467598345595	40
0	462	1232.961859612421	41
0	464	1236.984180589291	42
0	466	1241.706954241873	43
0	471	1250.196517913514	44
0	480	1268.951555771959	42
0	485	1287.623521008735	40
0	490	1300.845123160787	41
0	495	1320.578965987141	41
0	498	1332.584785782388	42
0	501	1341.640472899657	42
0	505	1352.712257866263	43
0	507	1353.596872460635	44
0	509	1354.430462899995	45
0	513	1363.525267817574	46
0	515	1363.98202022208	47
0	517	1366.79840673552	48
0	520	1367.798799028257	49
0	524	1380.988650301259	50
0	526	1383.440373029984	51
0	538	1405.945167179226	51
0	544	1422.396675441742	50
0	546	1429.627255756317	51
0	548	1430.685088772856	52
0	552	1439.937483048556	51
0	554	1440.601567088654	52
0	557	1441.274379830186	52
0	564	1470.089611214683	48
0	566	1477.856523929648	49
0	568	1479.634303538207	50
0	570	1481.017581247421	51
0	576	1489.97936585555	52
0	579	1499.513136980461	53
0	592	1529.541644465283	53
0	596	1534.061715485615	52
0	598	1538.630925993558	53
0	602	1553.230681240834	52
0	604	1553.449239273142	53
0	606	1553.946754001386	54
0	611	1561.300505661371	55
0	613	1562.463800429604	56
0	615	1566.131236080638	57
0	617	1577.652101419888	58
0	625	1595.558615324041	56
0	627	1602.787541439405	57
0	634	1629.290346216222	56
0	638	1637.768291493497	55
0	640	1639.148682106153	56
0	644	1657.708909622613	55
0	648	1675.495492245268	54
0	650	1682.1846757928	55
0	654	1697.637724245331	54
0	657	1714.252640392117	54
0	662	1725.952996459446	52
0	667	1733.091468649534	50
0	673	1743.602300963212	50
0	683	1769.737070293725	49
0	689	1797.429649869354	46
0	695	1808.423608925901	45
0	697	1811.117469180127	46
0	699	1812.727691339913	47
0	701	1819.29507133408	48
0	703	1823.829339928366	49
0	712	1850.05842958545	47
0	720	1870.140801328938	45
0	723	1872.093750590139	45
0	725	1876.405968623866	46
0	727	1878.066848027262	47
0	730	1880.162037838015	47
0	737	1914.482613606068	46
0	742	1920.880977758516	47
0	745	1924.746660298332	47
0	748	1929.7353207484	47
0	753	1951.433106009163	47
0	755	1961.080825932835	48
0	758	1968.963691792235	49
0	760	1974.704298001108	50
0	762	1979.34222648922	51
0	764	1982.36574677823	52
0	766	1983.838293113229	53
0	771	1989.156610482477	53
0	773	1990.350194517302	54
0	776	1995.780825651345	55
0	779	1996.531113902884	55
0	784	2019.802131646665	53
0	786	2021.949410744452	54
0	792	2060.879589853667	53
0	794	2060.908898717302	54
0	796	2070.679099586889	55
0	800	2091.617982071237	55
0	802	2092.486468161446	56
0	811	2120.154046587702	52
0	815	2133.359064701743	53
0	817	2140.34363870594	54
0	822	2151.696984518615	54
0	827	2165.460219418262	54
0	838	2182.948533678196	53
0	843	2189.646182425831	51
0	845	2193.914878067786	52
0	847	2193.954164107906	53
0	851	2194.561011312908	54
0	854	2200.766102351387	55
0	856	2210.22901050779	56
0	859	2211.800957408794	56
0	863	2213.125016198576	55
0	866	2216.818198176185	55
0	873	2231.069777978458	54
0	876	2245.062037414236	54
0	880	2260.881398963393	53
0	888	2274.961049532209	53
0	890	2280.214129127697	54
0	893	2305.165130442435	55
0	904	2333.953071763477	53
0	912	2360.789919575655	51
0	915	2362.698859064813	51
0	918	2363.643523370556	51
0	924	2392.218169230268	51
0	926	2394.39108518217	52
0	929	2400.655127529596	52
0	931	2408.898363050178	53
0	936	2423.295046423066	51
0	938	2423.399860528197	52
0	942	2437.376253249859	51
0	944	2439.988562019943	52
0	950	2479.732826589049	49
0	952	2480.108407740282	50
1	105	354.557151855681	11
1	109	363.167137595082	11
1	111	363.823894831212	11
1	113	365.613274632813	12
1	115	370.585233872072	13
1	116	374.729234300943	13
1	117	375.318547925737	12
1	122	379.681710898725	12
1	123	388.495442130304	12
1	128	396.392065199602	12
1	130	396.482332329256	13
1	131	396.590137694295	13
1	133	405.963380670505	13
1	137	410.850292778012	14
1	139	413.949212177533	15
1	141	414.400860177836	16
1	143	418.044848746542	16
1	148	424.726697612854	16
1	149	425.210592752066	16
1	153	447.642072369465	15
1	155	456.111867721576	15
1	159	469.471016181919	15
1	161	472.775236854993	15
1	162	475.677151309296	15
1	163	477.919421893851	14
1	165	478.504847620427	14
1	167	478.696928021011	15
1	168	489.0092280094	15
1	169	490.607681659325	14
1	170	494.351538113525	13
1	171	495.23917940604	12
1	172	503.632026964234	11
1	176	508.451775855767	11
1	178	508.857708167273	12
1	183	524.28980936815	13
1	185	538.043025961492	13
1	186	540.891515260203	12
1	187	546.083103679224	11
1	189	553.294729384193	11
1	193	573.415496850299	12
1	196	579.327708019238	13
1	198	581.229214307217	14
1	199	581.279831319131	14
1	200	582.763135971185	13
1	202	587.051509254189	13
1	203	587.505927005718	13
1	205	587.830568865482	13
1	209	588.51024789307	14
1	211	597.69174064835	15
1	213	599.625904239714	16
1	217	601.464798297421	17
1	220	617.698010123328	17
1	224	621.555207288251	17
1	229	630.736090507763	17
1	231	634.774522045433	17
1	232	642.213186084248	17
1	233	644.558420648826	16
1	234	645.244512825477	15
1	238	649.991077173218	14
1	242	653.323311617842	14
1	244	658.573298451177	15
1	246	665.486954282445	15
1	250	681.894809602847	14
1	252	684.49641219479	14
1	253	688.235995243336	14
1	255	692.002243623595	14
1	256	703.842054560461	14
1	257	705.109459032277	13
1	261	712.428054766382	13
1	264	740.165402144317	14
1	265	744.033160322883	14
1	266	744.41018912562	13
1	267	750.178357736451	12
1	268	750.380883883956	11
1	270	758.199070333875	11
1	272	765.574160589746	12
1	274	768.598356354349	13
1	276	769.743416064392	14
1	278	770.107547801784	15
1	280	771.829954097869	16
1	281	772.952803848377	16
1	283	774.42754541804	16
1	285	782.306578941402	17
1	287	784.678757195726	18
1	289	792.11062420985	19
1	291	794.103925195273	20
1	292	795.760717684005	20
1	294	804.254275049714	20
1	295	807.840666263029	20
1	297	808.053947914704	20
1	298	808.505063019995	20
1	299	809.96642306599	19
1	300	811.194256091527	18
1	302	813.187159306011	18
1	304	815.945202965973	19
1	308	826.437857566554	20
1	310	831.143790537557	21
1	312	836.200513181557	22
1	314	846.215295774186	23
1	316	849.522864656741	23
1	318	855.994726423543	23
1	320	858.518294259223	24
1	321	870.799016582653	24
1	323	873.102858222541	24
1	325	874.596576772936	25
1	326	875.34161214174	25
1	328	876.56858066659	25
1	329	876.943591951471	25
1	330	885.027995270374	24
1	332	885.172340007252	24
1	336	889.881592834636	25
1	338	894.21520461275	26
1	341	901.197466405341	27
1	343	907.503892790405	28
1	344	911.528339303559	28
1	346	919.108782958971	28
1	347	922.111805347054	28
1	349	923.552397120488	28
1	351	926.478400633381	29
1	353	927.346722870158	30
1	354	928.813870386407	30
1	355	928.976271402716	29
1	360	935.437711264658	29
1	361	937.99238885797	29
1	363	938.35340222437	29
1	364	941.206246794611	29
1	365	941.217751434392	28
1	369	948.159850924412	28
1	371	948.645510515757	29
1	373	954.891804574655	29
1	378	971.23130375891	29
1	379	972.065129728993	29
1	383	997.739497752726	29
1	385	1002.247055797812	30
1	387	1004.940780636881	31
1	390	1015.089663101238	32
1	392	1031.744717209477	33
1	394	1033.869800367338	34
1	396	1035.218628114189	35
1	400	1042.10607936867	36
1	402	1042.89333419035	37
1	404	1044.907710098221	38
1	406	1056.478227078671	39
1	411	1081.535408919244	40
1	413	1083.04888065533	40
1	414	1085.148085235326	39
1	415	1094.072848300838	38
1	416	1105.426854831611	37
1	418	1110.924019657824	37
1	419	1113.125387463184	37
1	421	1116.577226252923	37
1	423	1120.370427437659	38
1	427	1125.172322371129	38
1	429	1138.101066537554	38
1	436	1158.997769375823	39
1	439	1164.389614103138	40
1	444	1176.368381827385	41
1	445	1179.121402983502	41
1	446	1179.136919675107	40
1	447	1185.133399764717	39
1	448	1189.57079359997	38
1	449	1195.638655753592	37
1	453	1199.872236254162	37
1	457	1204.278596782078	38
1	459	1209.467598345595	39
1	462	1232.961859612421	40
1	464	1236.984180589291	41
1	466	1241.706954241873	42
1	471	1250.196517913514	43
1	473	1251.918355677955	43
1	477	1258.623180250851	42
1	478	1264.362457537662	41
1	480	1268.951555771959	41
1	481	1276.126456908328	41
1	482	1279.05128011169	40
1	483	1284.96215853743	39
1	485	1287.623521008735	39
1	490	1300.845123160787	40
1	491	1303.198527954965	40
1	495	1320.578965987141	40
1	498	1332.584785782388	41
1	499	1338.594482913762	41
1	501	1341.640472899657	41
1	505	1352.712257866263	42
1	507	1353.596872460635	43
1	509	1354.430462899995	44
1	513	1363.525267817574	45
1	515	1363.98202022208	46
1	517	1366.79840673552	47
1	520	1367.798799028257	48
1	524	1380.988650301259	49
1	526	1383.440373029984	50
1	529	1398.191245976719	50
1	538	1405.945167179226	50
1	541	1418.160524180223	50
1	542	1418.367330134011	49
1	544	1422.396675441742	49
1	546	1429.627255756317	50
1	548	1430.685088772856	51
1	549	1437.466477281227	51
1	550	1438.099977434382	50
1	552	1439.937483048556	50
1	554	1440.601567088654	51
1	555	1440.707371491793	51
1	557	1441.274379830186	51
1	558	1454.417321315633	51
1	559	1455.24450185225	50
1	560	1459.745894470957	49
1	561	1461.771299703725	48
1	562	1462.220915954787	47
1	564	1470.089611214683	47
1	566	1477.856523929648	48
1	568	1479.634303538207	49
1	570	1481.017581247421	50
1	576	1489.97936585555	51
1	579	1499.513136980461	52
1	590	1524.612488245682	52
1	592	1529.541644465283	52
1	593	1531.605745929492	52
1	594	1533.398924697853	51
1	596	1534.061715485615	51
1	598	1538.630925993558	52
1	599	1540.385118003644	52
1	600	1552.260016018689	51
1	602	1553.230681240834	51
1	604	1553.449239273142	52
1	606	1553.946754001386	53
1	611	1561.300505661371	54
1	613	1562.463800429604	55
1	615	1566.131236080638	56
1	617	1577.652101419888	57
1	618	1579.881447316271	57
1	619	1585.725745229084	56
1	620	1589.264091904173	55
1	625	1595.558615324041	55
1	627	1602.787541439405	56
1	631	1619.412933310959	56
1	632	1622.803384915789	55
1	634	1629.290346216222	55
1	635	1634.498944842607	55
1	636	1637.015717766126	54
1	638	1637.768291493497	54
1	640	1639.148682106153	55
1	641	1655.306420973047	55
1	642	1656.825951056396	54
1	644	1657.708909622613	54
1	645	1673.888915025066	54
1	646	1674.156852036681	53
1	648	1675.495492245268	53
1	650	1682.1846757928	54
1	651	1683.487843023631	54
1	652	1695.681060838575	53
1	654	1697.637724245331	53
1	655	1698.719711767182	53
1	657	1714.252640392117	53
1	658	1717.069807106659	53
1	659	1719.085426165842	52
1	660	1719.778004515281	51
1	662	1725.952996459446	51
1	663	1727.847253809241	51
1	664	1730.982739985404	50
1	665	1732.061860567382	49
1	667	1733.091468649534	49
1	671	1741.54205706497	49
1	673	1743.602300963212	49
1	674	1747.390701918286	49
1	675	1752.923835943817	48
1	683	1769.737070293725	48
1	684	1779.567141834741	48
1	685	1780.76291842749	47
1	686	1781.130397213669	46
1	687	1793.777691748115	45
1	689	1797.429649869354	45
1	690	1798.270520536951	45
1	691	1799.734063777588	44
1	695	1808.423608925901	44
1	697	1811.117469180127	45
1	699	1812.727691339913	46
1	701	1819.29507133408	47
1	703	1823.829339928366	48
1	708	1840.26191015905	48
1	709	1847.485433299787	47
1	710	1849.44612437761	46
1	712	1850.05842958545	46
1	713	1850.455163227066	46
1	714	1861.551367862281	45
1	718	1869.18437614049	44
1	720	1870.140801328938	44
1	721	1871.872369481351	44
1	723	1872.093750590139	44
1	725	1876.405968623866	45
1	727	1878.066848027262	46
1	728	1879.002139299918	46
1	730	1880.162037838015	46
1	731	1882.807074443982	46
1	735	1894.018575664632	45
1	737	1914.482613606068	45
1	742	1920.880977758516	46
1	743	1921.57098234213	46
1	745	1924.746660298332	46
1	746	1927.702059723263	46
1	748	1929.7353207484	46
1	749	1943.196920035436	46
1	753	1951.433106009163	46
1	755	1961.080825932835	47
1	758	1968.963691792235	48
1	760	1974.704298001108	49
1	762	1979.34222648922	50
1	764	1982.36574677823	51
1	766	1983.838293113229	52
1	767	1985.198474674627	52
1	771	1989.156610482477	52
1	773	1990.350194517302	53
1	776	1995.780825651345	54
1	777	1996.287319196071	54
1	779	1996.531113902884	54
1	780	1996.909941238183	54
1	781	1997.739001821963	53
1	782	2009.415311251864	52
1	784	2019.802131646665	52
1	786	2021.949410744452	53
1	787	2022.400664981212	53
1	788	2025.363720716012	52
1	792	2060.879589853667	52
1	794	2060.908898717302	53
1	796	2070.679099586889	54
1	798	2074.953987335076	54
1	800	2091.617982071237	54
1	802	2092.486468161446	55
1	803	2095.945148341761	55
1	804	2098.990016487655	54
1	805	2099.733977407122	53
1	806	2104.366335016479	52
1	807	2107.751181246203	51
1	811	2120.154046587702	51
1	815	2133.359064701743	52
1	817	2140.34363870594	53
1	820	2151.195401898328	53
1	822	2151.696984518615	53
1	823	2154.460543802481	53
1	827	2165.460219418262	53
1	829	2166.910841048456	53
1	830	2170.161916371318	52
1	838	2182.948533678196	52
1	839	2183.296934416173	52
1	840	2183.384060255815	51
1	841	2186.101187023016	50
1	843	2189.646182425831	50
1	845	2193.914878067786	51
1	847	2193.954164107906	52
1	851	2194.561011312908	53
1	854	2200.766102351387	54
1	856	2210.22901050779	55
1	857	2210.976750521616	55
1	859	2211.800957408794	55
1	860	2211.851788118248	55
1	861	2212.676266525039	54
1	863	2213.125016198576	54
1	864	2215.796830358586	54
1	866	2216.818198176185	54
1	867	2220.351992251802	54
1	871	2230.36175221403	53
1	873	2231.069777978458	53
1	874	2243.640660279264	53
1	876	2245.062037414236	53
1	877	2254.640306735664	53
1	878	2259.701770532584	52
1	880	2260.881398963393	52
1	884	2272.680238588217	52
1	888	2274.961049532209	52
1	890	2280.214129127697	53
1	893	2305.165130442435	54
1	897	2313.095811932527	54
1	901	2331.556616807418	53
1	902	2331.700831884754	52
1	904	2333.953071763477	52
1	908	2351.237706574562	52
1	909	2357.188256589937	51
1	910	2357.572501305468	50
1	912	2360.789919575655	50
1	913	2361.282365598131	50
1	915	2362.698859064813	50
1	916	2363.26199708218	50
1	918	2363.643523370556	50
1	922	2380.011305647962	50
1	924	2392.218169230268	50
1	926	2394.39108518217	51
1	927	2399.715769092635	51
1	929	2400.655127529596	51
1	931	2408.898363050178	52
1	932	2411.031060684733	52
1	933	2417.943627204821	51
1	934	2418.331935719224	50
1	936	2423.295046423066	50
1	938	2423.399860528197	51
1	939	2427.980928670103	51
1	940	2429.460106010668	50
1	942	2437.376253249859	50
1	944	2439.988562019943	51
1	945	2460.245084290572	51
1	946	2468.43270119969	50
1	947	2472.648413386446	49
1	948	2478.888520538123	48
1	950	2479.732826589049	48
1	952	2480.108407740282	49
1	956	2490.009265131187	49
2	107	354.757849584372	1
2	119	378.20040898439	1
2	125	391.767237284278	1
2	135	410.663899489857	1
2	145	420.87844282726	1
2	151	437.363164677891	1
2	157	461.719069146592	1
2	174	505.32321760767	1
2	181	519.735845114752	1
2	191	554.899595016344	1
2	207	588.183587634031	1
2	215	600.539994800195	2
2	222	618.787162636242	1
2	227	625.641959344216	1
2	236	647.26162552967	1
2	240	651.490296628691	1
2	248	677.406252787069	1
2	259	709.61990692432	1
2	306	825.316222675048	1
2	334	886.708287626157	1
2	357	929.558561205755	1
2	367	945.573669883936	1
2	375	958.900490531521	1
2	381	987.269736988034	1
2	398	1039.510600199808	1
2	409	1079.962591761471	1
2	425	1123.360225363677	1
2	431	1138.680972658333	1
2	433	1140.081333291793	2
2	441	1168.090105665538	1
2	451	1199.792867917209	1
2	455	1203.79252994237	2
2	468	1244.301280812866	2
2	475	1255.345249120624	1
2	487	1288.678940749462	1
2	493	1312.63780748306	1
2	503	1343.509929233885	1
2	511	1358.117719725472	2
2	522	1377.581907498264	2
2	531	1399.029644146794	1
2	533	1402.362905933047	2
2	535	1404.579349620298	3
2	572	1483.622424288542	1
2	574	1489.939424025676	2
2	582	1502.846113433367	1
2	584	1508.990117586892	2
2	587	1515.104122808249	2
2	608	1558.76306890363	1
2	622	1590.345158181845	1
2	629	1605.760989798109	1
2	669	1734.54049907613	1
2	677	1754.265017155247	1
2	679	1761.644908105008	2
2	693	1800.378156450047	1
2	705	1828.194118418841	2
2	716	1861.857583627929	1
2	733	1884.702798397291	1
2	739	1916.535653582672	1
2	751	1948.122721673178	1
2	769	1988.088419027561	1
2	790	2057.34302269493	1
2	809	2110.747846604462	1
2	813	2121.587123076923	2
2	825	2164.680957283682	1
2	832	2171.994440221103	1
2	835	2181.124409608105	1
2	849	2193.998284129532	1
2	869	2228.197383202115	1
2	882	2262.5082264203	1
2	886	2274.792759052252	1
2	895	2306.98301209186	1
2	899	2322.839297228415	1
2	906	2335.865733288868	1
2	920	2366.81641764498	1
2	954	2480.441470532125	1
2	958	2491.799713292694	1
3	107	354.757849584372	0
3	108	361.711755833903	0
3	119	378.20040898439	0
3	120	379.107793232952	0
3	125	391.767237284278	0
3	126	392.515023768906	0
3	135	410.663899489857	0
3	142	416.100353145271	0
3	145	420.87844282726	0
3	146	424.004189353441	0
3	151	437.363164677891	0
3	152	437.523547553921	0
3	157	461.719069146592	0
3	158	468.648191198745	0
3	174	505.32321760767	0
3	179	512.82599854466	0
3	181	519.735845114752	0
3	184	531.10615405678	0
3	191	554.899595016344	0
3	194	575.210030013082	0
3	207	588.183587634031	0
3	215	600.539994800195	1
3	218	604.466688445159	1
3	219	608.483998054497	0
3	222	618.787162636242	0
3	225	623.582711743059	0
3	227	625.641959344216	0
3	228	630.633273846522	0
3	236	647.26162552967	0
3	237	647.943732423412	0
3	240	651.490296628691	0
3	245	662.709016516399	0
3	248	677.406252787069	0
3	249	680.80507162066	0
3	259	709.61990692432	0
3	262	720.777001112119	0
3	306	825.316222675048	0
3	315	849.350616773653	0
3	334	886.708287626157	0
3	339	898.551021487337	0
3	357	929.558561205755	0
3	358	931.958729200996	0
3	367	945.573669883936	0
3	372	949.819735407698	0
3	375	958.900490531521	0
3	376	964.917552679557	0
3	381	987.269736988034	0
3	388	1013.795162035767	0
3	398	1039.510600199808	0
3	407	1066.276991061201	0
3	409	1079.962591761471	0
3	412	1083.008619668766	0
3	425	1123.360225363677	0
3	426	1123.612369926121	0
3	431	1138.680972658333	0
3	433	1140.081333291793	1
3	434	1152.574471989084	1
3	437	1161.751111778835	0
3	441	1168.090105665538	0
3	442	1171.032394388471	0
3	451	1199.792867917209	0
3	455	1203.79252994237	1
3	460	1229.776123062397	1
3	468	1244.301280812866	1
3	469	1248.834003170723	1
3	472	1251.451585135418	0
3	475	1255.345249120624	0
3	476	1257.257492961987	0
3	487	1288.678940749462	0
3	488	1296.630516482177	0
3	493	1312.63780748306	0
3	496	1328.280708657612	0
3	503	1343.509929233885	0
3	511	1358.117719725472	1
3	518	1367.493003382596	1
3	522	1377.581907498264	1
3	527	1395.239606108904	1
3	528	1396.668723699211	0
3	531	1399.029644146794	0
3	533	1402.362905933047	1
3	535	1404.579349620298	2
3	536	1404.986687762787	2
3	539	1412.397728831106	1
3	540	1417.253362363346	0
3	572	1483.622424288542	0
3	574	1489.939424025676	1
3	577	1497.501775685204	1
3	580	1501.925274952609	0
3	582	1502.846113433367	0
3	584	1508.990117586892	1
3	585	1513.90288257315	1
3	587	1515.104122808249	1
3	588	1516.051606344692	1
3	589	1522.358079812213	0
3	608	1558.76306890363	0
3	609	1559.821941824099	0
3	622	1590.345158181845	0
3	623	1592.637391789213	0
3	629	1605.760989798109	0
3	630	1612.351093212601	0
3	669	1734.54049907613	0
3	670	1741.288973372195	0
3	677	1754.265017155247	0
3	679	1761.644908105008	1
3	680	1763.776517068729	1
3	681	1768.434795688899	0
3	693	1800.378156450047	0
3	705	1828.194118418841	1
3	706	1830.588318158959	1
3	707	1837.077729497598	0
3	716	1861.857583627929	0
3	717	1866.146298426652	0
3	733	1884.702798397291	0
3	734	1889.258132865506	0
3	739	1916.535653582672	0
3	740	1919.772404143155	0
3	751	1948.122721673178	0
3	756	1966.319250149646	0
3	769	1988.088419027561	0
3	774	1994.003460697483	0
3	790	2057.34302269493	0
3	797	2071.981150535588	0
3	809	2110.747846604462	0
3	813	2121.587123076923	1
3	818	2142.428183373815	1
3	819	2146.196882353585	0
3	825	2164.680957283682	0
3	828	2166.660308187009	0
3	832	2171.994440221103	0
3	833	2180.495382415176	0
3	835	2181.124409608105	0
3	836	2182.664266896962	0
3	849	2193.998284129532	0
3	852	2197.22860054052	0
3	869	2228.197383202115	0
3	870	2229.069403672684	0
3	882	2262.5082264203	0
3	883	2268.538420102077	0
3	886	2274.792759052252	0
3	891	2282.716582311001	0
3	895	2306.98301209186	0
3	896	2311.336767542443	0
3	899	2322.839297228415	0
3	900	2326.552967014187	0
3	906	2335.865733288868	0
3	907	2346.577634661125	0
3	920	2366.81641764498	0
3	921	2370.139303784438	0
3	954	2480.441470532125	0
3	955	2485.067399388562	0
3	958	2491.799713292694	0
4	107	354.757849584372	5
4	119	378.20040898439	6
4	125	391.767237284278	7
4	135	410.663899489857	8
4	145	420.87844282726	9
4	151	437.363164677891	10
4	157	461.719069146592	11
4	174	505.32321760767	12
4	181	519.735845114752	13
4	191	554.899595016344	14
4	207	588.183587634031	15
4	222	618.787162636242	16
4	227	625.641959344216	17
4	236	647.26162552967	18
4	240	651.490296628691	19
4	248	677.406252787069	20
4	259	709.61990692432	21
4	306	825.316222675048	22
4	334	886.708287626157	23
4	357	929.558561205755	24
4	367	945.573669883936	25
4	375	958.900490531521	26
4	381	987.269736988034	27
4	398	1039.510600199808	28
4	409	1079.962591761471	29
4	425	1123.360225363677	30
4	431	1138.680972658333	31
4	441	1168.090105665538	32
4	451	1199.792867917209	33
4	475	1255.345249120624	34
4	487	1288.678940749462	35
4	493	1312.63780748306	36
4	503	1343.509929233885	37
4	531	1399.029644146794	38
4	572	1483.622424288542	39
4	582	1502.846113433367	40
4	608	1558.76306890363	41
4	622	1590.345158181845	42
4	629	1605.760989798109	43
4	669	1734.54049907613	44
4	677	1754.265017155247	45
4	693	1800.378156450047	46
4	716	1861.857583627929	47
4	733	1884.702798397291	48
4	739	1916.535653582672	49
4	751	1948.122721673178	50
4	769	1988.088419027561	51
4	790	2057.34302269493	52
4	809	2110.747846604462	53
4	825	2164.680957283682	54
4	832	2171.994440221103	55
4	835	2181.124409608105	56
4	849	2193.998284129532	57
4	869	2228.197383202115	58
4	882	2262.5082264203	59
4	886	2274.792759052252	60
4	895	2306.98301209186	61
4	899	2322.839297228415	62
4	906	2335.865733288868	63
4	920	2366.81641764498	64
4	954	2480.441470532125	65
4	958	2491.799713292694	66
5	107	354.757849584372	0
5	119	378.20040898439	0
5	125	391.767237284278	0
5	135	410.663899489857	0
5	145	420.87844282726	0
5	151	437.363164677891	0
5	157	461.719069146592	0
5	174	505.32321760767	0
5	181	519.735845114752	0
5	191	554.899595016344	0
5	207	588.183587634031	0
5	218	604.466688445159	3.926693644964
5	222	618.787162636242	0
5	227	625.641959344216	0
5	236	647.26162552967	0
5	240	651.490296628691	0
5	248	677.406252787069	0
5	259	709.61990692432	0
5	306	825.316222675048	0
5	334	886.708287626157	0
5	357	929.558561205755	0
5	367	945.573669883936	0
5	375	958.900490531521	0
5	381	987.269736988034	0
5	398	1039.510600199808	0
5	409	1079.962591761471	0
5	425	1123.360225363677	0
5	431	1138.680972658333	0
5	434	1152.574471989084	12.493138697291
5	441	1168.090105665538	0
5	451	1199.792867917209	0
5	460	1229.776123062397	25.983593120027
5	469	1248.834003170723	4.532722357857
5	475	1255.345249120624	0
5	487	1288.678940749462	0
5	493	1312.63780748306	0
5	503	1343.509929233885	0
5	518	1367.493003382596	9.375283657124
5	527	1395.239606108904	17.65769861064
5	531	1399.029644146794	0
5	536	1404.986687762787	2.62378182974
5	539	1412.397728831106	7.818379210808
5	572	1483.622424288542	0
5	577	1497.501775685204	7.562351659528
5	582	1502.846113433367	0
5	585	1513.90288257315	4.912764986258
5	588	1516.051606344692	0.947483536443
5	608	1558.76306890363	0
5	622	1590.345158181845	0
5	629	1605.760989798109	0
5	669	1734.54049907613	0
5	677	1754.265017155247	0
5	680	1763.776517068729	2.131608963721
5	693	1800.378156450047	0
5	706	1830.588318158959	2.394199740118
5	716	1861.857583627929	0
5	733	1884.702798397291	0
5	739	1916.535653582672	0
5	751	1948.122721673178	0
5	769	1988.088419027561	0
5	790	2057.34302269493	0
5	809	2110.747846604462	0
5	818	2142.428183373815	20.841060296892
5	825	2164.680957283682	0
5	832	2171.994440221103	0
5	835	2181.124409608105	0
5	849	2193.998284129532	0
5	869	2228.197383202115	0
5	882	2262.5082264203	0
5	886	2274.792759052252	0
5	895	2306.98301209186	0
5	899	2322.839297228415	0
5	906	2335.865733288868	0
5	920	2366.81641764498	0
5	954	2480.441470532125	0
5	958	2491.799713292694	0
6	108	361.711755833903	13
6	120	379.107793232952	14
6	126	392.515023768906	15
6	142	416.100353145271	16
6	146	424.004189353441	17
6	152	437.523547553921	18
6	158	468.648191198745	19
6	179	512.82599854466	20
6	184	531.10615405678	21
6	194	575.210030013082	22
6	218	604.466688445159	23
6	219	608.483998054497	24
6	225	623.582711743059	25
6	228	630.633273846522	26
6	237	647.943732423412	27
6	245	662.709016516399	28
6	249	680.80507162066	29
6	262	720.777001112119	30
6	315	849.350616773653	31
6	339	898.551021487337	32
6	358	931.958729200996	33
6	372	949.819735407698	34
6	376	964.917552679557	35
6	388	1013.795162035767	36
6	407	1066.276991061201	37
6	412	1083.008619668766	38
6	426	1123.612369926121	39
6	434	1152.574471989084	40
6	437	1161.751111778835	41
6	442	1171.032394388471	42
6	460	1229.776123062397	43
6	469	1248.834003170723	44
6	472	1251.451585135418	45
6	476	1257.257492961987	46
6	488	1296.630516482177	47
6	496	1328.280708657612	48
6	518	1367.493003382596	49
6	527	1395.239606108904	50
6	528	1396.668723699211	51
6	536	1404.986687762787	52
6	539	1412.397728831106	53
6	540	1417.253362363346	54
6	577	1497.501775685204	55
6	580	1501.925274952609	56
6	585	1513.90288257315	57
6	588	1516.051606344692	58
6	589	1522.358079812213	59
6	609	1559.821941824099	60
6	623	1592.637391789213	61
6	630	1612.351093212601	62
6	670	1741.288973372195	63
6	680	1763.776517068729	64
6	681	1768.434795688899	65
6	706	1830.588318158959	66
6	707	1837.077729497598	67
6	717	1866.146298426652	68
6	734	1889.258132865506	69
6	740	1919.772404143155	70
6	756	1966.319250149646	71
6	774	1994.003460697483	72
6	797	2071.981150535588	73
6	818	2142.428183373815	74
6	819	2146.196882353585	75
6	828	2166.660308187009	76
6	833	2180.495382415176	77
6	836	2182.664266896962	78
6	852	2197.22860054052	79
6	870	2229.069403672684	80
6	883	2268.538420102077	81
6	891	2282.716582311001	82
6	896	2311.336767542443	83
6	900	2326.552967014187	84
6	907	2346.577634661125	85
6	921	2370.139303784438	86
6	955	2485.067399388562	87
7	108	361.711755833903	6.953906249531
7	120	379.107793232952	0.907384248562
7	126	392.515023768906	0.747786484628
7	142	416.100353145271	5.436453655414
7	146	424.004189353441	3.125746526181
7	152	437.523547553921	0.16038287603
7	158	468.648191198745	6.929122052153
7	179	512.82599854466	7.50278093699
7	184	531.10615405678	11.370308942028
7	194	575.210030013082	20.310434996738
7	218	604.466688445159	16.283100811128
7	219	608.483998054497	7.944003254302
7	225	623.582711743059	4.795549106817
7	228	630.633273846522	4.991314502306
7	237	647.943732423412	0.682106893742
7	245	662.709016516399	11.218719887708
7	249	680.80507162066	3.398818833591
7	262	720.777001112119	11.157094187799
7	315	849.350616773653	24.034394098605
7	339	898.551021487337	11.84273386118
7	358	931.958729200996	2.400167995241
7	372	949.819735407698	4.246065523762
7	376	964.917552679557	6.017062148036
7	388	1013.795162035767	26.525425047733
7	407	1066.276991061201	26.766390861393
7	412	1083.008619668766	3.046027907295
7	426	1123.612369926121	0.252144562444
7	434	1152.574471989084	13.893499330751
7	437	1161.751111778835	21.669778487042
7	442	1171.032394388471	2.942288722933
7	460	1229.776123062397	29.983255145188
7	469	1248.834003170723	45.041473228353
7	472	1251.451585135418	7.150304322552
7	476	1257.257492961987	1.912243841363
7	488	1296.630516482177	7.951575732715
7	496	1328.280708657612	15.642901174552
7	518	1367.493003382596	23.983074148711
7	527	1395.239606108904	37.121886383432
7	528	1396.668723699211	19.086816200947
7	536	1404.986687762787	5.957043615993
7	539	1412.397728831106	10.034822898059
7	540	1417.253362363346	12.674012743048
7	577	1497.501775685204	13.879351396662
7	580	1501.925274952609	11.985850926933
7	585	1513.90288257315	11.056769139783
7	588	1516.051606344692	7.0614887578
7	589	1522.358079812213	7.253957003964
7	609	1559.821941824099	1.058872920469
7	623	1592.637391789213	2.292233607368
7	630	1612.351093212601	6.590103414492
7	670	1741.288973372195	6.748474296065
7	680	1763.776517068729	9.511499913482
7	681	1768.434795688899	6.789887583891
7	706	1830.588318158959	30.210161708912
7	707	1837.077729497598	8.883611078757
7	717	1866.146298426652	4.288714798723
7	734	1889.258132865506	4.555334468215
7	740	1919.772404143155	3.236750560483
7	756	1966.319250149646	18.196528476468
7	774	1994.003460697483	5.915041669922
7	797	2071.981150535588	14.638127840658
7	818	2142.428183373815	31.680336769353
7	819	2146.196882353585	24.609759276662
7	828	2166.660308187009	1.979350903327
7	833	2180.495382415176	8.500942194073
7	836	2182.664266896962	1.539857288857
7	852	2197.22860054052	3.230316410988
7	870	2229.069403672684	0.872020470569
7	883	2268.538420102077	6.030193681777
7	891	2282.716582311001	7.923823258749
7	896	2311.336767542443	4.353755450583
7	900	2326.552967014187	3.713669785772
7	907	2346.577634661125	10.711901372257
7	921	2370.139303784438	3.322886139458
7	955	2485.067399388562	4.625928856437
8	108	361.711755833903	108.38717992652
8	109	363.167137595082	99.819632790633
8	116	374.729234300943	96.268461727406
8	117	375.318547925737	96.806050309773
8	120	379.107793232952	98.392754921424
8	123	388.495442130304	99.285750266006
8	126	392.515023768906	83.428082139405
8	131	396.590137694295	85.917401256758
8	142	416.100353145271	102.5271327802
8	143	418.044848746542	84.772192652032
8	146	424.004189353441	69.44703749776
8	149	425.210592752066	70.452743167694
8	152	437.523547553921	73.699652722709
8	153	447.642072369465	82.028797736652
8	158	468.648191198745	98.062957326673
8	159	469.471016181919	91.270607197529
8	162	475.677151309296	95.995440410571
8	163	477.919421893851	86.152184609573
8	168	489.0092280094	92.617162809798
8	169	490.607681659325	94.125349330069
8	170	494.351538113525	88.38815744302
8	171	495.23917940604	84.575279916183
8	172	503.632026964234	92.781734186222
8	179	512.82599854466	98.876786367127
8	184	531.10615405678	116.70529387894
8	185	538.043025961492	117.16458313423
8	186	540.891515260203	116.16481764735
8	187	546.083103679224	108.71993900133
8	194	575.210030013082	119.09816229151
8	199	581.279831319131	119.56076217254
8	200	582.763135971185	109.98789911619
8	203	587.505927005718	109.00107938529
8	219	608.483998054497	129.78707003349
8	220	617.698010123328	112.37479251566
8	225	623.582711743059	115.13093588729
8	228	630.633273846522	121.77556567925
8	229	630.736090507763	111.00024539301
8	232	642.213186084248	117.9233767161
8	233	644.558420648826	91.263691264633
8	234	645.244512825477	90.344917809133
8	237	647.943732423412	74.528235573113
8	238	649.991077173218	70.66336915398
8	245	662.709016516399	81.479802209182
8	246	665.486954282445	78.435445028256
8	249	680.80507162066	92.974502755178
8	250	681.894809602847	93.711221968816
8	253	688.235995243336	99.725747350266
8	256	703.842054560461	106.15031391211
8	257	705.109459032277	105.48355479256
8	262	720.777001112119	119.3122028147
8	265	744.033160322883	125.24599768664
8	266	744.41018912562	122.85498183737
8	267	750.178357736451	124.53639839224
8	268	750.380883883956	115.60636183852
8	281	772.952803848377	125.69117831871
8	292	795.760717684005	144.27042105531
8	295	807.840666263029	154.51735464519
8	298	808.505063019995	149.93176456882
8	299	809.96642306599	132.56017027892
8	300	811.194256091527	126.69784389674
8	315	849.350616773653	157.34837315006
8	316	849.522864656741	139.90295773242
8	321	870.799016582653	158.37096181627
8	326	875.34161214174	135.17620999742
8	329	876.943591951471	118.7445216176
8	330	885.027995270374	119.45383468063
8	339	898.551021487337	129.95266513299
8	344	911.528339303559	141.78492323917
8	347	922.111805347054	152.00425754527
8	354	928.813870386407	156.98391628854
8	355	928.976271402716	154.54872598468
8	358	931.958729200996	149.65215025959
8	361	937.99238885797	153.31363166224
8	364	941.206246794611	149.09562258476
8	365	941.217751434392	147.11382623912
8	372	949.819735407698	145.56546035798
8	373	954.891804574655	146.83785665995
8	376	964.917552679557	151.73039337355
8	379	972.065129728993	156.11992676302
8	388	1013.795162035767	188.47893936072
8	407	1066.276991061201	239.83913349465
8	412	1083.008619668766	251.86482913121
8	413	1083.04888065533	246.84836747377
8	414	1085.148085235326	238.93278946114
8	415	1094.072848300838	238.07812187729
8	416	1105.426854831611	246.90856057239
8	419	1113.125387463184	240.02252924064
8	426	1123.612369926121	249.01579315319
8	427	1125.172322371129	248.60374170454
8	437	1161.751111778835	276.57877177158
8	442	1171.032394388471	284.32410676231
8	445	1179.121402983502	289.23981014887
8	446	1179.136919675107	284.92171506236
8	447	1185.133399764717	283.93593335938
8	448	1189.57079359997	282.06690080956
8	449	1195.638655753592	276.52987279462
8	472	1251.451585135418	327.89918801493
8	473	1251.918355677955	325.43995504457
8	476	1257.257492961987	329.91077009183
8	477	1258.623180250851	329.0646190451
8	478	1264.362457537662	328.924746273
8	481	1276.126456908328	337.77305468396
8	482	1279.05128011169	333.47761022775
8	483	1284.96215853743	336.80230761302
8	488	1296.630516482177	347.98500596642
8	491	1303.198527954965	344.29803742344
8	496	1328.280708657612	357.0494048987
8	499	1338.594482913762	351.32474592573
8	528	1396.668723699211	398.92922594649
8	529	1398.191245976719	395.94419017891
8	540	1417.253362363346	412.31258172646
8	541	1418.160524180223	403.07086107898
8	542	1418.367330134011	386.62261292453
8	549	1437.466477281227	403.59667691389
8	550	1438.099977434382	402.88134932019
8	555	1440.707371491793	401.19677129198
8	558	1454.417321315633	412.31124194696
8	559	1455.24450185225	412.3511676619
8	560	1459.745894470957	414.83818437274
8	561	1461.771299703725	405.29307262505
8	562	1462.220915954787	382.25832419332
8	580	1501.925274952609	420.38986603336
8	589	1522.358079812213	411.43406015439
8	590	1524.612488245682	408.03526199276
8	593	1531.605745929492	411.23531849183
8	594	1533.398924697853	410.03869933418
8	599	1540.385118003644	402.28405146609
8	600	1552.260016018689	413.57904336036
8	609	1559.821941824099	400.82417244828
8	618	1579.881447316271	415.49183321313
8	619	1585.725745229084	417.63563956355
8	620	1589.264091904173	412.89571007679
8	623	1592.637391789213	392.844523872
8	630	1612.351093212601	412.47885695844
8	631	1619.412933310959	415.13433652888
8	632	1622.803384915789	413.33578657019
8	635	1634.498944842607	401.53708523019
8	636	1637.015717766126	400.03153717684
8	641	1655.306420973047	413.59946673117
8	642	1656.825951056396	406.62943314288
8	645	1673.888915025066	418.54366590444
8	646	1674.156852036681	405.20529626472
8	651	1683.487843023631	395.8643220149
8	652	1695.681060838575	407.00212008911
8	655	1698.719711767182	397.87458860639
8	658	1717.069807106659	404.4319996236
8	659	1719.085426165842	398.5064601787
8	660	1719.778004515281	387.19321873289
8	663	1727.847253809241	386.20678090958
8	664	1730.982739985404	387.47281075152
8	665	1732.061860567382	379.34960270112
8	670	1741.288973372195	387.69210091156
8	671	1741.54205706497	387.11159416497
8	674	1747.390701918286	383.86543410071
8	675	1752.923835943817	388.94181572174
8	681	1768.434795688899	401.63638895338
8	684	1779.567141834741	411.76834280648
8	685	1780.76291842749	399.77426812623
8	686	1781.130397213669	397.69002418369
8	687	1793.777691748115	394.74804760132
8	690	1798.270520536951	392.32535335772
8	691	1799.734063777588	377.33738833585
8	707	1837.077729497598	407.45047374128
8	708	1840.26191015905	409.57682138619
8	709	1847.485433299787	407.54795025123
8	710	1849.44612437761	408.84455728896
8	713	1850.455163227066	409.18078339688
8	714	1861.551367862281	391.4617566476
8	717	1866.146298426652	388.289774497
8	718	1869.18437614049	389.55007260228
8	721	1871.872369481351	390.85478823393
8	728	1879.002139299918	395.37971501138
8	731	1882.807074443982	392.82770858843
8	734	1889.258132865506	389.74499588505
8	735	1894.018575664632	391.17246223127
8	740	1919.772404143155	390.23075967787
8	743	1921.57098234213	387.50926685652
8	746	1927.702059723263	389.0711337297
8	749	1943.196920035436	389.9662387946
8	756	1966.319250149646	412.8700108765
8	767	1985.198474674627	431.25172067324
8	774	1994.003460697483	435.24039179385
8	777	1996.287319196071	434.9868135347
8	780	1996.909941238183	434.44614080858
8	781	1997.739001821963	431.60776574133
8	782	2009.415311251864	431.76320983198
8	787	2022.400664981212	432.05550679937
8	788	2025.363720716012	429.80510539197
8	797	2071.981150535588	469.19360909618
8	798	2074.953987335076	469.19299753697
8	803	2095.945148341761	466.65480212554
8	804	2098.990016487655	461.22172499416
8	805	2099.733977407122	460.58529530097
8	806	2104.366335016479	446.65742539387
8	807	2107.751181246203	432.25568900093
8	819	2146.196882353585	464.01220656078
8	820	2151.195401898328	453.557677653
8	823	2154.460543802481	440.20790341036
8	828	2166.660308187009	440.70731172756
8	829	2166.910841048456	433.81937239892
8	830	2170.161916371318	435.62141729519
8	833	2180.495382415176	436.89308145196
8	836	2182.664266896962	428.39924974171
8	839	2183.296934416173	413.55986412245
8	840	2183.384060255815	385.95441038646
8	841	2186.101187023016	385.72303057297
8	852	2197.22860054052	388.80499161462
8	857	2210.976750521616	399.85928134149
8	860	2211.851788118248	399.12409677834
8	861	2212.676266525039	393.38119519096
8	864	2215.796830358586	391.96749043022
8	867	2220.351992251802	370.29356266635
8	870	2229.069403672684	367.21182004475
8	871	2230.36175221403	360.22095088509
8	874	2243.640660279264	371.54690968913
8	877	2254.640306735664	378.2343381118
8	878	2259.701770532584	381.63492250532
8	883	2268.538420102077	388.37638226406
8	884	2272.680238588217	387.97744019093
8	891	2282.716582311001	368.23396870493
8	896	2311.336767542443	394.80111395977
8	897	2313.095811932527	392.21483417401
8	900	2326.552967014187	401.80630671585
8	901	2331.556616807418	401.82129605902
8	902	2331.700831884754	383.57811021158
8	907	2346.577634661125	395.14452865196
8	908	2351.237706574562	390.15688064173
8	909	2357.188256589937	388.2245647977
8	910	2357.572501305468	382.86820330436
8	913	2361.282365598131	381.94013910891
8	916	2363.26199708218	380.89625030395
8	921	2370.139303784438	386.30101067121
8	922	2380.011305647962	391.9228866204
8	927	2399.715769092635	410.55915861016
8	932	2411.031060684733	420.68086616743
8	933	2417.943627204821	422.16280155348
8	934	2418.331935719224	421.80082181634
8	939	2427.980928670103	408.17879702344
8	940	2429.460106010668	407.51069526622
8	945	2460.245084290572	402.90206159564
8	946	2468.43270119969	407.55311134602
8	947	2472.648413386446	411.73951466914
8	948	2478.888520538123	408.20942095123
8	955	2485.067399388562	393.44941731733
8	956	2490.009265131187	397.52279696974
9	109	363.167137595082	16
9	116	374.729234300943	17
9	117	375.318547925737	18
9	123	388.495442130304	19
9	131	396.590137694295	20
9	143	418.044848746542	21
9	149	425.210592752066	22
9	153	447.642072369465	23
9	159	469.471016181919	24
9	162	475.677151309296	25
9	163	477.919421893851	26
9	168	489.0092280094	27
9	169	490.607681659325	28
9	170	494.351538113525	29
9	171	495.23917940604	30
9	172	503.632026964234	31
9	185	538.043025961492	32
9	186	540.891515260203	33
9	187	546.083103679224	34
9	199	581.279831319131	35
9	200	582.763135971185	36
9	203	587.505927005718	37
9	220	617.698010123328	38
9	229	630.736090507763	39
9	232	642.213186084248	40
9	233	644.558420648826	41
9	234	645.244512825477	42
9	238	649.991077173218	43
9	246	665.486954282445	44
9	250	681.894809602847	45
9	253	688.235995243336	46
9	256	703.842054560461	47
9	257	705.109459032277	48
9	265	744.033160322883	49
9	266	744.41018912562	50
9	267	750.178357736451	51
9	268	750.380883883956	52
9	281	772.952803848377	53
9	292	795.760717684005	54
9	295	807.840666263029	55
9	298	808.505063019995	56
9	299	809.96642306599	57
9	300	811.194256091527	58
9	316	849.522864656741	59
9	321	870.799016582653	60
9	326	875.34161214174	61
9	329	876.943591951471	62
9	330	885.027995270374	63
9	344	911.528339303559	64
9	347	922.111805347054	65
9	354	928.813870386407	66
9	355	928.976271402716	67
9	361	937.99238885797	68
9	364	941.206246794611	69
9	365	941.217751434392	70
9	373	954.891804574655	71
9	379	972.065129728993	72
9	413	1083.04888065533	73
9	414	1085.148085235326	74
9	415	1094.072848300838	75
9	416	1105.426854831611	76
9	419	1113.125387463184	77
9	427	1125.172322371129	78
9	445	1179.121402983502	79
9	446	1179.136919675107	80
9	447	1185.133399764717	81
9	448	1189.57079359997	82
9	449	1195.638655753592	83
9	473	1251.918355677955	84
9	477	1258.623180250851	85
9	478	1264.362457537662	86
9	481	1276.126456908328	87
9	482	1279.05128011169	88
9	483	1284.96215853743	89
9	491	1303.198527954965	90
9	499	1338.594482913762	91
9	529	1398.191245976719	92
9	541	1418.160524180223	93
9	542	1418.367330134011	94
9	549	1437.466477281227	95
9	550	1438.099977434382	96
9	555	1440.707371491793	97
9	558	1454.417321315633	98
9	559	1455.24450185225	99
9	560	1459.745894470957	100
9	561	1461.771299703725	101
9	562	1462.220915954787	102
9	590	1524.612488245682	103
9	593	1531.605745929492	104
9	594	1533.398924697853	105
9	599	1540.385118003644	106
9	600	1552.260016018689	107
9	618	1579.881447316271	108
9	619	1585.725745229084	109
9	620	1589.264091904173	110
9	631	1619.412933310959	111
9	632	1622.803384915789	112
9	635	1634.498944842607	113
9	636	1637.015717766126	114
9	641	1655.306420973047	115
9	642	1656.825951056396	116
9	645	1673.888915025066	117
9	646	1674.156852036681	118
9	651	1683.487843023631	119
9	652	1695.681060838575	120
9	655	1698.719711767182	121
9	658	1717.069807106659	122
9	659	1719.085426165842	123
9	660	1719.778004515281	124
9	663	1727.847253809241	125
9	664	1730.982739985404	126
9	665	1732.061860567382	127
9	671	1741.54205706497	128
9	674	1747.390701918286	129
9	675	1752.923835943817	130
9	684	1779.567141834741	131
9	685	1780.76291842749	132
9	686	1781.130397213669	133
9	687	1793.777691748115	134
9	690	1798.270520536951	135
9	691	1799.734063777588	136
9	708	1840.26191015905	137
9	709	1847.485433299787	138
9	710	1849.44612437761	139
9	713	1850.455163227066	140
9	714	1861.551367862281	141
9	718	1869.18437614049	142
9	721	1871.872369481351	143
9	728	1879.002139299918	144
9	731	1882.807074443982	145
9	735	1894.018575664632	146
9	743	1921.57098234213	147
9	746	1927.702059723263	148
9	749	1943.196920035436	149
9	767	1985.198474674627	150
9	777	1996.287319196071	151
9	780	1996.909941238183	152
9	781	1997.739001821963	153
9	782	2009.415311251864	154
9	787	2022.400664981212	155
9	788	2025.363720716012	156
9	798	2074.953987335076	157
9	803	2095.945148341761	158
9	804	2098.990016487655	159
9	805	2099.733977407122	160
9	806	2104.366335016479	161
9	807	2107.751181246203	162
9	820	2151.195401898328	163
9	823	2154.460543802481	164
9	829	2166.910841048456	165
9	830	2170.161916371318	166
9	839	2183.296934416173	167
9	840	2183.384060255815	168
9	841	2186.101187023016	169
9	857	2210.976750521616	170
9	860	2211.851788118248	171
9	861	2212.676266525039	172
9	864	2215.796830358586	173
9	867	2220.351992251802	174
9	871	2230.36175221403	175
9	874	2243.640660279264	176
9	877	2254.640306735664	177
9	878	2259.701770532584	178
9	884	2272.680238588217	179
9	897	2313.095811932527	180
9	901	2331.556616807418	181
9	902	2331.700831884754	182
9	908	2351.237706574562	183
9	909	2357.188256589937	184
9	910	2357.572501305468	185
9	913	2361.282365598131	186
9	916	2363.26199708218	187
9	922	2380.011305647962	188
9	927	2399.715769092635	189
9	932	2411.031060684733	190
9	933	2417.943627204821	191
9	934	2418.331935719224	192
9	939	2427.980928670103	193
9	940	2429.460106010668	194
9	945	2460.245084290572	195
9	946	2468.43270119969	196
9	947	2472.648413386446	197
9	948	2478.888520538123	198
9	956	2490.009265131187	199
10	109	363.167137595082	109.8425616877
10	116	374.729234300943	111.38172949649
10	117	375.318547925737	96.8577753522
10	123	388.495442130304	107.78040381878
10	131	396.590137694295	87.503196064794
10	143	418.044848746542	104.47162838147
10	149	425.210592752066	70.653440896385
10	153	447.642072369465	83.818177538253
10	159	469.471016181919	98.885782309847
10	162	475.677151309296	97.476742324906
10	163	477.919421893851	98.237710995126
10	168	489.0092280094	97.241990725122
10	169	490.607681659325	94.215616459723
10	170	494.351538113525	97.869205784269
10	171	495.23917940604	89.275798735535
10	172	503.632026964234	92.968127474377
10	185	538.043025961492	123.64216578366
10	186	540.891515260203	120.01307243294
10	187	546.083103679224	121.35640606637
10	199	581.279831319131	125.16796359756
10	200	582.763135971185	121.04406682459
10	203	587.505927005718	114.73069015072
10	220	617.698010123328	139.00108210232
10	229	630.736090507763	121.87838234049
10	232	642.213186084248	122.4773409695
10	233	644.558420648826	120.26861128068
10	234	645.244512825477	91.949783441284
10	238	649.991077173218	76.575580322919
10	246	665.486954282445	84.257739975228
10	250	681.894809602847	94.064240737365
10	253	688.235995243336	100.0524076093
10	256	703.842054560461	115.33180666739
10	257	705.109459032277	107.41771838393
10	265	744.033160322883	142.56836202546
10	266	744.41018912562	125.62302648938
10	267	750.178357736451	128.6231504482
10	268	750.380883883956	124.73892453974
10	281	772.952803848377	138.17828180294
10	292	795.760717684005	148.49909215433
10	295	807.840666263029	156.35036963434
10	298	808.505063019995	155.18175140215
10	299	809.96642306599	151.39312461481
10	300	811.194256091527	133.78800330446
10	316	849.522864656741	157.52062103315
10	321	870.799016582653	161.17910965833
10	326	875.34161214174	162.91355737536
10	329	876.943591951471	136.77818980715
10	330	885.027995270374	126.8289249365
10	344	911.528339303559	142.92998294921
10	347	922.111805347054	152.36838928266
10	354	928.813870386407	158.70632258462
10	355	928.976271402716	157.14631730485
10	361	937.99238885797	155.68580991657
10	364	941.206246794611	156.52748959888
10	365	941.217751434392	149.10712722454
10	373	954.891804574655	150.63752952494
10	379	972.065129728993	158.87797042298
10	413	1083.04888065533	251.90509011777
10	414	1085.148085235326	248.94757205377
10	415	1094.072848300838	247.85755252665
10	416	1105.426854831611	249.43212840807
10	419	1113.125387463184	254.60709320396
10	427	1125.172322371129	250.57574559819
10	445	1179.121402983502	292.41311535735
10	446	1179.136919675107	289.25532684047
10	447	1185.133399764717	290.91819515197
10	448	1189.57079359997	288.37332719463
10	449	1195.638655753592	288.13476296319
10	473	1251.918355677955	328.36595855747
10	477	1258.623180250851	331.27645738069
10	478	1264.362457537662	334.80389633191
10	481	1276.126456908328	340.68874564367
10	482	1279.05128011169	340.69787788732
10	483	1284.96215853743	339.38848865349
10	491	1303.198527954965	354.55301743921
10	499	1338.594482913762	367.36317915485
10	529	1398.191245976719	400.45174822399
10	541	1418.160524180223	413.21974354334
10	542	1418.367330134011	403.27766703277
10	549	1437.466477281227	405.72176007175
10	550	1438.099977434382	404.23017706704
10	555	1440.707371491793	405.4887433776
10	558	1454.417321315633	414.90672111583
10	559	1455.24450185225	413.13842248358
10	560	1459.745894470957	416.85256028061
10	561	1461.771299703725	416.8635896055
10	562	1462.220915954787	405.74268887612
10	590	1524.612488245682	413.68846858786
10	593	1531.605745929492	415.02851967657
10	594	1533.398924697853	413.02849726019
10	599	1540.385118003644	417.02489263997
10	600	1552.260016018689	414.15894948113
10	618	1579.881447316271	420.88367794045
10	619	1585.725745229084	421.33613112595
10	620	1589.264091904173	421.17398623863
10	631	1619.412933310959	419.5406970568
10	632	1622.803384915789	418.52478813371
10	635	1634.498944842607	425.03134649701
10	636	1637.015717766126	404.0538581537
10	641	1655.306420973047	418.32224038376
10	642	1656.825951056396	415.11899681452
10	645	1673.888915025066	423.69239711155
10	646	1674.156852036681	418.81160291606
10	651	1683.487843023631	414.53628725167
10	652	1695.681060838575	408.05753982984
10	655	1698.719711767182	410.04077101772
10	658	1717.069807106659	416.22468394587
10	659	1719.085426165842	406.44761868278
10	660	1719.778004515281	399.19903852814
10	663	1727.847253809241	395.26246802685
10	664	1730.982739985404	389.34226708575
10	665	1732.061860567382	388.5519313335
10	671	1741.54205706497	387.94518460433
10	674	1747.390701918286	392.96023901829
10	675	1752.923835943817	389.39856812624
10	684	1779.567141834741	412.76873509922
10	685	1780.76291842749	412.96411939923
10	686	1781.130397213669	400.14174691241
10	687	1793.777691748115	410.33731871813
10	690	1798.270520536951	399.24087639016
10	691	1799.734063777588	393.78889659836
10	708	1840.26191015905	410.63465440273
10	709	1847.485433299787	416.80034452693
10	710	1849.44612437761	409.50864132905
10	713	1850.455163227066	409.85359613841
10	714	1861.551367862281	420.2769880321
10	718	1869.18437614049	391.32785221084
10	721	1871.872369481351	392.23806594314
10	728	1879.002139299918	397.9845580525
10	731	1882.807074443982	399.18465015544
10	735	1894.018575664632	394.50543868417
10	743	1921.57098234213	392.02933787685
10	746	1927.702059723263	393.64034423765
10	749	1943.196920035436	404.56599404188
10	767	1985.198474674627	431.74923540149
10	777	1996.287319196071	437.52425029244
10	780	1996.909941238183	435.60943557681
10	781	1997.739001821963	435.27520139236
10	782	2009.415311251864	443.28407517123
10	787	2022.400664981212	444.74856356132
10	788	2025.363720716012	435.01856253417
10	798	2074.953987335076	472.16644589567
10	803	2095.945148341761	490.18415854365
10	804	2098.990016487655	469.69967027143
10	805	2099.733977407122	461.96568591363
10	806	2104.366335016479	465.21765291033
10	807	2107.751181246203	450.04227162359
10	820	2151.195401898328	469.01072610553
10	823	2154.460543802481	456.82281955715
10	829	2166.910841048456	440.95784458901
10	830	2170.161916371318	437.07044772178
10	839	2183.296934416173	429.03191726093
10	840	2183.384060255815	413.64698996209
10	841	2186.101187023016	388.67153715366
10	857	2210.976750521616	402.55314159571
10	860	2211.851788118248	400.73431893812
10	861	2212.676266525039	399.94857518513
10	864	2215.796830358586	396.50175902451
10	867	2220.351992251802	396.52265232344
10	871	2230.36175221403	368.5041685861
10	874	2243.640660279264	373.49985895033
10	877	2254.640306735664	382.54655614553
10	878	2259.701770532584	383.29580190872
10	884	2272.680238588217	392.5182007502
10	897	2313.095811932527	396.56015834985
10	901	2331.556616807418	406.80995650909
10	902	2331.700831884754	401.96551113635
10	908	2351.237706574562	399.8046005654
10	909	2357.188256589937	396.1074306571
10	910	2357.572501305468	388.60880951323
10	913	2361.282365598131	386.57806759702
10	916	2363.26199708218	383.91977059296
10	922	2380.011305647962	396.17301253473
10	927	2399.715769092635	411.62735006507
10	932	2411.031060684733	421.87445020226
10	933	2417.943627204821	427.59343268752
10	934	2418.331935719224	422.55111006788
10	939	2427.980928670103	431.44981476722
10	940	2429.460106010668	409.657974364
10	945	2460.245084290572	438.29567354612
10	946	2468.43270119969	411.08967850476
10	947	2472.648413386446	411.76882353278
10	948	2478.888520538123	417.97962182082
10	956	2490.009265131187	398.39128305995
11	959	2500	0.0796
12	959	2500	0.0348

