file 46892 1678221213                                           
version 2
run analysis_2kr_hard_game_mode-155-20230307-21:33:33-5855
attr configname analysis_2kr_hard_game_mode
attr datetime 20230307-21:33:33
attr experiment analysis_2kr_hard_game_mode
attr inifile omnetpp.ini
attr iterationvars "$0=25, $1=10, $2=15, $3=7, $4=100"
attr iterationvarsf 25,10,15,7,100-
attr measurement "$0=25, $1=10, $2=15, $3=7, $4=100"
attr network Network
attr processid 5855
attr repetition 0
attr replication #0
attr resultdir results
attr runnumber 155
attr seedset 0
param *.boss.arrival_mean 25
param *.boss.service_mean 10
param *.minion.arrival_mean 15
param *.minion.service_mean 7
param *.player.recover_rate_x 100
param **.minion.arrival_distribution 0
param **.minion.service_distribution 0
param **.boss.arrival_distribution 0
param **.boss.service_distribution 0

vector 0 Network.player boss_defeated_stat:vector ETV
attr source signal_boss_defeated
vector 1 Network.player boss_jobs_queue_number_stat:vector ETV
attr source signal_boss_jobs_queue_number
vector 2 Network.player boss_response_time_stat:vector ETV
attr source signal_boss_response_time
vector 3 Network.player minion_waiting_time_stat:vector ETV
attr source signal_minion_waiting_time
vector 4 Network.player minion_defeated_stat:vector ETV
attr source signal_minion_defeated
vector 5 Network.player minion_jobs_queue_number_stat:vector ETV
attr source signal_minion_jobs_queue_number
vector 6 Network.player minion_response_time_stat:vector ETV
attr source signal_minion_response_time
vector 7 Network.player minion_jobs_number_stat:vector ETV
attr source signal_minion_jobs_number
vector 8 Network.player boss_jobs_number_stat:vector ETV
attr source signal_boss_jobs_number
vector 9 Network.player minion_recovered_stat:vector ETV
attr source signal_minion_recovered
vector 10 Network.player boss_waiting_time_stat:vector ETV
attr source signal_boss_waiting_time
vector 11 Network.player minion_throughput:vector ETV
attr source signal_minion_throughput
vector 12 Network.player boss_throughput:vector ETV
attr source signal_boss_throughput
0	2046 2399 115 806 351.374451647121 2494.822729791578 90 19 108 5715 423645
1	4445 4591 115 808 351.374451647121 2496.059055200273 180 0 3 78 130
2	9036 3500 115 806 351.374451647121 2494.822729791578 90 0.242741304366 46.602250905364 1020.4437628391 19582.613019712
3	12536 7354 115 806 351.374451647121 2494.822729791578 195 0 226.64127869033 10455.272174824 1361265.6437113
4	19890 3899 116 803 364.484217315217 2475.839315156452 144 17 160 12744 1376664
5	23789 7365 116 803 364.484217315217 2475.839315156452 284 0 20 1556 18700
6	31154 5674 116 803 364.484217315217 2475.839315156452 144 0.324842138453 231.25048397262 9047.6503762844 1185163.8983983
7	36828 3632 118 802 369.303862818423 2468.696441146389 140 1 21 913 11021
8	40460 2291 120 808 370.603771219516 2496.059055200273 90 1 4 129 233
9	42751 1350 120 808 370.603771219516 2496.059055200273 51 14 64 1989 88621
10	44101 2753 120 808 370.603771219516 2496.059055200273 90 0 35.151506080976 247.3713990523 4741.7456471893
11	46854 18 809 809 2500 2500 1 0.064 0.064 0.064 0.004096
12	46872 19 809 809 2500 2500 1 0.0432 0.0432 0.0432 0.00186624

