version 2
run analysis_2kr_hard_game_mode-31-20230307-21:33:08-5228
attr configname analysis_2kr_hard_game_mode
attr datetime 20230307-21:33:08
attr experiment analysis_2kr_hard_game_mode
attr inifile omnetpp.ini
attr iterationvars "$0=20, $1=7.5, $2=15, $3=7, $4=0"
attr iterationvarsf 20,7.5,15,7,0-
attr measurement "$0=20, $1=7.5, $2=15, $3=7, $4=0"
attr network Network
attr processid 5228
attr repetition 1
attr replication #1
attr resultdir results
attr runnumber 31
attr seedset 1
param *.boss.arrival_mean 20
param *.boss.service_mean 7.5
param *.minion.arrival_mean 15
param *.minion.service_mean 7
param *.player.recover_rate_x 0
param **.minion.arrival_distribution 0
param **.minion.service_distribution 0
param **.boss.arrival_distribution 0
param **.boss.service_distribution 0

vector 0 Network.player boss_defeated_stat:vector ETV
attr source signal_boss_defeated
vector 1 Network.player boss_jobs_queue_number_stat:vector ETV
attr source signal_boss_jobs_queue_number
vector 2 Network.player boss_response_time_stat:vector ETV
attr source signal_boss_response_time
vector 3 Network.player boss_jobs_number_stat:vector ETV
attr source signal_boss_jobs_number
vector 4 Network.player boss_waiting_time_stat:vector ETV
attr source signal_boss_waiting_time
vector 5 Network.player minion_jobs_number_stat:vector ETV
attr source signal_minion_jobs_number
vector 6 Network.player minion_jobs_queue_number_stat:vector ETV
attr source signal_minion_jobs_queue_number
vector 7 Network.player minion_waiting_time_stat:vector ETV
attr source signal_minion_waiting_time
vector 8 Network.player minion_recovered_stat:vector ETV
attr source signal_minion_recovered
vector 9 Network.player minion_defeated_stat:vector ETV
attr source signal_minion_defeated
vector 10 Network.player minion_response_time_stat:vector ETV
attr source signal_minion_response_time
vector 11 Network.player minion_throughput:vector ETV
attr source signal_minion_throughput
vector 12 Network.player boss_throughput:vector ETV
attr source signal_boss_throughput
0	105	350.010818899333	18
0	110	374.572096856386	19
0	117	409.885659788877	20
0	127	424.316407798322	21
0	136	459.152502260628	22
0	145	482.759195715571	23
0	146	485.772177922575	24
0	150	498.626391939106	25
0	153	504.257053352101	26
0	159	518.320880594042	27
0	162	529.606277218733	28
0	168	544.474116354847	29
0	180	576.063746180305	30
0	207	678.278773713992	31
0	219	718.248680496811	32
0	225	745.446974961035	33
0	228	759.643485049969	34
0	237	771.633189036243	35
0	243	809.709858376226	36
0	249	851.68327330589	37
0	255	866.254594339646	38
0	274	898.877288712772	39
0	284	921.364902624727	40
0	285	928.24738246704	41
0	290	936.678801074628	42
0	299	982.321735692656	43
0	304	996.6151457739	44
0	305	998.578332247422	45
0	309	1005.710382177519	46
0	315	1036.906834399104	47
0	324	1061.842421867361	48
0	331	1092.79524899864	49
0	336	1113.605201043371	50
0	337	1114.677039236101	51
0	345	1123.691498029429	52
0	346	1129.249778830669	53
0	347	1132.891503979849	54
0	380	1197.307452978329	55
0	381	1200.625077428883	56
0	388	1210.569467601529	57
0	393	1212.181010430185	58
0	394	1216.910865530826	59
0	410	1247.804609813255	60
0	421	1273.995301751001	61
0	429	1289.551369399355	62
0	465	1392.693754982952	63
0	475	1410.545638659308	64
0	476	1414.039347624436	65
0	492	1462.960146441721	66
0	493	1467.827204945701	67
0	501	1492.702603001385	68
0	513	1511.178739568994	69
0	522	1535.6560857865	70
0	537	1572.145573695894	71
0	544	1594.90701647449	72
0	558	1656.853014036438	73
0	574	1712.358529860584	74
0	575	1715.185054095412	75
0	579	1733.229279004441	76
0	584	1743.971258822437	77
0	587	1746.054420653126	78
0	592	1757.621364611866	79
0	600	1783.211921914619	80
0	610	1814.529226397572	81
0	614	1825.777074685863	82
0	618	1848.851726261426	83
0	626	1861.056690122061	84
0	633	1876.726512660287	85
0	638	1895.945298720578	86
0	654	1987.822623068028	87
0	663	2012.476463351471	88
0	664	2017.085272404028	89
0	688	2062.089289417427	90
0	696	2076.720431353892	91
0	702	2097.610005375647	92
0	708	2122.267869204761	93
0	721	2155.998203327351	94
0	732	2173.765504411188	95
0	733	2185.598958679865	96
0	734	2187.091472560026	97
0	737	2190.245490699283	98
0	738	2200.380888029195	99
0	754	2230.690108208044	100
0	766	2261.069841271359	101
0	770	2275.7257268473	102
0	773	2281.31450758657	103
0	780	2299.677721691161	104
0	785	2307.223924518598	105
0	790	2315.248505463691	106
0	791	2320.798821673414	107
0	807	2347.49546646419	108
0	812	2357.419078591596	109
0	817	2376.32439370784	110
0	825	2398.979161869137	111
0	832	2412.954460506201	112
0	833	2413.680459554476	113
0	836	2423.310289722791	114
0	839	2436.279274617715	115
0	845	2454.849286363453	116
0	856	2486.19419805096	117
1	105	350.010818899333	0
1	107	369.375255317272	0
1	110	374.572096856386	0
1	116	404.258574086135	0
1	117	409.885659788877	0
1	120	415.788676091801	0
1	127	424.316407798322	0
1	135	443.919676013075	0
1	136	459.152502260628	0
1	142	470.546870107225	0
1	144	480.431995840156	1
1	145	482.759195715571	1
1	146	485.772177922575	0
1	149	495.029730108993	0
1	150	498.626391939106	0
1	152	500.513567475372	0
1	153	504.257053352101	0
1	158	517.809300423735	0
1	159	518.320880594042	0
1	161	521.192237302952	0
1	162	529.606277218733	0
1	167	541.925002229654	0
1	168	544.474116354847	0
1	177	567.695925539455	0
1	180	576.063746180305	0
1	206	660.252978140038	0
1	207	678.278773713992	0
1	214	709.366630100926	0
1	219	718.248680496811	0
1	224	743.646848964604	0
1	225	745.446974961035	0
1	227	756.458935907148	0
1	228	759.643485049969	0
1	236	767.120392425216	0
1	237	771.633189036243	0
1	242	789.815789590426	0
1	243	809.709858376226	0
1	248	831.608480159845	0
1	249	851.68327330589	0
1	254	863.970073409175	0
1	255	866.254594339646	0
1	273	898.688180290939	0
1	274	898.877288712772	0
1	281	910.944778126664	0
1	283	912.065066633432	1
1	284	921.364902624727	1
1	285	928.24738246704	0
1	289	934.472084532428	0
1	290	936.678801074628	0
1	294	959.834294333765	0
1	296	963.034023953894	1
1	299	982.321735692656	1
1	303	995.44102465029	1
1	304	996.6151457739	1
1	305	998.578332247422	0
1	308	1004.276199296497	0
1	309	1005.710382177519	0
1	314	1030.943152599568	0
1	315	1036.906834399104	0
1	323	1050.110245986447	0
1	324	1061.842421867361	0
1	328	1074.807943387107	0
1	330	1086.494175780376	1
1	331	1092.79524899864	1
1	333	1102.06552599861	1
1	336	1113.605201043371	1
1	337	1114.677039236101	0
1	340	1119.223715317434	0
1	342	1121.890324746436	1
1	344	1123.663479696237	2
1	345	1123.691498029429	2
1	346	1129.249778830669	1
1	347	1132.891503979849	0
1	373	1186.897939430832	0
1	379	1191.951539220539	1
1	380	1197.307452978329	1
1	381	1200.625077428883	0
1	383	1202.276890746692	0
1	387	1207.192094069512	1
1	388	1210.569467601529	1
1	392	1212.083298246598	1
1	393	1212.181010430185	1
1	394	1216.910865530826	0
1	409	1247.010455122903	0
1	410	1247.804609813255	0
1	420	1272.276126545475	0
1	421	1273.995301751001	0
1	426	1284.608791838486	0
1	429	1289.551369399355	0
1	460	1387.632399260903	0
1	465	1392.693754982952	0
1	470	1403.412013724196	0
1	474	1409.315926484005	1
1	475	1410.545638659308	1
1	476	1414.039347624436	0
1	487	1440.302525160037	0
1	491	1462.555294735073	1
1	492	1462.960146441721	1
1	493	1467.827204945701	0
1	500	1489.486066902343	0
1	501	1492.702603001385	0
1	512	1507.762238717833	0
1	513	1511.178739568994	0
1	521	1533.228522866138	0
1	522	1535.6560857865	0
1	530	1558.498177338543	0
1	537	1572.145573695894	0
1	543	1590.470735222049	0
1	544	1594.90701647449	0
1	557	1645.874418155944	0
1	558	1656.853014036438	0
1	569	1688.598277283569	0
1	571	1697.269698461538	1
1	574	1712.358529860584	1
1	575	1715.185054095412	0
1	578	1731.744765826945	0
1	579	1733.229279004441	0
1	581	1737.595552176882	0
1	584	1743.971258822437	0
1	586	1744.899527686484	0
1	587	1746.054420653126	0
1	591	1755.198627303625	0
1	592	1757.621364611866	0
1	599	1782.557906561692	0
1	600	1783.211921914619	0
1	607	1810.00658113624	0
1	610	1814.529226397572	0
1	613	1819.834207241802	0
1	614	1825.777074685863	0
1	617	1845.586409673488	0
1	618	1848.851726261426	0
1	625	1858.271437782732	0
1	626	1861.056690122061	0
1	630	1868.692586631094	0
1	633	1876.726512660287	0
1	637	1893.453134115984	0
1	638	1895.945298720578	0
1	653	1984.3531764257	0
1	654	1987.822623068028	0
1	656	1993.439770634155	0
1	660	2005.414674315447	1
1	663	2012.476463351471	1
1	664	2017.085272404028	0
1	687	2057.829292268349	0
1	688	2062.089289417427	0
1	691	2067.19127090892	0
1	696	2076.720431353892	0
1	701	2093.540604683601	0
1	702	2097.610005375647	0
1	707	2118.272495163052	0
1	708	2122.267869204761	0
1	710	2123.862463980623	0
1	712	2125.583614538701	1
1	720	2148.351335550223	2
1	721	2155.998203327351	2
1	723	2158.513685384924	2
1	725	2159.742235841395	3
1	732	2173.765504411188	3
1	733	2185.598958679865	2
1	734	2187.091472560026	1
1	736	2189.21250810744	1
1	737	2190.245490699283	1
1	738	2200.380888029195	0
1	753	2228.011412246586	0
1	754	2230.690108208044	0
1	765	2256.953625658148	0
1	766	2261.069841271359	0
1	769	2270.467559923692	0
1	770	2275.7257268473	0
1	772	2277.145134657383	0
1	773	2281.31450758657	0
1	775	2292.356304954715	0
1	779	2296.559424856657	1
1	780	2299.677721691161	1
1	782	2299.848805152245	1
1	785	2307.223924518598	1
1	789	2312.593632662147	1
1	790	2315.248505463691	1
1	791	2320.798821673414	0
1	806	2345.24593224152	0
1	807	2347.49546646419	0
1	811	2353.399464487008	0
1	812	2357.419078591596	0
1	816	2372.427930054302	0
1	817	2376.32439370784	0
1	824	2398.96845263205	0
1	825	2398.979161869137	0
1	829	2404.701489116181	0
1	831	2408.893875339512	1
1	832	2412.954460506201	1
1	833	2413.680459554476	0
1	835	2418.968326914021	0
1	836	2423.310289722791	0
1	838	2427.010862944216	0
1	839	2436.279274617715	0
1	842	2443.433928593672	0
1	845	2454.849286363453	0
1	855	2480.621220096792	0
1	856	2486.19419805096	0
1	860	2496.852317827315	0
2	105	350.010818899333	0.120287157022
2	110	374.572096856386	5.196841539114
2	117	409.885659788877	5.627085702742
2	127	424.316407798322	8.527731706521
2	136	459.152502260628	15.232826247553
2	145	482.759195715571	12.212325608346
2	146	485.772177922575	5.340182082419
2	150	498.626391939106	3.596661830113
2	153	504.257053352101	3.743485876729
2	159	518.320880594042	0.511580170307
2	162	529.606277218733	8.414039915781
2	168	544.474116354847	2.549114125193
2	180	576.063746180305	8.36782064085
2	207	678.278773713992	18.025795573954
2	219	718.248680496811	8.882050395885
2	225	745.446974961035	1.800125996431
2	228	759.643485049969	3.184549142821
2	237	771.633189036243	4.512796611027
2	243	809.709858376226	19.8940687858
2	249	851.68327330589	20.074793146045
2	255	866.254594339646	2.284520930471
2	274	898.877288712772	0.189108421833
2	284	921.364902624727	10.420124498063
2	285	928.24738246704	16.182315833608
2	290	936.678801074628	2.2067165422
2	299	982.321735692656	22.487441358891
2	304	996.6151457739	33.581121820006
2	305	998.578332247422	3.137307597132
2	309	1005.710382177519	1.434182881022
2	315	1036.906834399104	5.963681799536
2	324	1061.842421867361	11.732175880914
2	331	1092.79524899864	17.987305611533
2	336	1113.605201043371	27.111025262995
2	337	1114.677039236101	12.611513237491
2	345	1123.691498029429	4.467782711995
2	346	1129.249778830669	7.359454084233
2	347	1132.891503979849	9.228024283612
2	380	1197.307452978329	10.409513547497
2	381	1200.625077428883	8.673538208344
2	388	1210.569467601529	8.292576854837
2	393	1212.181010430185	4.988916360673
2	394	1216.910865530826	4.827567284228
2	410	1247.804609813255	0.794154690352
2	421	1273.995301751001	1.719175205526
2	429	1289.551369399355	4.942577560869
2	465	1392.693754982952	5.061355722049
2	475	1410.545638659308	7.133624935112
2	476	1414.039347624436	4.723421140431
2	492	1462.960146441721	22.657621281684
2	493	1467.827204945701	5.271910210628
2	501	1492.702603001385	3.216536099042
2	513	1511.178739568994	3.416500851161
2	522	1535.6560857865	2.427562920362
2	537	1572.145573695894	13.647396357351
2	544	1594.90701647449	4.436281252441
2	558	1656.853014036438	10.978595880494
2	574	1712.358529860584	23.760252577015
2	575	1715.185054095412	17.915355633874
2	579	1733.229279004441	1.484513177496
2	584	1743.971258822437	6.375706645555
2	587	1746.054420653126	1.154892966642
2	592	1757.621364611866	2.422737308241
2	600	1783.211921914619	0.654015352927
2	610	1814.529226397572	4.522645261332
2	614	1825.777074685863	5.942867444061
2	618	1848.851726261426	3.265316587938
2	626	1861.056690122061	2.785252339329
2	633	1876.726512660287	8.033926029193
2	638	1895.945298720578	2.492164604594
2	654	1987.822623068028	3.469446642328
2	663	2012.476463351471	19.036692717316
2	664	2017.085272404028	11.670598088581
2	688	2062.089289417427	4.259997149078
2	696	2076.720431353892	9.529160444972
2	702	2097.610005375647	4.069400692046
2	708	2122.267869204761	3.995374041709
2	721	2155.998203327351	32.135739346728
2	732	2173.765504411188	48.181889872487
2	733	2185.598958679865	37.247623129642
2	734	2187.091472560026	28.577787175102
2	737	2190.245490699283	30.503254857888
2	738	2200.380888029195	11.168379921755
2	754	2230.690108208044	2.678695961458
2	766	2261.069841271359	4.116215613211
2	770	2275.7257268473	5.258166923608
2	773	2281.31450758657	4.169372929187
2	780	2299.677721691161	7.321416736446
2	785	2307.223924518598	10.664499661941
2	790	2315.248505463691	15.399700311446
2	791	2320.798821673414	8.205189011267
2	807	2347.49546646419	2.24953422267
2	812	2357.419078591596	4.019614104588
2	817	2376.32439370784	3.896463653538
2	825	2398.979161869137	0.010709237087
2	832	2412.954460506201	8.25297139002
2	833	2413.680459554476	4.786584214964
2	836	2423.310289722791	4.34196280877
2	839	2436.279274617715	9.268411673499
2	845	2454.849286363453	11.415357769781
2	856	2486.19419805096	5.572977954168
3	107	369.375255317272	1
3	116	404.258574086135	1
3	120	415.788676091801	1
3	135	443.919676013075	1
3	142	470.546870107225	1
3	144	480.431995840156	2
3	149	495.029730108993	1
3	152	500.513567475372	1
3	158	517.809300423735	1
3	161	521.192237302952	1
3	167	541.925002229654	1
3	177	567.695925539455	1
3	206	660.252978140038	1
3	214	709.366630100926	1
3	224	743.646848964604	1
3	227	756.458935907148	1
3	236	767.120392425216	1
3	242	789.815789590426	1
3	248	831.608480159845	1
3	254	863.970073409175	1
3	273	898.688180290939	1
3	281	910.944778126664	1
3	283	912.065066633432	2
3	289	934.472084532428	1
3	294	959.834294333765	1
3	296	963.034023953894	2
3	303	995.44102465029	2
3	308	1004.276199296497	1
3	314	1030.943152599568	1
3	323	1050.110245986447	1
3	328	1074.807943387107	1
3	330	1086.494175780376	2
3	333	1102.06552599861	2
3	340	1119.223715317434	1
3	342	1121.890324746436	2
3	344	1123.663479696237	3
3	373	1186.897939430832	1
3	379	1191.951539220539	2
3	383	1202.276890746692	1
3	387	1207.192094069512	2
3	392	1212.083298246598	2
3	409	1247.010455122903	1
3	420	1272.276126545475	1
3	426	1284.608791838486	1
3	460	1387.632399260903	1
3	470	1403.412013724196	1
3	474	1409.315926484005	2
3	487	1440.302525160037	1
3	491	1462.555294735073	2
3	500	1489.486066902343	1
3	512	1507.762238717833	1
3	521	1533.228522866138	1
3	530	1558.498177338543	1
3	543	1590.470735222049	1
3	557	1645.874418155944	1
3	569	1688.598277283569	1
3	571	1697.269698461538	2
3	578	1731.744765826945	1
3	581	1737.595552176882	1
3	586	1744.899527686484	1
3	591	1755.198627303625	1
3	599	1782.557906561692	1
3	607	1810.00658113624	1
3	613	1819.834207241802	1
3	617	1845.586409673488	1
3	625	1858.271437782732	1
3	630	1868.692586631094	1
3	637	1893.453134115984	1
3	653	1984.3531764257	1
3	656	1993.439770634155	1
3	660	2005.414674315447	2
3	687	2057.829292268349	1
3	691	2067.19127090892	1
3	701	2093.540604683601	1
3	707	2118.272495163052	1
3	710	2123.862463980623	1
3	712	2125.583614538701	2
3	720	2148.351335550223	3
3	723	2158.513685384924	3
3	725	2159.742235841395	4
3	736	2189.21250810744	2
3	753	2228.011412246586	1
3	765	2256.953625658148	1
3	769	2270.467559923692	1
3	772	2277.145134657383	1
3	775	2292.356304954715	1
3	779	2296.559424856657	2
3	782	2299.848805152245	2
3	789	2312.593632662147	2
3	806	2345.24593224152	1
3	811	2353.399464487008	1
3	816	2372.427930054302	1
3	824	2398.96845263205	1
3	829	2404.701489116181	1
3	831	2408.893875339512	2
3	835	2418.968326914021	1
3	838	2427.010862944216	1
3	842	2443.433928593672	1
3	855	2480.621220096792	1
3	860	2496.852317827315	1
4	107	369.375255317272	0
4	116	404.258574086135	0
4	120	415.788676091801	0
4	135	443.919676013075	0
4	142	470.546870107225	0
4	145	482.759195715571	2.327199875415
4	149	495.029730108993	0
4	152	500.513567475372	0
4	158	517.809300423735	0
4	161	521.192237302952	0
4	167	541.925002229654	0
4	177	567.695925539455	0
4	206	660.252978140038	0
4	214	709.366630100926	0
4	224	743.646848964604	0
4	227	756.458935907148	0
4	236	767.120392425216	0
4	242	789.815789590426	0
4	248	831.608480159845	0
4	254	863.970073409175	0
4	273	898.688180290939	0
4	281	910.944778126664	0
4	284	921.364902624727	9.299835991295
4	289	934.472084532428	0
4	294	959.834294333765	0
4	299	982.321735692656	19.287711738762
4	304	996.6151457739	1.17412112361
4	308	1004.276199296497	0
4	314	1030.943152599568	0
4	323	1050.110245986447	0
4	328	1074.807943387107	0
4	331	1092.79524899864	6.301073218264
4	336	1113.605201043371	11.539675044761
4	340	1119.223715317434	0
4	345	1123.691498029429	1.801173282993
4	346	1129.249778830669	5.586299134432
4	373	1186.897939430832	0
4	380	1197.307452978329	5.35591375779
4	383	1202.276890746692	0
4	388	1210.569467601529	3.377373532017
4	393	1212.181010430185	0.097712183587
4	409	1247.010455122903	0
4	420	1272.276126545475	0
4	426	1284.608791838486	0
4	460	1387.632399260903	0
4	470	1403.412013724196	0
4	475	1410.545638659308	1.229712175303
4	487	1440.302525160037	0
4	492	1462.960146441721	0.404851706648
4	500	1489.486066902343	0
4	512	1507.762238717833	0
4	521	1533.228522866138	0
4	530	1558.498177338543	0
4	543	1590.470735222049	0
4	557	1645.874418155944	0
4	569	1688.598277283569	0
4	574	1712.358529860584	15.088831399046
4	578	1731.744765826945	0
4	581	1737.595552176882	0
4	586	1744.899527686484	0
4	591	1755.198627303625	0
4	599	1782.557906561692	0
4	607	1810.00658113624	0
4	613	1819.834207241802	0
4	617	1845.586409673488	0
4	625	1858.271437782732	0
4	630	1868.692586631094	0
4	637	1893.453134115984	0
4	653	1984.3531764257	0
4	656	1993.439770634155	0
4	663	2012.476463351471	7.061789036024
4	687	2057.829292268349	0
4	691	2067.19127090892	0
4	701	2093.540604683601	0
4	707	2118.272495163052	0
4	710	2123.862463980623	0
4	721	2155.998203327351	30.41458878865
4	732	2173.765504411188	25.414168860965
4	733	2185.598958679865	27.085273294941
4	734	2187.091472560026	27.349236718631
4	737	2190.245490699283	1.032982591843
4	753	2228.011412246586	0
4	765	2256.953625658148	0
4	769	2270.467559923692	0
4	772	2277.145134657383	0
4	775	2292.356304954715	0
4	780	2299.677721691161	3.118296834504
4	785	2307.223924518598	7.375119366353
4	790	2315.248505463691	2.654872801544
4	806	2345.24593224152	0
4	811	2353.399464487008	0
4	816	2372.427930054302	0
4	824	2398.96845263205	0
4	829	2404.701489116181	0
4	832	2412.954460506201	4.060585166689
4	835	2418.968326914021	0
4	838	2427.010862944216	0
4	842	2443.433928593672	0
4	855	2480.621220096792	0
4	860	2496.852317827315	0
5	109	371.428454236413	1
5	112	379.986863861076	2
5	114	395.021257206675	3
5	122	417.691158860307	3
5	124	417.768746423948	4
5	126	421.072557467293	5
5	130	433.814537796449	5
5	138	463.630412444253	3
5	140	470.359830547606	4
5	164	531.835727783523	1
5	170	545.735842246819	1
5	172	548.419911949221	2
5	175	555.877850808109	2
5	179	569.522566348088	3
5	185	594.588097799404	1
5	187	594.723498493885	2
5	191	608.945071005758	1
5	194	616.275439167019	1
5	197	620.923818266301	1
5	199	621.601290266756	2
5	202	637.090046419282	2
5	209	684.167801582365	1
5	212	709.16285528249	1
5	216	717.757271430641	2
5	218	718.045392031516	3
5	230	762.677663783651	1
5	232	763.28656225091	2
5	239	786.434714052225	1
5	245	829.942094076289	1
5	251	860.123245275448	1
5	257	868.991562028857	1
5	259	871.843821460826	2
5	261	880.577263881284	3
5	264	881.745853298224	3
5	266	882.765371839607	4
5	269	896.537610972527	4
5	276	899.438856359573	3
5	279	902.197197446133	3
5	287	932.332810932378	4
5	292	952.161783068151	5
5	298	979.984967426765	6
5	301	987.859947676768	7
5	312	1026.744618292188	6
5	319	1038.003365435396	5
5	326	1068.642082149576	4
5	335	1110.248103216479	5
5	349	1137.298605500816	5
5	354	1148.361240884622	3
5	356	1152.897534531526	4
5	358	1154.615124096591	5
5	360	1155.161321702679	6
5	362	1157.744931146806	7
5	364	1161.641318127063	8
5	367	1173.459868412107	8
5	370	1177.018135793593	8
5	375	1188.16593631478	8
5	377	1191.155887792914	9
5	385	1206.381412574575	10
5	390	1212.080921872059	11
5	396	1219.78073895902	12
5	400	1223.917804448963	11
5	405	1239.656786349834	9
5	407	1246.715685806339	10
5	413	1254.30076977234	10
5	417	1269.322943661284	9
5	424	1283.992089635319	8
5	428	1287.777441388839	9
5	431	1309.654287333817	10
5	433	1311.894865159409	11
5	435	1314.85287099989	12
5	441	1327.758510010883	9
5	444	1334.822389251959	9
5	447	1341.32280691913	9
5	449	1351.796199608016	10
5	452	1361.255839185612	10
5	456	1378.663174438461	9
5	458	1385.328595680736	10
5	462	1389.717600950076	11
5	464	1391.020084305241	12
5	468	1403.156566896991	12
5	472	1407.530103336559	13
5	478	1422.239776386622	14
5	482	1422.96826577364	13
5	489	1456.846955638369	11
5	504	1496.609246629092	6
5	507	1503.37058369672	6
5	509	1507.411170955324	7
5	516	1522.634494651859	6
5	524	1547.617075814217	4
5	526	1550.804700551009	5
5	528	1552.827942171286	6
5	532	1563.159119053008	7
5	534	1564.340001285528	8
5	536	1567.361565147334	9
5	541	1584.717340618009	8
5	554	1622.303113378868	1
5	560	1666.386029486739	1
5	563	1674.865839379387	1
5	565	1680.555641156491	2
5	573	1707.151599806334	1
5	583	1738.496654063738	1
5	589	1746.584421154711	2
5	595	1764.552572741082	2
5	602	1799.808354381247	1
5	604	1806.417895173122	2
5	609	1814.201397518397	2
5	620	1849.442789418636	1
5	623	1855.476270883942	1
5	628	1862.560431362815	2
5	632	1875.294776870277	3
5	640	1903.427333657945	2
5	644	1931.435281513109	1
5	647	1951.267684741188	1
5	650	1980.86844898072	1
5	658	1998.87717867359	1
5	662	2012.460709349494	2
5	668	2029.068386799403	1
5	670	2030.395308690961	2
5	672	2031.645694350001	3
5	677	2045.287901726369	1
5	679	2045.973030333128	2
5	681	2050.197610103287	3
5	684	2051.698198542392	3
5	693	2071.482975451895	2
5	695	2075.160559544983	3
5	704	2108.917750768846	1
5	714	2133.59501316262	1
5	716	2144.440883634482	2
5	718	2146.027633159291	3
5	727	2159.906224572841	4
5	729	2160.902350632988	5
5	731	2161.911569745286	6
5	740	2205.134416822031	7
5	744	2216.784785894478	6
5	746	2219.451455307317	7
5	748	2221.526371871138	8
5	757	2234.969048783332	5
5	762	2249.269705470698	3
5	777	2294.312466697931	2
5	784	2301.092573228429	3
5	787	2307.946388990344	4
5	795	2329.846021861258	3
5	797	2330.173858909721	4
5	799	2330.920131002088	5
5	802	2341.950758492066	5
5	804	2343.695700644416	6
5	809	2349.196854120966	7
5	814	2366.478152129841	8
5	819	2393.33792298607	9
5	827	2404.181312159116	7
5	844	2443.935519324341	7
5	848	2456.652437240254	7
5	851	2458.723023159238	7
5	858	2486.563364433927	6
6	109	371.428454236413	0
6	112	379.986863861076	1
6	114	395.021257206675	2
6	118	411.341041550056	2
6	122	417.691158860307	2
6	124	417.768746423948	3
6	126	421.072557467293	4
6	128	427.465737954558	4
6	130	433.814537796449	4
6	131	434.580200118674	4
6	132	435.169513743468	3
6	133	442.507454559832	2
6	138	463.630412444253	2
6	140	470.359830547606	3
6	147	493.747605366684	3
6	154	504.845802092664	2
6	155	507.638791275744	1
6	156	507.696111340749	0
6	164	531.835727783523	0
6	165	533.042131182148	0
6	170	545.735842246819	0
6	172	548.419911949221	1
6	173	555.854367062363	1
6	175	555.877850808109	1
6	179	569.522566348088	2
6	181	576.886571163479	2
6	182	579.883185378703	1
6	183	582.125455963258	0
6	185	594.588097799404	0
6	187	594.723498493885	1
6	188	596.186551449329	1
6	189	599.930407903529	0
6	191	608.945071005758	0
6	192	609.832712298273	0
6	194	616.275439167019	0
6	195	618.733072462031	0
6	197	620.923818266301	0
6	199	621.601290266756	1
6	200	635.644398694231	1
6	202	637.090046419282	1
6	203	642.581270598943	1
6	204	647.772859017964	0
6	209	684.167801582365	0
6	210	690.237602888414	0
6	212	709.16285528249	0
6	216	717.757271430641	1
6	218	718.045392031516	2
6	220	722.787696712908	2
6	221	729.20049291342	1
6	222	738.414504982251	0
6	230	762.677663783651	0
6	232	763.28656225091	1
6	233	764.840662750538	1
6	234	764.943479411779	0
6	239	786.434714052225	0
6	240	788.779948616803	0
6	245	829.942094076289	0
6	246	830.62818625294	0
6	251	860.123245275448	0
6	252	862.170590025254	0
6	257	868.991562028857	0
6	259	871.843821460826	1
6	261	880.577263881284	2
6	262	881.254794981934	2
6	264	881.745853298224	2
6	266	882.765371839607	3
6	267	884.03273274798	3
6	269	896.537610972527	3
6	270	896.581747514519	3
6	271	897.671485496706	2
6	276	899.438856359573	2
6	277	900.144693184588	2
6	279	902.197197446133	2
6	287	932.332810932378	3
6	292	952.161783068151	4
6	298	979.984967426765	5
6	301	987.859947676768	6
6	306	1002.367611828238	6
6	310	1021.678529996753	5
6	312	1026.744618292188	5
6	316	1037.007500350731	5
6	317	1037.671897107697	4
6	319	1038.003365435396	4
6	320	1039.133257153692	4
6	321	1042.992838296264	3
6	326	1068.642082149576	3
6	335	1110.248103216479	4
6	338	1114.849287119189	4
6	349	1137.298605500816	4
6	350	1137.434099538936	4
6	351	1137.775875380796	3
6	352	1139.377855190527	2
6	354	1148.361240884622	2
6	356	1152.897534531526	3
6	358	1154.615124096591	4
6	360	1155.161321702679	5
6	362	1157.744931146806	6
6	364	1161.641318127063	7
6	365	1166.516872545924	7
6	367	1173.459868412107	7
6	368	1174.601275864827	7
6	370	1177.018135793593	7
6	371	1183.025437387918	7
6	375	1188.16593631478	7
6	377	1191.155887792914	8
6	385	1206.381412574575	9
6	390	1212.080921872059	10
6	396	1219.78073895902	11
6	397	1223.612930570179	11
6	398	1223.775331586488	10
6	400	1223.917804448963	10
6	401	1229.573090336458	10
6	402	1235.606749993432	9
6	403	1238.820607930073	8
6	405	1239.656786349834	8
6	407	1246.715685806339	9
6	411	1247.816114453036	9
6	413	1254.30076977234	9
6	414	1256.035453976543	9
6	415	1264.967106702229	8
6	417	1269.322943661284	8
6	418	1270.039175869186	8
6	422	1281.142878800437	7
6	424	1283.992089635319	7
6	428	1287.777441388839	8
6	431	1309.654287333817	9
6	433	1311.894865159409	10
6	435	1314.85287099989	11
6	436	1319.246931762406	11
6	437	1319.28719274897	10
6	438	1320.202161329448	9
6	439	1322.301365909444	8
6	441	1327.758510010883	8
6	442	1331.226128974956	8
6	444	1334.822389251959	8
6	445	1340.845297043424	8
6	447	1341.32280691913	8
6	449	1351.796199608016	9
6	450	1352.199303574197	9
6	452	1361.255839185612	9
6	453	1366.925578580051	9
6	454	1374.624111211624	8
6	456	1378.663174438461	8
6	458	1385.328595680736	9
6	462	1389.717600950076	10
6	464	1391.020084305241	11
6	466	1394.25370742796	11
6	468	1403.156566896991	11
6	472	1407.530103336559	12
6	478	1422.239776386622	13
6	479	1422.389768396493	13
6	480	1422.405285088098	12
6	482	1422.96826577364	12
6	483	1428.401765177708	12
6	484	1432.839159012961	11
6	485	1438.907021166583	10
6	489	1456.846955638369	10
6	494	1468.293975488238	10
6	495	1469.593294301568	9
6	496	1473.156773884515	8
6	497	1474.522461173379	7
6	498	1486.286460544045	6
6	502	1495.627426204747	5
6	504	1496.609246629092	5
6	505	1501.162074804041	5
6	507	1503.37058369672	5
6	509	1507.411170955324	6
6	510	1507.730086276829	6
6	514	1521.492513825144	5
6	516	1522.634494651859	5
6	517	1527.059524408203	5
6	518	1528.582046685711	4
6	519	1533.226228609115	3
6	524	1547.617075814217	3
6	526	1550.804700551009	4
6	528	1552.827942171286	5
6	532	1563.159119053008	6
6	534	1564.340001285528	7
6	536	1567.361565147334	8
6	538	1572.352379649682	8
6	539	1573.257247209536	7
6	541	1584.717340618009	7
6	545	1595.540516627645	7
6	546	1598.147910685056	6
6	547	1601.796236106334	5
6	548	1602.623416642951	4
6	549	1607.124809261658	3
6	550	1609.150214494426	2
6	551	1609.599830745488	1
6	552	1611.485489880191	0
6	554	1622.303113378868	0
6	555	1645.753043858897	0
6	560	1666.386029486739	0
6	561	1668.640437920208	0
6	563	1674.865839379387	0
6	565	1680.555641156491	1
6	566	1681.859097063197	1
6	567	1683.652275831558	0
6	573	1707.151599806334	0
6	576	1727.059952110457	0
6	583	1738.496654063738	0
6	589	1746.584421154711	1
6	593	1763.465662524679	1
6	595	1764.552572741082	1
6	596	1773.452692502305	1
6	597	1776.768240303788	0
6	602	1799.808354381247	0
6	604	1806.417895173122	1
6	605	1806.870194479605	1
6	609	1814.201397518397	1
6	611	1814.783291345767	1
6	615	1832.421718716646	0
6	620	1849.442789418636	0
6	621	1851.959562342155	0
6	623	1855.476270883942	0
6	628	1862.560431362815	1
6	632	1875.294776870277	2
6	634	1878.246042743636	2
6	635	1886.105682542734	1
6	640	1903.427333657945	1
6	641	1905.660811115998	1
6	642	1914.991802102948	0
6	644	1931.435281513109	0
6	645	1943.628499328053	0
6	647	1951.267684741188	0
6	648	1969.617780080665	0
6	650	1980.86844898072	0
6	651	1981.561027330159	0
6	658	1998.87717867359	0
6	662	2012.460709349494	1
6	665	2025.154521697988	1
6	666	2028.290007874151	0
6	668	2029.068386799403	0
6	670	2030.395308690961	1
6	672	2031.645694350001	2
6	673	2032.932420518368	2
6	674	2033.185504211143	1
6	675	2039.034149064459	0
6	677	2045.287901726369	0
6	679	2045.973030333128	1
6	681	2050.197610103287	2
6	682	2050.8210357519	2
6	684	2051.698198542392	2
6	685	2052.515351401617	2
6	689	2063.285066010176	1
6	693	2071.482975451895	1
6	695	2075.160559544983	2
6	697	2078.632631734258	2
6	698	2079.000110520437	1
6	699	2091.647405054883	0
6	704	2108.917750768846	0
6	705	2110.381294009483	0
6	714	2133.59501316262	0
6	716	2144.440883634482	1
6	718	2146.027633159291	2
6	727	2159.906224572841	3
6	729	2160.902350632988	4
6	731	2161.911569745286	5
6	740	2205.134416822031	6
6	741	2213.433693896019	6
6	742	2216.617874557471	5
6	744	2216.784785894478	5
6	746	2219.451455307317	6
6	748	2221.526371871138	7
6	749	2223.841397698208	7
6	750	2225.802088776031	6
6	751	2226.811127625487	5
6	755	2232.051341415598	4
6	757	2234.969048783332	4
6	758	2235.089419129436	4
6	759	2237.777412470297	3
6	760	2244.907182288864	2
6	762	2249.269705470698	2
6	763	2254.80310230298	2
6	767	2265.830284070485	1
6	777	2294.312466697931	1
6	784	2301.092573228429	2
6	787	2307.946388990344	3
6	792	2323.422513954708	3
6	793	2325.221092153683	2
6	795	2329.846021861258	2
6	797	2330.173858909721	3
6	799	2330.920131002088	4
6	800	2331.352169534816	4
6	802	2341.950758492066	4
6	804	2343.695700644416	5
6	809	2349.196854120966	6
6	814	2366.478152129841	7
6	819	2393.33792298607	8
6	820	2396.443964339257	8
6	821	2397.066586381369	7
6	822	2397.895646965149	6
6	827	2404.181312159116	6
6	840	2440.14964767999	6
6	844	2443.935519324341	6
6	846	2455.377578302021	6
6	848	2456.652437240254	6
6	849	2458.350415101509	6
6	851	2458.723023159238	6
6	852	2464.304397284366	6
6	853	2472.725138026008	5
6	858	2486.563364433927	5
7	110	374.572096856386	3.143642619973
7	117	409.885659788877	29.898795927801
7	118	411.341041550056	16.319784343381
7	127	424.316407798322	20.057833712187
7	128	427.465737954558	11.677061862757
7	131	434.580200118674	16.889041258367
7	132	435.169513743468	17.40076731952
7	133	442.507454559832	21.434897092539
7	136	459.152502260628	25.337964464179
7	146	485.772177922575	41.8525019095
7	147	493.747605366684	30.117192922431
7	150	498.626391939106	28.2665613915
7	153	504.257053352101	33.710183244876
7	154	504.845802092664	9.816071983671
7	155	507.638791275744	7.125223800372
7	164	531.835727783523	0
7	170	545.735842246819	0
7	173	555.854367062363	7.434455113142
7	180	576.063746180305	20.185895372196
7	181	576.886571163479	9.190645624024
7	182	579.883185378703	10.360619030615
7	185	594.588097799404	0
7	188	596.186551449329	1.463052955444
7	191	608.945071005758	0
7	194	616.275439167019	0
7	197	620.923818266301	0
7	200	635.644398694231	14.043108427475
7	203	642.581270598943	5.491224179661
7	209	684.167801582365	0
7	212	709.16285528249	0
7	219	718.248680496811	8.882050395885
7	220	722.787696712908	5.030425282267
7	221	729.20049291342	11.155100881904
7	230	762.677663783651	0
7	233	764.840662750538	1.554100499628
7	239	786.434714052225	0
7	245	829.942094076289	0
7	251	860.123245275448	0
7	257	868.991562028857	0
7	262	881.254794981934	9.410973521108
7	267	884.03273274798	3.455468866696
7	270	896.581747514519	14.835894216295
7	271	897.671485496706	14.906113657099
7	274	898.877288712772	2.339677740245
7	277	900.144693184588	1.456512893649
7	285	928.24738246704	28.808526107467
7	290	936.678801074628	34.481603628495
7	305	998.578332247422	87.633554120758
7	306	1002.367611828238	70.03480089586
7	309	1005.710382177519	71.238297645091
7	310	1021.678529996753	69.516746928602
7	315	1036.906834399104	77.072540065339
7	316	1037.007500350731	57.022532923966
7	317	1037.671897107697	49.811949430929
7	320	1039.133257153692	34.857057857195
7	321	1042.992838296264	16.248220004076
7	324	1061.842421867361	30.899269267793
7	337	1114.677039236101	76.673673800705
7	338	1114.849287119189	64.739041132742
7	347	1132.891503979849	64.249421830273
7	350	1137.434099538936	62.626156151829
7	351	1137.775875380796	27.527772164317
7	352	1139.377855190527	20.154139873093
7	365	1166.516872545924	29.218267045108
7	368	1174.601275864827	26.240034980205
7	371	1183.025437387918	30.127902856392
7	381	1200.625077428883	46.009953332292
7	394	1216.910865530826	61.749543828147
7	397	1223.612930570179	65.867999423373
7	398	1223.775331586488	62.134013459425
7	401	1229.573090336458	56.113221924351
7	402	1235.606749993432	58.588614199839
7	403	1238.820607930073	51.922668499241
7	410	1247.804609813255	59.638673498475
7	411	1247.816114453036	56.660226660122
7	414	1256.035453976543	53.758563229851
7	415	1264.967106702229	58.585694127654
7	418	1270.039175869186	57.958253997127
7	421	1273.995301751001	54.214562791981
7	422	1281.142878800437	57.225074351474
7	429	1289.551369399355	49.894583049521
7	436	1319.246931762406	72.531245956067
7	437	1319.28719274897	72.276737626067
7	438	1320.202161329448	65.901391557108
7	439	1322.301365909444	52.97842224816
7	442	1331.226128974956	58.950002429481
7	445	1340.845297043424	56.853207408105
7	450	1352.199303574197	67.590511735711
7	453	1366.925578580051	79.148137191212
7	454	1374.624111211624	64.969823877807
7	465	1392.693754982952	80.798889823543
7	466	1394.25370742796	79.40083642807
7	476	1414.039347624436	86.280837613553
7	479	1422.389768396493	87.567379144534
7	480	1422.405285088098	81.082478168968
7	483	1428.401765177708	76.605565569692
7	484	1432.839159012961	71.583319827349
7	485	1438.907021166583	60.243846728122
7	493	1467.827204945701	82.498609264965
7	494	1468.293975488238	80.661576227335
7	495	1469.593294301568	79.875693351492
7	496	1473.156773884515	82.136689579274
7	497	1474.522461173379	71.365894276388
7	498	1486.286460544045	82.874446819849
7	501	1492.702603001385	85.172499664826
7	502	1495.627426204747	73.387649818125
7	505	1501.162074804041	78.193809030401
7	510	1507.730086276829	67.427561116792
7	513	1511.178739568994	54.331783930625
7	514	1521.492513825144	32.006446922801
7	517	1527.059524408203	30.450277779111
7	518	1528.582046685711	25.211462988991
7	519	1533.226228609115	25.815057653791
7	522	1535.6560857865	27.893847068667
7	537	1572.145573695894	49.511079044035
7	538	1572.352379649682	39.123856783544
7	539	1573.257247209536	25.640171395319
7	544	1594.90701647449	44.102315923481
7	545	1595.540516627645	42.712574456359
7	546	1598.147910685056	39.649733346513
7	547	1601.796236106334	38.637117053326
7	548	1602.623416642951	38.283415357423
7	549	1607.124809261658	39.763244114324
7	550	1609.150214494426	24.432873876417
7	551	1609.599830745488	19.129095523439
7	554	1622.303113378868	0
7	560	1666.386029486739	0
7	563	1674.865839379387	0
7	566	1681.859097063197	1.303455906706
7	575	1715.185054095412	8.033454289078
7	584	1743.971258822437	5.474604758699
7	587	1746.054420653126	1.154892966642
7	592	1757.621364611866	11.036943457155
7	593	1763.465662524679	8.267035221054
7	596	1773.452692502305	8.900119761223
7	602	1799.808354381247	0
7	605	1806.870194479605	0.452299306483
7	610	1814.529226397572	4.522645261332
7	611	1814.783291345767	0.58189382737
7	614	1825.777074685863	5.942867444061
7	620	1849.442789418636	0
7	623	1855.476270883942	0
7	626	1861.056690122061	2.785252339329
7	633	1876.726512660287	14.166081297472
7	634	1878.246042743636	9.553456112542
7	635	1886.105682542734	10.810905672457
7	638	1895.945298720578	2.492164604594
7	641	1905.660811115998	2.233477458053
7	644	1931.435281513109	0
7	647	1951.267684741188	0
7	650	1980.86844898072	0
7	664	2017.085272404028	18.208093730438
7	665	2025.154521697988	12.693812348494
7	668	2029.068386799403	0
7	673	2032.932420518368	2.537111827407
7	674	2033.185504211143	1.539809861142
7	677	2045.287901726369	0
7	682	2050.8210357519	4.848005418772
7	685	2052.515351401617	2.31774129833
7	688	2062.089289417427	10.391090875035
7	689	2063.285066010176	5.455773741827
7	696	2076.720431353892	9.529160444972
7	697	2078.632631734258	7.149656282363
7	698	2079.000110520437	3.839550975454
7	704	2108.917750768846	0
7	738	2200.380888029195	66.785874866575
7	741	2213.433693896019	68.992810261537
7	742	2216.617874557471	70.59024139818
7	749	2223.841397698208	63.935173125367
7	750	2225.802088776031	64.899738143043
7	751	2226.811127625487	64.899557880201
7	754	2230.690108208044	25.555691386013
7	755	2232.051341415598	15.26655552112
7	758	2235.089419129436	15.637963822119
7	759	2237.777412470297	16.251040599159
7	760	2244.907182288864	16.895770042278
7	763	2254.80310230298	19.834053519648
7	766	2261.069841271359	11.800135800661
7	767	2265.830284070485	8.876658412337
7	770	2275.7257268473	5.258166923608
7	773	2281.31450758657	4.169372929187
7	791	2320.798821673414	28.442516718699
7	792	2323.422513954708	29.110047256777
7	793	2325.221092153683	24.128518925254
7	800	2331.352169534816	23.405780544472
7	807	2347.49546646419	17.649444602932
7	812	2357.419078591596	27.245219681875
7	817	2376.32439370784	45.404262705752
7	820	2396.443964339257	54.493205847191
7	821	2397.066586381369	53.370885736953
7	822	2397.895646965149	52.649714723629
7	825	2398.979161869137	49.782307748171
7	833	2413.680459554476	60.280995067468
7	836	2423.310289722791	56.83213759295
7	839	2436.279274617715	63.851344563413
7	840	2440.14964767999	46.81172469392
7	845	2454.849286363453	55.880833731403
7	846	2455.377578302021	51.196266142905
7	849	2458.350415101509	53.648925985328
7	852	2464.304397284366	45.336070370345
7	853	2472.725138026008	45.714275081792
7	856	2486.19419805096	42.760269457288
8	116	404.258574086135	10
8	120	415.788676091801	11
8	135	443.919676013075	12
8	142	470.546870107225	13
8	149	495.029730108993	14
8	152	500.513567475372	15
8	177	567.695925539455	16
8	214	709.366630100926	17
8	273	898.688180290939	18
8	281	910.944778126664	19
8	289	934.472084532428	20
8	294	959.834294333765	21
8	308	1004.276199296497	22
8	314	1030.943152599568	23
8	323	1050.110245986447	24
8	328	1074.807943387107	25
8	340	1119.223715317434	26
8	373	1186.897939430832	27
8	383	1202.276890746692	28
8	409	1247.010455122903	29
8	420	1272.276126545475	30
8	426	1284.608791838486	31
8	460	1387.632399260903	32
8	470	1403.412013724196	33
8	487	1440.302525160037	34
8	500	1489.486066902343	35
8	512	1507.762238717833	36
8	521	1533.228522866138	37
8	530	1558.498177338543	38
8	543	1590.470735222049	39
8	586	1744.899527686484	40
8	591	1755.198627303625	41
8	607	1810.00658113624	42
8	613	1819.834207241802	43
8	625	1858.271437782732	44
8	630	1868.692586631094	45
8	637	1893.453134115984	46
8	687	2057.829292268349	47
8	691	2067.19127090892	48
8	753	2228.011412246586	49
8	765	2256.953625658148	50
8	769	2270.467559923692	51
8	772	2277.145134657383	52
8	775	2292.356304954715	53
8	806	2345.24593224152	54
8	811	2353.399464487008	55
8	816	2372.427930054302	56
8	824	2398.96845263205	57
8	829	2404.701489116181	58
8	835	2418.968326914021	59
8	838	2427.010862944216	60
8	842	2443.433928593672	61
8	855	2480.621220096792	62
8	860	2496.852317827315	63
9	118	411.341041550056	18
9	128	427.465737954558	19
9	131	434.580200118674	20
9	132	435.169513743468	21
9	133	442.507454559832	22
9	147	493.747605366684	23
9	154	504.845802092664	24
9	155	507.638791275744	25
9	156	507.696111340749	26
9	165	533.042131182148	27
9	173	555.854367062363	28
9	181	576.886571163479	29
9	182	579.883185378703	30
9	183	582.125455963258	31
9	188	596.186551449329	32
9	189	599.930407903529	33
9	192	609.832712298273	34
9	195	618.733072462031	35
9	200	635.644398694231	36
9	203	642.581270598943	37
9	204	647.772859017964	38
9	210	690.237602888414	39
9	220	722.787696712908	40
9	221	729.20049291342	41
9	222	738.414504982251	42
9	233	764.840662750538	43
9	234	764.943479411779	44
9	240	788.779948616803	45
9	246	830.62818625294	46
9	252	862.170590025254	47
9	262	881.254794981934	48
9	267	884.03273274798	49
9	270	896.581747514519	50
9	271	897.671485496706	51
9	277	900.144693184588	52
9	306	1002.367611828238	53
9	310	1021.678529996753	54
9	316	1037.007500350731	55
9	317	1037.671897107697	56
9	320	1039.133257153692	57
9	321	1042.992838296264	58
9	338	1114.849287119189	59
9	350	1137.434099538936	60
9	351	1137.775875380796	61
9	352	1139.377855190527	62
9	365	1166.516872545924	63
9	368	1174.601275864827	64
9	371	1183.025437387918	65
9	397	1223.612930570179	66
9	398	1223.775331586488	67
9	401	1229.573090336458	68
9	402	1235.606749993432	69
9	403	1238.820607930073	70
9	411	1247.816114453036	71
9	414	1256.035453976543	72
9	415	1264.967106702229	73
9	418	1270.039175869186	74
9	422	1281.142878800437	75
9	436	1319.246931762406	76
9	437	1319.28719274897	77
9	438	1320.202161329448	78
9	439	1322.301365909444	79
9	442	1331.226128974956	80
9	445	1340.845297043424	81
9	450	1352.199303574197	82
9	453	1366.925578580051	83
9	454	1374.624111211624	84
9	466	1394.25370742796	85
9	479	1422.389768396493	86
9	480	1422.405285088098	87
9	483	1428.401765177708	88
9	484	1432.839159012961	89
9	485	1438.907021166583	90
9	494	1468.293975488238	91
9	495	1469.593294301568	92
9	496	1473.156773884515	93
9	497	1474.522461173379	94
9	498	1486.286460544045	95
9	502	1495.627426204747	96
9	505	1501.162074804041	97
9	510	1507.730086276829	98
9	514	1521.492513825144	99
9	517	1527.059524408203	100
9	518	1528.582046685711	101
9	519	1533.226228609115	102
9	538	1572.352379649682	103
9	539	1573.257247209536	104
9	545	1595.540516627645	105
9	546	1598.147910685056	106
9	547	1601.796236106334	107
9	548	1602.623416642951	108
9	549	1607.124809261658	109
9	550	1609.150214494426	110
9	551	1609.599830745488	111
9	552	1611.485489880191	112
9	555	1645.753043858897	113
9	561	1668.640437920208	114
9	566	1681.859097063197	115
9	567	1683.652275831558	116
9	576	1727.059952110457	117
9	593	1763.465662524679	118
9	596	1773.452692502305	119
9	597	1776.768240303788	120
9	605	1806.870194479605	121
9	611	1814.783291345767	122
9	615	1832.421718716646	123
9	621	1851.959562342155	124
9	634	1878.246042743636	125
9	635	1886.105682542734	126
9	641	1905.660811115998	127
9	642	1914.991802102948	128
9	645	1943.628499328053	129
9	648	1969.617780080665	130
9	651	1981.561027330159	131
9	665	2025.154521697988	132
9	666	2028.290007874151	133
9	673	2032.932420518368	134
9	674	2033.185504211143	135
9	675	2039.034149064459	136
9	682	2050.8210357519	137
9	685	2052.515351401617	138
9	689	2063.285066010176	139
9	697	2078.632631734258	140
9	698	2079.000110520437	141
9	699	2091.647405054883	142
9	705	2110.381294009483	143
9	741	2213.433693896019	144
9	742	2216.617874557471	145
9	749	2223.841397698208	146
9	750	2225.802088776031	147
9	751	2226.811127625487	148
9	755	2232.051341415598	149
9	758	2235.089419129436	150
9	759	2237.777412470297	151
9	760	2244.907182288864	152
9	763	2254.80310230298	153
9	767	2265.830284070485	154
9	792	2323.422513954708	155
9	793	2325.221092153683	156
9	800	2331.352169534816	157
9	820	2396.443964339257	158
9	821	2397.066586381369	159
9	822	2397.895646965149	160
9	840	2440.14964767999	161
9	846	2455.377578302021	162
9	849	2458.350415101509	163
9	852	2464.304397284366	164
9	853	2472.725138026008	165
10	118	411.341041550056	31.35417768898
10	128	427.465737954558	23.207163868423
10	131	434.580200118674	18.791524026873
10	132	435.169513743468	17.478354883161
10	133	442.507454559832	24.738708135884
10	147	493.747605366684	49.827929353609
10	154	504.845802092664	34.298931985439
10	155	507.638791275744	12.609061166751
10	156	507.696111340749	7.182543865377
10	165	533.042131182148	1.206403398625
10	173	555.854367062363	10.118524815544
10	181	576.886571163479	21.00872035537
10	182	579.883185378703	12.187259839248
10	183	582.125455963258	12.60288961517
10	188	596.186551449329	1.598453649925
10	189	599.930407903529	5.206909409644
10	192	609.832712298273	0.887641292515
10	195	618.733072462031	2.457633295012
10	200	635.644398694231	14.72058042793
10	203	642.581270598943	20.979980332187
10	204	647.772859017964	10.682812598682
10	210	690.237602888414	6.069801306049
10	220	722.787696712908	13.421066611982
10	221	729.20049291342	11.443221482779
10	222	738.414504982251	20.369112950735
10	233	764.840662750538	2.162998966887
10	234	764.943479411779	1.656917160869
10	240	788.779948616803	2.345234564578
10	246	830.62818625294	0.686092176651
10	252	862.170590025254	2.047344749806
10	262	881.254794981934	12.263232953077
10	267	884.03273274798	12.188911287154
10	270	896.581747514519	16.004483633235
10	271	897.671485496706	15.925632198482
10	277	900.144693184588	3.607082212061
10	306	1002.367611828238	91.422833701574
10	310	1021.678529996753	87.206445464325
10	316	1037.007500350731	77.173206016966
10	317	1037.671897107697	57.686929680932
10	320	1039.133257153692	51.273309476924
10	321	1042.992838296264	38.716638999767
10	338	1114.849287119189	76.845921683793
10	350	1137.434099538936	68.79201738936
10	351	1137.775875380796	62.967931993689
10	352	1139.377855190527	29.129751974048
10	365	1166.516872545924	47.29315722849
10	368	1174.601275864827	37.302670364011
10	371	1183.025437387918	34.664196503296
10	397	1223.612930570179	68.4516088675
10	398	1223.775331586488	66.030400439682
10	401	1229.573090336458	67.931772209395
10	402	1235.606749993432	62.146881581325
10	403	1238.820607930073	61.80247213648
10	411	1247.816114453036	59.650178138256
10	414	1256.035453976543	64.879566183629
10	415	1264.967106702229	62.690215955537
10	418	1270.039175869186	63.657763294611
10	422	1281.142878800437	61.362139841417
10	436	1319.246931762406	79.590145412572
10	437	1319.28719274897	72.571506942631
10	438	1320.202161329448	73.191706206545
10	439	1322.301365909444	68.000596137104
10	442	1331.226128974956	61.903185313672
10	445	1340.845297043424	68.569170497949
10	450	1352.199303574197	68.207213938878
10	453	1366.925578580051	82.316786741565
10	454	1374.624111211624	86.846669822785
10	466	1394.25370742796	82.358842268551
10	479	1422.389768396493	94.63125838561
10	480	1422.405285088098	87.582895836139
10	483	1428.401765177708	87.078958258578
10	484	1432.839159012961	81.042959404945
10	485	1438.907021166583	77.651181980971
10	494	1468.293975488238	82.965379807502
10	495	1469.593294301568	81.960895040665
10	496	1473.156773884515	83.439172934439
10	497	1474.522461173379	83.502376868138
10	498	1486.286460544045	83.129893647054
10	502	1495.627426204747	88.097322868188
10	505	1501.162074804041	78.922298417419
10	510	1507.730086276829	84.761820503189
10	514	1521.492513825144	64.645558186775
10	517	1527.059524408203	37.57345750586
10	518	1528.582046685711	31.972800056619
10	519	1533.226228609115	29.855644912395
10	538	1572.352379649682	49.717884997823
10	539	1573.257247209536	40.028724343398
10	545	1595.540516627645	44.735816076636
10	546	1598.147910685056	45.31996851377
10	547	1601.796236106334	43.298058767791
10	548	1602.623416642951	39.464297589943
10	549	1607.124809261658	42.78480797613
10	550	1609.150214494426	41.788649347092
10	551	1609.599830745488	24.882490127479
10	552	1611.485489880191	21.014754658142
10	555	1645.753043858897	23.449930480029
10	561	1668.640437920208	2.254408433469
10	566	1681.859097063197	6.99325768381
10	567	1683.652275831558	3.096634675067
10	576	1727.059952110457	19.908352304123
10	593	1763.465662524679	16.881241369968
10	596	1773.452692502305	18.25406519868
10	597	1776.768240303788	12.215667562706
10	605	1806.870194479605	7.061840098358
10	611	1814.783291345767	4.776710209527
10	615	1832.421718716646	12.587511474844
10	621	1851.959562342155	2.516772923519
10	634	1878.246042743636	15.685611380821
10	635	1886.105682542734	17.41309591164
10	641	1905.660811115998	12.207677000014
10	642	1914.991802102948	11.564468445003
10	645	1943.628499328053	12.193217814944
10	648	1969.617780080665	18.350095339477
10	651	1981.561027330159	0.692578349439
10	665	2025.154521697988	26.277343024398
10	666	2028.290007874151	15.829298524657
10	673	2032.932420518368	3.864033718965
10	674	2033.185504211143	2.790195520182
10	675	2039.034149064459	7.388454714458
10	682	2050.8210357519	5.533134025531
10	685	2052.515351401617	6.542321068489
10	689	2063.285066010176	11.586867467784
10	697	2078.632631734258	11.441360825338
10	698	2079.000110520437	7.517135068542
10	699	2091.647405054883	16.4868455099
10	705	2110.381294009483	1.463543240637
10	741	2213.433693896019	79.838680733399
10	742	2216.617874557471	72.176990922989
10	749	2223.841397698208	77.813764538917
10	750	2225.802088776031	65.89586420319
10	751	2226.811127625487	65.908776992499
10	755	2232.051341415598	26.916924593567
10	758	2235.089419129436	18.304633234958
10	759	2237.777412470297	18.32595716298
10	760	2244.907182288864	23.380810417726
10	763	2254.80310230298	26.791690056394
10	767	2265.830284070485	16.560578599787
10	792	2323.422513954708	31.066208999993
10	793	2325.221092153683	30.908625455752
10	800	2331.352169534816	30.259596306387
10	820	2396.443964339257	65.523833337169
10	821	2397.066586381369	55.115827889303
10	822	2397.895646965149	54.199946320733
10	840	2440.14964767999	67.721717625688
10	846	2455.377578302021	56.409125669971
10	849	2458.350415101509	54.169102942393
10	852	2464.304397284366	59.602908168185
10	853	2472.725138026008	53.756811111987
11	861	2500	0.066
12	861	2500	0.0468

