version 2
run analysis_2kr_hard_game_mode-10-20230307-21:33:03-5123
attr configname analysis_2kr_hard_game_mode
attr datetime 20230307-21:33:03
attr experiment analysis_2kr_hard_game_mode
attr inifile omnetpp.ini
attr iterationvars "$0=20, $1=7.5, $2=10, $3=7, $4=0"
attr iterationvarsf 20,7.5,10,7,0-
attr measurement "$0=20, $1=7.5, $2=10, $3=7, $4=0"
attr network Network
attr processid 5123
attr repetition 0
attr replication #0
attr resultdir results
attr runnumber 10
attr seedset 0
param *.boss.arrival_mean 20
param *.boss.service_mean 7.5
param *.minion.arrival_mean 10
param *.minion.service_mean 7
param *.player.recover_rate_x 0
param **.minion.arrival_distribution 0
param **.minion.service_distribution 0
param **.boss.arrival_distribution 0
param **.boss.service_distribution 0

vector 0 Network.player boss_defeated_stat:vector ETV
attr source signal_boss_defeated
vector 1 Network.player boss_jobs_queue_number_stat:vector ETV
attr source signal_boss_jobs_queue_number
vector 2 Network.player boss_response_time_stat:vector ETV
attr source signal_boss_response_time
vector 3 Network.player minion_waiting_time_stat:vector ETV
attr source signal_minion_waiting_time
vector 4 Network.player minion_jobs_number_stat:vector ETV
attr source signal_minion_jobs_number
vector 5 Network.player minion_jobs_queue_number_stat:vector ETV
attr source signal_minion_jobs_queue_number
vector 6 Network.player boss_jobs_number_stat:vector ETV
attr source signal_boss_jobs_number
vector 7 Network.player minion_recovered_stat:vector ETV
attr source signal_minion_recovered
vector 8 Network.player boss_waiting_time_stat:vector ETV
attr source signal_boss_waiting_time
vector 9 Network.player minion_defeated_stat:vector ETV
attr source signal_minion_defeated
vector 10 Network.player minion_response_time_stat:vector ETV
attr source signal_minion_response_time
vector 11 Network.player minion_throughput:vector ETV
attr source signal_minion_throughput
vector 12 Network.player boss_throughput:vector ETV
attr source signal_boss_throughput
0	164	351.172515206455	22
0	169	369.63588368302	23
0	179	392.564213797362	24
0	180	400.41956037109	25
0	189	406.554382468712	26
0	193	421.594949675366	27
0	201	440.099301010339	28
0	206	449.359328138039	29
0	210	471.431551547816	30
0	220	503.818934841795	31
0	223	522.158820978227	32
0	233	541.75934438983	33
0	245	568.267278371276	34
0	250	577.151167557776	35
0	261	608.746583607557	36
0	265	621.214746354712	37
0	270	626.720397219685	38
0	271	630.742770456593	39
0	298	700.442300669245	40
0	311	710.981637046054	41
0	316	718.27305995981	42
0	327	727.133236571974	43
0	330	733.758646155791	44
0	337	739.20102534352	45
0	340	741.612076096534	46
0	341	742.891811911803	47
0	350	747.904975419837	48
0	351	753.805126094126	49
0	358	770.344752694925	50
0	362	789.24442323173	51
0	373	807.321566832204	52
0	374	810.065121405933	53
0	375	812.298976050545	54
0	378	814.181285722529	55
0	393	852.906650701801	56
0	394	856.588970942082	57
0	400	867.844544931382	58
0	413	888.506181027631	59
0	414	888.662405629147	60
0	421	916.633737857749	61
0	422	917.788644689801	62
0	425	926.157985493468	63
0	426	929.109207644297	64
0	433	947.493542247028	65
0	442	963.663582687025	66
0	449	978.46609514915	67
0	463	999.775190244183	68
0	475	1013.59115955406	69
0	485	1035.933730406821	70
0	491	1042.297161355079	71
0	495	1064.564349799366	72
0	506	1100.06921269154	73
0	545	1197.609842662148	74
0	558	1209.47734048056	75
0	563	1218.854187393768	76
0	566	1222.219700184473	77
0	567	1222.395117463165	78
0	576	1238.702066492781	79
0	596	1277.884649347667	80
0	620	1345.745109147739	81
0	633	1362.284348185392	82
0	639	1374.689510896242	83
0	644	1385.184386275621	84
0	653	1421.25315992369	85
0	681	1525.96809534112	86
0	685	1529.860171478063	87
0	693	1536.553040208432	88
0	700	1556.184289363686	89
0	709	1565.534726836588	90
0	717	1583.51381073425	91
0	724	1610.017870771372	92
0	733	1619.966596641545	93
0	742	1637.440673289671	94
0	753	1654.549286705483	95
0	762	1677.169506715073	96
0	765	1682.44850421427	97
0	769	1689.929171770027	98
0	797	1752.432225990515	99
0	807	1780.481090004696	100
0	815	1797.333607689534	101
0	831	1839.985670320635	102
0	832	1841.672183552615	103
0	851	1890.636667780304	104
0	858	1904.67953499522	105
0	881	1947.679798525952	106
0	895	1972.627126282528	107
0	906	1995.268326215086	108
0	911	2001.803586203146	109
0	916	2006.270163179069	110
0	919	2009.642862439619	111
0	927	2033.226495932023	112
0	934	2044.754840556696	113
0	939	2052.270776469669	114
0	940	2062.571000618384	115
0	952	2096.640755269498	116
0	994	2202.699284964573	117
0	1013	2262.950027283828	118
0	1030	2329.84481003398	119
0	1035	2337.916138904189	120
0	1049	2370.787395593847	121
0	1062	2405.419221195155	122
0	1066	2418.184781279479	123
0	1074	2439.47216686208	124
0	1082	2466.507124154132	125
0	1091	2482.336260335981	126
0	1092	2488.714925074732	127
1	164	351.172515206455	0
1	168	365.058342191057	0
1	169	369.63588368302	0
1	174	388.037052425803	0
1	178	390.927857908176	1
1	179	392.564213797362	1
1	180	400.41956037109	0
1	188	404.73333087535	0
1	189	406.554382468712	0
1	192	419.146910101711	0
1	193	421.594949675366	0
1	200	436.823234710174	0
1	201	440.099301010339	0
1	203	440.900837049397	0
1	206	449.359328138039	0
1	209	466.342603331937	0
1	210	471.431551547816	0
1	217	497.116149187221	0
1	219	503.09769978815	1
1	220	503.818934841795	1
1	223	522.158820978227	0
1	232	541.577288411556	0
1	233	541.75934438983	0
1	240	557.379584999622	0
1	245	568.267278371276	0
1	247	571.013320665705	0
1	250	577.151167557776	0
1	252	581.474923170251	0
1	261	608.746583607557	0
1	264	618.964030904645	0
1	265	621.214746354712	0
1	267	622.85963881137	0
1	269	624.51956532149	1
1	270	626.720397219685	1
1	271	630.742770456593	0
1	297	694.407150928009	0
1	298	700.442300669245	0
1	308	708.481046712107	0
1	311	710.981637046054	0
1	313	715.529536791828	0
1	315	716.879841144914	1
1	316	718.27305995981	1
1	324	723.6697040014	1
1	327	727.133236571974	1
1	330	733.758646155791	0
1	332	734.846307524025	0
1	336	737.31664614593	1
1	337	739.20102534352	1
1	339	739.346914019748	1
1	340	741.612076096534	1
1	341	742.891811911803	0
1	343	743.358100075954	0
1	347	746.078159748484	1
1	350	747.904975419837	1
1	351	753.805126094126	0
1	355	759.713988500873	0
1	358	770.344752694925	0
1	361	777.877727033664	0
1	362	789.24442323173	0
1	366	794.561121372008	0
1	368	799.685099640979	1
1	370	804.701437837468	2
1	372	806.963595367265	3
1	373	807.321566832204	3
1	374	810.065121405933	2
1	375	812.298976050545	1
1	378	814.181285722529	0
1	386	836.140137449287	0
1	388	841.117217619398	1
1	393	852.906650701801	1
1	394	856.588970942082	0
1	397	858.339450889291	0
1	399	866.949764860109	1
1	400	867.844544931382	1
1	402	870.623974825057	1
1	406	883.238222931355	2
1	413	888.506181027631	2
1	414	888.662405629147	1
1	416	892.398818790866	1
1	418	896.905318042219	2
1	420	909.552892526914	3
1	421	916.633737857749	3
1	422	917.788644689801	2
1	425	926.157985493468	1
1	426	929.109207644297	0
1	428	930.008526162325	0
1	433	947.493542247028	0
1	435	951.250248410845	0
1	442	963.663582687025	0
1	446	964.447198103986	0
1	449	978.46609514915	0
1	460	995.956600520193	0
1	463	999.775190244183	0
1	474	1010.030117456946	0
1	475	1013.59115955406	0
1	484	1031.787232155939	0
1	485	1035.933730406821	0
1	490	1041.57153689313	0
1	491	1042.297161355079	0
1	494	1060.559683230173	0
1	495	1064.564349799366	0
1	505	1092.122097599442	0
1	506	1100.06921269154	0
1	542	1186.006490948789	0
1	545	1197.609842662148	0
1	549	1203.356701488495	0
1	553	1205.901663236199	1
1	557	1209.443534644607	2
1	558	1209.47734048056	2
1	560	1212.660171838827	2
1	563	1218.854187393768	2
1	566	1222.219700184473	1
1	567	1222.395117463165	0
1	575	1236.78984715634	0
1	576	1238.702066492781	0
1	595	1275.038720804297	0
1	596	1277.884649347667	0
1	619	1341.831971966471	0
1	620	1345.745109147739	0
1	630	1356.079627233473	0
1	633	1362.284348185392	0
1	638	1369.942905406479	0
1	639	1374.689510896242	0
1	641	1374.84225275845	0
1	644	1385.184386275621	0
1	652	1418.900678856088	0
1	653	1421.25315992369	0
1	680	1518.913265032233	0
1	681	1525.96809534112	0
1	684	1527.272532464144	0
1	685	1529.860171478063	0
1	688	1534.84794874575	0
1	693	1536.553040208432	0
1	699	1551.594958035781	0
1	700	1556.184289363686	0
1	702	1557.582850544547	0
1	709	1565.534726836588	0
1	712	1568.739307218153	0
1	717	1583.51381073425	0
1	723	1601.86730711915	0
1	724	1610.017870771372	0
1	728	1613.347843900331	0
1	733	1619.966596641545	0
1	735	1622.076911568479	0
1	742	1637.440673289671	0
1	752	1652.049086036555	0
1	753	1654.549286705483	0
1	757	1664.665401336451	0
1	762	1677.169506715073	0
1	764	1680.005761790246	0
1	765	1682.44850421427	0
1	768	1686.414640465257	0
1	769	1689.929171770027	0
1	792	1747.885153759755	0
1	797	1752.432225990515	0
1	806	1779.894755724619	0
1	807	1780.481090004696	0
1	814	1795.609136824645	0
1	815	1797.333607689534	0
1	828	1829.264198008331	0
1	830	1830.977423873753	1
1	831	1839.985670320635	1
1	832	1841.672183552615	0
1	848	1890.142463571974	0
1	851	1890.636667780304	0
1	855	1899.267394109141	0
1	858	1904.67953499522	0
1	872	1933.886473698141	0
1	881	1947.679798525952	0
1	894	1971.942596377363	0
1	895	1972.627126282528	0
1	899	1986.420461942477	0
1	906	1995.268326215086	0
1	908	1996.847244160215	0
1	911	2001.803586203146	0
1	913	2001.842081440919	0
1	915	2002.393665442616	1
1	916	2006.270163179069	1
1	919	2009.642862439619	0
1	926	2029.851865139414	0
1	927	2033.226495932023	0
1	929	2035.530374205771	0
1	934	2044.754840556696	0
1	936	2046.826782324502	0
1	938	2048.216878838541	1
1	939	2052.270776469669	1
1	940	2062.571000618384	0
1	951	2092.056321117119	0
1	952	2096.640755269498	0
1	993	2193.888924218505	0
1	994	2202.699284964573	0
1	1010	2250.55891489116	0
1	1013	2262.950027283828	0
1	1027	2321.080740139735	0
1	1030	2329.84481003398	0
1	1034	2335.064538159043	0
1	1035	2337.916138904189	0
1	1048	2367.279148164219	0
1	1049	2370.787395593847	0
1	1057	2391.495205482738	0
1	1062	2405.419221195155	0
1	1065	2409.912083040808	0
1	1066	2418.184781279479	0
1	1073	2434.432498188945	0
1	1074	2439.47216686208	0
1	1081	2463.3924778558	0
1	1082	2466.507124154132	0
1	1086	2476.510344138141	0
1	1090	2480.218280446483	1
1	1091	2482.336260335981	1
1	1092	2488.714925074732	0
2	164	351.172515206455	1.178151185597
2	169	369.63588368302	4.577541491963
2	179	392.564213797362	4.527161371559
2	180	400.41956037109	9.491702462914
2	189	406.554382468712	1.821051593362
2	193	421.594949675366	2.448039573655
2	201	440.099301010339	3.276066300165
2	206	449.359328138039	8.458491088642
2	210	471.431551547816	5.088948215879
2	220	503.818934841795	6.702785654574
2	223	522.158820978227	19.061121190077
2	233	541.75934438983	0.182055978274
2	245	568.267278371276	10.887693371654
2	250	577.151167557776	6.137846892071
2	261	608.746583607557	27.271660437306
2	265	621.214746354712	2.250715450067
2	270	626.720397219685	3.860758408315
2	271	630.742770456593	6.223205135103
2	298	700.442300669245	6.035149741236
2	311	710.981637046054	2.500590333947
2	316	718.27305995981	2.743523167982
2	327	727.133236571974	10.25339542706
2	330	733.758646155791	10.088942154391
2	337	739.20102534352	4.354717819495
2	340	741.612076096534	4.295429950604
2	341	742.891811911803	3.544897892055
2	350	747.904975419837	4.546875343883
2	351	753.805126094126	7.726966345642
2	358	770.344752694925	10.630764194052
2	362	789.24442323173	11.366696198066
2	373	807.321566832204	12.760445460196
2	374	810.065121405933	10.380021764954
2	375	812.298976050545	7.597538213077
2	378	814.181285722529	7.217690355264
2	393	852.906650701801	16.766513252514
2	394	856.588970942082	15.471753322684
2	400	867.844544931382	9.505094042091
2	413	888.506181027631	21.556416167522
2	414	888.662405629147	18.03843080409
2	421	916.633737857749	33.395514926394
2	422	917.788644689801	25.389825898935
2	425	926.157985493468	29.252667451249
2	426	929.109207644297	19.556315117383
2	433	947.493542247028	17.485016084703
2	442	963.663582687025	12.41333427618
2	449	978.46609514915	14.018897045164
2	463	999.775190244183	3.81858972399
2	475	1013.59115955406	3.561042097114
2	485	1035.933730406821	4.146498250882
2	491	1042.297161355079	0.725624461949
2	495	1064.564349799366	4.004666569193
2	506	1100.06921269154	7.947115092098
2	545	1197.609842662148	11.603351713359
2	558	1209.47734048056	6.120638992065
2	563	1218.854187393768	12.952524157569
2	566	1222.219700184473	12.776165539866
2	567	1222.395117463165	9.734945624338
2	576	1238.702066492781	1.912219336441
2	596	1277.884649347667	2.84592854337
2	620	1345.745109147739	3.913137181268
2	633	1362.284348185392	6.204720951919
2	639	1374.689510896242	4.746605489763
2	644	1385.184386275621	10.342133517171
2	653	1421.25315992369	2.352481067602
2	681	1525.96809534112	7.054830308887
2	685	1529.860171478063	2.587639013919
2	693	1536.553040208432	1.705091462682
2	700	1556.184289363686	4.589331327905
2	709	1565.534726836588	7.951876292041
2	717	1583.51381073425	14.774503516097
2	724	1610.017870771372	8.150563652222
2	733	1619.966596641545	6.618752741214
2	742	1637.440673289671	15.363761721192
2	753	1654.549286705483	2.500200668928
2	762	1677.169506715073	12.504105378622
2	765	1682.44850421427	2.442742424024
2	769	1689.929171770027	3.51453130477
2	797	1752.432225990515	4.54707223076
2	807	1780.481090004696	0.586334280077
2	815	1797.333607689534	1.724470864889
2	831	1839.985670320635	10.721472312304
2	832	1841.672183552615	10.694759678862
2	851	1890.636667780304	0.49420420833
2	858	1904.67953499522	5.412140886079
2	881	1947.679798525952	13.793324827811
2	895	1972.627126282528	0.684529905165
2	906	1995.268326215086	8.847864272609
2	911	2001.803586203146	4.956342042931
2	916	2006.270163179069	4.42808173815
2	919	2009.642862439619	7.249196997003
2	927	2033.226495932023	3.374630792609
2	934	2044.754840556696	9.224466350925
2	939	2052.270776469669	5.443994145167
2	940	2062.571000618384	14.354121779843
2	952	2096.640755269498	4.584434152379
2	994	2202.699284964573	8.810360746068
2	1013	2262.950027283828	12.391112392668
2	1030	2329.84481003398	8.764069894245
2	1035	2337.916138904189	2.851600745146
2	1049	2370.787395593847	3.508247429628
2	1062	2405.419221195155	13.924015712417
2	1066	2418.184781279479	8.272698238671
2	1074	2439.47216686208	5.039668673135
2	1082	2466.507124154132	3.114646298332
2	1091	2482.336260335981	5.82591619784
2	1092	2488.714925074732	8.496644628249
3	164	351.172515206455	17.244722207033
3	169	369.63588368302	35.503834799607
3	170	373.416521031541	34.691990775576
3	171	377.693683508599	27.699319487741
3	172	382.623158324973	26.023751434621
3	180	400.41956037109	35.361218180033
3	183	403.704498748038	15.667446322235
3	184	404.016655826867	15.915549649756
3	189	406.554382468712	3.395433705227
3	190	407.613292892415	2.94203559228
3	193	421.594949675366	16.861618800016
3	194	424.821691246275	5.674781144564
3	197	432.880924315963	7.806524436409
3	206	449.359328138039	3.876006099368
3	212	483.935540730089	0
3	215	495.227714568904	4.875082112034
3	223	522.158820978227	25.042671791006
3	228	529.081126838137	22.676098810652
3	233	541.75934438983	19.214295613419
3	236	553.12259390408	24.388250531402
3	237	555.754864260982	19.670876676406
3	238	556.436616934856	14.8593285233
3	245	568.267278371276	17.017931046798
3	250	577.151167557776	19.771582558154
3	261	608.746583607557	46.137846865977
3	262	613.857477543503	49.989996707542
3	265	621.214746354712	50.201425689007
3	271	630.742770456593	54.123012598396
3	274	644.761183796124	63.286260625873
3	277	651.149888156466	64.315811554777
3	284	666.900279240964	71.342990688854
3	291	679.268937771109	82.164352413999
3	292	679.891094471247	75.078162529464
3	295	692.2784793456	73.314448440955
3	298	700.442300669245	77.582661857875
3	301	704.302290435966	70.545153714312
3	302	704.581155590054	56.610372067463
3	303	706.813438429426	51.464381989276
3	306	708.116315452134	51.647797405658
3	311	710.981637046054	49.157461797299
3	330	733.758646155791	65.517523886725
3	341	742.891811911803	71.577886121212
3	351	753.805126094126	80.42916748323
3	358	770.344752694925	82.086245826512
3	359	774.171223539534	79.764072611525
3	362	789.24442323173	87.633014517078
3	378	814.181285722529	106.47905277605
3	394	856.588970942082	148.10792422997
3	395	856.651734009251	146.5090161554
3	426	929.109207644297	213.57967085247
3	433	947.493542247028	228.94747733706
3	442	963.663582687025	243.66473750413
3	449	978.46609514915	258.27756427425
3	454	986.706891285584	262.60065230391
3	455	989.100673000895	255.38062462857
3	456	991.754299321732	256.90799179771
3	463	999.775190244183	264.43377697739
3	464	1000.848228674682	257.49012859873
3	465	1001.106617975621	256.29523793708
3	468	1009.226330053871	261.90053069458
3	475	1013.59115955406	256.66988042109
3	480	1026.187965657051	266.47397715618
3	481	1026.57282482019	264.76597519414
3	482	1030.296440901378	252.41871386771
3	485	1035.933730406821	245.347730568
3	486	1036.062933452817	241.50181208081
3	487	1038.542048706906	224.66691512594
3	488	1038.78543030734	213.45890717937
3	491	1042.297161355079	210.99317745893
3	492	1049.144882526229	213.38571367956
3	495	1064.564349799366	228.42421235008
3	496	1064.777710529777	219.52359584815
3	499	1072.342478859864	221.34304011082
3	500	1081.995365187864	223.65591429857
3	501	1084.022321830253	209.75937246427
3	502	1086.504015571862	200.2799882113
3	503	1088.807861963293	201.53822234498
3	506	1100.06921269154	212.17842016857
3	511	1110.969765792938	188.07683642542
3	512	1112.728087781661	182.71956161934
3	517	1122.015190410271	188.13313636724
3	518	1122.777850301912	178.30745494401
3	519	1123.311212803322	172.06096439248
3	520	1124.886966797391	169.31059698262
3	525	1129.045067324281	171.59443684933
3	526	1133.47916522951	173.66646769373
3	527	1150.226389545178	185.97965172319
3	528	1150.934204966009	186.48700686202
3	529	1151.69119746206	186.06417275579
3	530	1154.124353022655	174.60690141847
3	531	1170.482427622079	187.17535637507
3	532	1172.857960837495	180.19027399277
3	533	1173.748742561379	177.79214204119
3	534	1176.23062821122	179.04192076425
3	535	1177.205692552969	176.08585953296
3	538	1182.413820040891	172.8497090856
3	539	1182.550718726281	172.59477620686
3	540	1183.162010755341	173.13189329839
3	545	1197.609842662148	181.88065703466
3	567	1222.395117463165	196.60722178401
3	576	1238.702066492781	206.91483433684
3	579	1240.903865261255	199.33232836812
3	582	1247.825861116963	187.26617788679
3	589	1267.892235091493	197.55937095058
3	592	1269.556732612882	177.43463501344
3	593	1270.378330795674	168.11600023423
3	596	1277.884649347667	174.54596770466
3	597	1280.045051006055	166.12810522953
3	598	1282.531084890222	166.27112392594
3	603	1287.266122529985	160.9259691115
3	604	1293.41216348211	165.31287460937
3	605	1293.796037138181	112.09574476301
3	606	1299.637593601651	113.63110265286
3	607	1306.694483115943	114.40676358983
3	608	1312.669627416831	111.66274935446
3	611	1319.331934293356	115.97523280486
3	614	1321.53568891488	117.60800551984
3	615	1322.646431963389	113.36810179751
3	620	1345.745109147739	130.18736317195
3	627	1351.974449332428	129.97889334061
3	628	1354.091451747732	129.29312567113
3	633	1362.284348185392	127.71738136808
3	634	1364.123138730444	127.82489735167
3	635	1364.878842609562	128.08899545322
3	636	1367.894830679432	127.47157700143
3	639	1374.689510896242	133.09670312032
3	644	1385.184386275621	132.35989548436
3	649	1406.145856247366	142.64064348461
3	650	1414.444207418587	147.12343622209
3	653	1421.25315992369	152.44526603468
3	654	1424.996350082228	149.95762927793
3	657	1437.226540480422	153.35229325868
3	658	1442.671386148926	156.60833296211
3	659	1443.030096283107	127.09514417777
3	660	1453.181749573706	132.64665789097
3	661	1458.555282034199	127.15749654268
3	662	1458.880124172652	117.04815220618
3	663	1461.645285106549	113.04418303786
3	666	1469.275517097174	120.53776924418
3	667	1470.3310015653	120.57180489706
3	668	1475.394645954991	119.31501872152
3	669	1481.82864413872	122.31842812891
3	674	1492.833759720334	122.89085431386
3	675	1496.122392963915	121.28014020547
3	678	1499.711368335396	122.00296313275
3	681	1525.96809534112	137.06154648093
3	682	1526.179876456446	136.26297984317
3	685	1529.860171478063	110.95949262198
3	686	1530.159232806401	104.50645246968
3	693	1536.553040208432	73.409945275864
3	700	1556.184289363686	71.987981423196
3	709	1565.534726836588	75.01505293214
3	710	1566.569962438481	68.924452600701
3	717	1583.51381073425	64.600545702017
3	718	1584.563481589877	57.290949125733
3	719	1589.65344172903	54.80549298328
3	720	1599.991306077889	64.726523395069
3	721	1601.041178554683	65.203126607625
3	724	1610.017870771372	64.8950338553
3	733	1619.966596641545	68.844290859063
3	742	1637.440673289671	85.84571525389
3	743	1638.75912984315	81.176279298603
3	746	1642.808274696397	78.243516192392
3	749	1646.35700279508	81.590343009613
3	750	1651.768773237631	86.602350461581
3	753	1654.549286705483	85.80997948733
3	754	1656.539141256009	85.543934591289
3	755	1663.934025351006	89.614716276649
3	762	1677.169506715073	75.302199595923
3	765	1682.44850421427	69.21349391146
3	766	1685.586319982398	72.238476082067
3	769	1689.929171770027	75.413593814105
3	770	1692.920633459253	73.950860884133
3	775	1698.844861689121	76.767950120642
3	776	1700.053576840729	77.572043371796
3	779	1709.780413253434	80.742416940865
3	782	1716.890029422436	86.588146745614
3	785	1725.952368214918	83.98175027261
3	786	1726.897614921148	81.099987490222
3	789	1741.935021489227	89.885935452672
3	790	1742.919943489232	78.254542152781
3	797	1752.432225990515	85.392226589572
3	800	1760.635128151938	88.246284993426
3	803	1767.476191215234	87.470429424988
3	804	1779.401987777339	92.987347312082
3	807	1780.481090004696	83.053129015332
3	808	1787.784976895479	89.694041891293
3	815	1797.333607689534	96.79871820453
3	816	1800.391638150924	88.064853395268
3	817	1803.395264560561	82.740044644243
3	818	1813.480017458904	84.463822222883
3	819	1815.68230127728	67.797147517525
3	826	1828.355724372243	79.30712391115
3	832	1841.672183552615	89.539434690544
3	837	1857.508079817905	98.262851583662
3	842	1867.290652810845	100.63783507213
3	843	1871.20208287811	91.307327153491
3	846	1878.080683240767	86.572041932286
3	851	1890.636667780304	98.14152338764
3	858	1904.67953499522	109.07039817058
3	859	1906.585873699681	88.68768422743
3	860	1906.668038395709	80.190892512716
3	861	1914.290921436286	86.946070729897
3	864	1919.116528604891	89.85233059656
3	865	1921.294232757528	67.456822764375
3	866	1928.098627790978	71.007813642535
3	867	1928.635223006905	67.708806717476
3	868	1929.488387455288	68.467963659218
3	881	1947.679798525952	75.650915628974
3	890	1968.578783550804	78.43631997883
3	891	1971.437562241916	80.93540283492
3	892	1971.901044391086	79.985577848482
3	895	1972.627126282528	73.359732173387
3	906	1995.268326215086	92.935053130687
3	911	2001.803586203146	86.870975017657
3	919	2009.642862439619	76.297426539259
3	924	2029.554397214953	95.667923516812
3	927	2033.226495932023	96.464518361402
3	934	2044.754840556696	104.91768574845
3	940	2062.571000618384	120.71034142447
3	941	2064.464728842476	117.53206841599
3	944	2074.540234320462	118.77628347439
3	949	2090.898985926449	127.08706108236
3	952	2096.640755269498	132.62570583745
3	955	2102.608702152128	136.79113020023
3	956	2105.119045003117	133.17644862575
3	959	2109.261233806225	125.7862511302
3	960	2109.281354970561	122.86089302808
3	961	2110.292226211583	122.19993457511
3	966	2120.663823622585	132.52446658119
3	967	2127.384514755732	137.66174265203
3	968	2128.546316890305	131.69907273009
3	969	2130.040302774231	128.99118925081
3	970	2132.808679953558	130.96659851264
3	971	2138.81590013704	129.33595629213
3	974	2144.865673256359	132.23851280291
3	975	2150.107152461029	125.31490547321
3	976	2150.17049415049	120.31862901108
3	979	2156.29858720372	120.76821299795
3	980	2157.666067241907	119.58624151658
3	985	2172.863410400338	131.38011729266
3	986	2181.505457432339	134.67867510784
3	987	2182.777545705436	108.54282082061
3	990	2185.871756943853	105.95799052423
3	991	2190.324373434853	107.55039729015
3	994	2202.699284964573	110.64296384745
3	995	2211.878394003073	114.99417376542
3	998	2222.003456667014	116.53530675107
3	1001	2228.838717025246	118.32712904343
3	1002	2233.248513128251	113.77101643857
3	1003	2233.36014725658	91.245314808294
3	1006	2235.553550042946	84.946509479016
3	1013	2262.950027283828	102.15639941971
3	1014	2275.423769312463	112.10594151943
3	1015	2283.642332553392	98.109435775622
3	1016	2289.252526984814	95.363602766309
3	1019	2302.43057958798	86.374866241367
3	1030	2329.84481003398	102.39301705204
3	1031	2330.353418312035	96.975385055571
3	1032	2331.677492489493	92.335665289734
3	1035	2337.916138904189	87.357224013029
3	1036	2341.469542757264	83.393116758933
3	1037	2342.502028059292	45.995536228524
3	1042	2352.006379859213	43.47750235598
3	1049	2370.787395593847	61.023251616993
3	1050	2372.279367618342	58.985022308746
3	1051	2380.633325330651	59.552585190916
3	1062	2405.419221195155	77.556690299917
3	1063	2409.788638398512	74.724100239469
3	1066	2418.184781279479	73.513028338782
3	1067	2418.662734465574	68.683756558712
3	1068	2420.49558681124	65.466421426831
3	1071	2430.35430886117	64.072323308324
3	1074	2439.47216686208	72.193018697861
3	1075	2443.078699392448	55.501719878922
3	1076	2452.892143522113	62.441059247887
3	1077	2454.529525461903	63.034319979165
3	1082	2466.507124154132	67.350681616642
3	1092	2488.714925074732	85.801094113174
3	1093	2489.068853401475	79.156770360667
3	1094	2490.03527678875	65.77314132736
3	1097	2498.737298852095	64.30480066315
3	1098	2499.627568223565	41.721728231664
4	166	356.599406890352	5
4	176	388.101106177111	3
4	182	403.158948763485	4
4	186	404.671257300135	3
4	196	425.074399879554	2
4	205	445.483322038671	1
4	212	483.935540730089	1
4	214	490.35263245687	2
4	222	506.405028027485	2
4	225	522.545048776411	3
4	227	528.734343372678	4
4	230	536.083987584576	4
4	235	551.249347324478	5
4	242	562.60873674158	3
4	244	563.867480835961	4
4	249	576.619757858197	5
4	254	586.834076601689	6
4	256	595.55728855211	7
4	258	597.10458535711	8
4	260	604.812931941783	9
4	273	633.757136721654	9
4	276	647.970783522591	9
4	279	655.34905644015	9
4	281	656.468518046476	10
4	283	661.824175248755	11
4	286	668.241122269066	11
4	288	671.313925790591	12
4	290	673.375958610896	13
4	294	688.258506868413	12
4	300	701.611408714652	12
4	305	707.702232946483	10
4	310	710.142717853848	10
4	318	718.54606490997	11
4	320	719.998845182892	12
4	322	720.188530874903	13
4	326	724.10623898167	14
4	329	733.720048372328	15
4	334	735.341413266788	16
4	345	744.811380038538	17
4	349	747.325799359286	18
4	353	756.921279132968	19
4	357	761.806849626048	20
4	364	790.585999838825	20
4	377	813.875133580967	21
4	380	825.326523127968	22
4	382	831.303983896152	23
4	384	835.759168846664	24
4	390	845.254114681631	25
4	392	850.999438749043	26
4	404	874.262949365986	26
4	408	886.224027360557	27
4	410	887.269639618309	28
4	412	887.890792522973	29
4	424	922.892929367519	30
4	430	933.882054043028	31
4	432	944.470395357904	32
4	437	955.576369814776	33
4	439	957.450630474955	34
4	441	959.812697535782	35
4	444	964.246737821988	36
4	448	965.627024706273	37
4	451	979.517451604183	38
4	453	983.30707124701	39
4	458	992.667686844724	37
4	462	997.18870744697	38
4	467	1001.119833020011	37
4	470	1009.564110955288	37
4	472	1009.955942519419	38
4	477	1015.729185627484	39
4	479	1025.78789567915	40
4	498	1070.332864140911	33
4	508	1102.262330561447	29
4	510	1103.338681643008	30
4	514	1113.91694577653	29
4	516	1116.259960964286	30
4	522	1126.340153418487	27
4	524	1128.099288872743	28
4	537	1181.700292375175	18
4	544	1192.287719526116	16
4	547	1201.006878062373	17
4	551	1203.927683395045	18
4	555	1209.278330165878	19
4	562	1215.55774597579	20
4	565	1221.995555991815	21
4	569	1224.798326076605	22
4	571	1234.566966817312	23
4	573	1236.298241378774	24
4	578	1240.423253677999	25
4	581	1241.592807775924	25
4	584	1252.824490791257	25
4	586	1263.505212762752	26
4	588	1267.320771196494	27
4	591	1268.807893889015	27
4	600	1283.87424722174	24
4	602	1286.063053186813	25
4	610	1315.934952105333	20
4	613	1320.535091682736	20
4	617	1331.397785491519	19
4	622	1348.601102068685	20
4	624	1348.737747852994	21
4	626	1349.759196668243	22
4	632	1359.510216009806	21
4	643	1377.70840520265	19
4	646	1388.906548860189	20
4	648	1389.916896613279	21
4	656	1425.652780336723	19
4	665	1463.143094932568	13
4	671	1484.19630794049	10
4	673	1490.519673904448	11
4	677	1497.64550983778	10
4	690	1535.26478268282	8
4	692	1535.838051947058	9
4	695	1545.122836916072	10
4	697	1551.122305782482	11
4	704	1564.564758504005	12
4	706	1564.766659785467	13
4	708	1565.16642277605	14
4	714	1570.99520666472	14
4	716	1574.319309074357	15
4	726	1613.23501030281	12
4	730	1614.515577955922	13
4	732	1618.96977257512	14
4	737	1622.481533468933	15
4	739	1629.037996312569	16
4	741	1630.301882676822	17
4	745	1641.970617942308	17
4	748	1645.797627430926	17
4	759	1667.039999400943	14
4	761	1672.388843158512	15
4	772	1697.427960989364	14
4	774	1698.090935004186	15
4	778	1700.534889485004	14
4	781	1712.326784755656	14
4	784	1720.655219916318	14
4	788	1729.016195236021	13
4	794	1749.048600461093	12
4	796	1752.132748862071	13
4	799	1759.245228234243	14
4	802	1766.652817738713	14
4	810	1791.508641308481	12
4	812	1792.495144392664	13
4	821	1817.898189472251	10
4	823	1826.477145882993	11
4	825	1827.344850706389	12
4	834	1853.837409993153	12
4	836	1857.090814148443	13
4	839	1860.926416289429	13
4	841	1861.02042379607	14
4	845	1872.028882896978	13
4	850	1890.502159406996	13
4	853	1891.915466542604	14
4	857	1902.333273084399	15
4	863	1914.932611185489	13
4	870	1933.34543590036	9
4	874	1936.761977570621	10
4	876	1939.837154808245	11
4	878	1941.860659193917	12
4	880	1946.932660426483	13
4	883	1955.763950846076	14
4	885	1963.81192484409	15
4	887	1964.015049432046	16
4	889	1965.817571951894	17
4	897	1983.474982676025	15
4	901	1988.09229163647	16
4	903	1988.139357041393	17
4	905	1989.722772103698	18
4	910	2001.049113523423	19
4	918	2009.479943844907	20
4	921	2012.627160453453	21
4	923	2024.792246987819	22
4	931	2038.079825725322	22
4	933	2041.483293107674	23
4	943	2074.234724884822	23
4	946	2079.913766419625	23
4	948	2082.773976144706	24
4	954	2096.88422023765	24
4	958	2105.46814991594	23
4	963	2110.511587981818	21
4	965	2119.477496689677	22
4	973	2142.114832448286	17
4	978	2150.60704056393	15
4	982	2160.793627864118	14
4	984	2163.317827793029	15
4	989	2185.53289677777	13
4	997	2216.055713346613	11
4	1000	2227.451792981942	11
4	1005	2233.378033256464	9
4	1008	2239.341827199759	9
4	1012	2258.076425998331	10
4	1018	2296.506491830768	8
4	1021	2308.528877503233	8
4	1023	2309.764143976854	9
4	1025	2313.294345309596	10
4	1029	2327.862530895238	11
4	1039	2344.671752940697	8
4	1041	2349.978977906862	9
4	1044	2355.029165384409	9
4	1046	2366.281985552846	10
4	1053	2387.576979513526	9
4	1055	2390.451084274226	10
4	1059	2399.15644253749	11
4	1061	2402.913830961558	12
4	1070	2424.26213546139	10
4	1079	2457.905839991901	7
4	1084	2469.699669328347	8
4	1088	2478.578283432714	9
4	1096	2491.497376120721	8
5	166	356.599406890352	4
5	170	373.416521031541	4
5	171	377.693683508599	3
5	172	382.623158324973	2
5	176	388.101106177111	2
5	182	403.158948763485	3
5	183	403.704498748038	3
5	184	404.016655826867	2
5	186	404.671257300135	2
5	190	407.613292892415	2
5	194	424.821691246275	1
5	196	425.074399879554	1
5	197	432.880924315963	1
5	198	434.426336834155	0
5	205	445.483322038671	0
5	207	459.907157380988	0
5	212	483.935540730089	0
5	214	490.35263245687	1
5	215	495.227714568904	1
5	222	506.405028027485	1
5	225	522.545048776411	2
5	227	528.734343372678	3
5	228	529.081126838137	3
5	230	536.083987584576	3
5	235	551.249347324478	4
5	236	553.12259390408	4
5	237	555.754864260982	3
5	238	556.436616934856	2
5	242	562.60873674158	2
5	244	563.867480835961	3
5	249	576.619757858197	4
5	254	586.834076601689	5
5	256	595.55728855211	6
5	258	597.10458535711	7
5	260	604.812931941783	8
5	262	613.857477543503	8
5	273	633.757136721654	8
5	274	644.761183796124	8
5	276	647.970783522591	8
5	277	651.149888156466	8
5	279	655.34905644015	8
5	281	656.468518046476	9
5	283	661.824175248755	10
5	284	666.900279240964	10
5	286	668.241122269066	10
5	288	671.313925790591	11
5	290	673.375958610896	12
5	291	679.268937771109	12
5	292	679.891094471247	11
5	294	688.258506868413	11
5	295	692.2784793456	11
5	300	701.611408714652	11
5	301	704.302290435966	11
5	302	704.581155590054	10
5	303	706.813438429426	9
5	305	707.702232946483	9
5	306	708.116315452134	9
5	310	710.142717853848	9
5	318	718.54606490997	10
5	320	719.998845182892	11
5	322	720.188530874903	12
5	326	724.10623898167	13
5	329	733.720048372328	14
5	334	735.341413266788	15
5	345	744.811380038538	16
5	349	747.325799359286	17
5	353	756.921279132968	18
5	357	761.806849626048	19
5	359	774.171223539534	19
5	364	790.585999838825	19
5	377	813.875133580967	20
5	380	825.326523127968	21
5	382	831.303983896152	22
5	384	835.759168846664	23
5	390	845.254114681631	24
5	392	850.999438749043	25
5	395	856.651734009251	25
5	404	874.262949365986	25
5	408	886.224027360557	26
5	410	887.269639618309	27
5	412	887.890792522973	28
5	424	922.892929367519	29
5	430	933.882054043028	30
5	432	944.470395357904	31
5	437	955.576369814776	32
5	439	957.450630474955	33
5	441	959.812697535782	34
5	444	964.246737821988	35
5	448	965.627024706273	36
5	451	979.517451604183	37
5	453	983.30707124701	38
5	454	986.706891285584	38
5	455	989.100673000895	37
5	456	991.754299321732	36
5	458	992.667686844724	36
5	462	997.18870744697	37
5	464	1000.848228674682	37
5	465	1001.106617975621	36
5	467	1001.119833020011	36
5	468	1009.226330053871	36
5	470	1009.564110955288	36
5	472	1009.955942519419	37
5	477	1015.729185627484	38
5	479	1025.78789567915	39
5	480	1026.187965657051	39
5	481	1026.57282482019	38
5	482	1030.296440901378	37
5	486	1036.062933452817	36
5	487	1038.542048706906	35
5	488	1038.78543030734	34
5	492	1049.144882526229	33
5	496	1064.777710529777	32
5	498	1070.332864140911	32
5	499	1072.342478859864	32
5	500	1081.995365187864	31
5	501	1084.022321830253	30
5	502	1086.504015571862	29
5	503	1088.807861963293	28
5	508	1102.262330561447	28
5	510	1103.338681643008	29
5	511	1110.969765792938	29
5	512	1112.728087781661	28
5	514	1113.91694577653	28
5	516	1116.259960964286	29
5	517	1122.015190410271	29
5	518	1122.777850301912	28
5	519	1123.311212803322	27
5	520	1124.886966797391	26
5	522	1126.340153418487	26
5	524	1128.099288872743	27
5	525	1129.045067324281	27
5	526	1133.47916522951	26
5	527	1150.226389545178	25
5	528	1150.934204966009	24
5	529	1151.69119746206	23
5	530	1154.124353022655	22
5	531	1170.482427622079	21
5	532	1172.857960837495	20
5	533	1173.748742561379	19
5	534	1176.23062821122	18
5	535	1177.205692552969	17
5	537	1181.700292375175	17
5	538	1182.413820040891	17
5	539	1182.550718726281	16
5	540	1183.162010755341	15
5	544	1192.287719526116	15
5	547	1201.006878062373	16
5	551	1203.927683395045	17
5	555	1209.278330165878	18
5	562	1215.55774597579	19
5	565	1221.995555991815	20
5	569	1224.798326076605	21
5	571	1234.566966817312	22
5	573	1236.298241378774	23
5	578	1240.423253677999	24
5	579	1240.903865261255	24
5	581	1241.592807775924	24
5	582	1247.825861116963	24
5	584	1252.824490791257	24
5	586	1263.505212762752	25
5	588	1267.320771196494	26
5	589	1267.892235091493	26
5	591	1268.807893889015	26
5	592	1269.556732612882	26
5	593	1270.378330795674	25
5	597	1280.045051006055	24
5	598	1282.531084890222	23
5	600	1283.87424722174	23
5	602	1286.063053186813	24
5	603	1287.266122529985	24
5	604	1293.41216348211	23
5	605	1293.796037138181	22
5	606	1299.637593601651	21
5	607	1306.694483115943	20
5	608	1312.669627416831	19
5	610	1315.934952105333	19
5	611	1319.331934293356	19
5	613	1320.535091682736	19
5	614	1321.53568891488	19
5	615	1322.646431963389	18
5	617	1331.397785491519	18
5	622	1348.601102068685	19
5	624	1348.737747852994	20
5	626	1349.759196668243	21
5	627	1351.974449332428	21
5	628	1354.091451747732	20
5	632	1359.510216009806	20
5	634	1364.123138730444	20
5	635	1364.878842609562	19
5	636	1367.894830679432	18
5	643	1377.70840520265	18
5	646	1388.906548860189	19
5	648	1389.916896613279	20
5	649	1406.145856247366	20
5	650	1414.444207418587	19
5	654	1424.996350082228	18
5	656	1425.652780336723	18
5	657	1437.226540480422	18
5	658	1442.671386148926	17
5	659	1443.030096283107	16
5	660	1453.181749573706	15
5	661	1458.555282034199	14
5	662	1458.880124172652	13
5	663	1461.645285106549	12
5	665	1463.143094932568	12
5	666	1469.275517097174	12
5	667	1470.3310015653	11
5	668	1475.394645954991	10
5	669	1481.82864413872	9
5	671	1484.19630794049	9
5	673	1490.519673904448	10
5	674	1492.833759720334	10
5	675	1496.122392963915	9
5	677	1497.64550983778	9
5	678	1499.711368335396	9
5	682	1526.179876456446	8
5	686	1530.159232806401	7
5	690	1535.26478268282	7
5	692	1535.838051947058	8
5	695	1545.122836916072	9
5	697	1551.122305782482	10
5	704	1564.564758504005	11
5	706	1564.766659785467	12
5	708	1565.16642277605	13
5	710	1566.569962438481	13
5	714	1570.99520666472	13
5	716	1574.319309074357	14
5	718	1584.563481589877	14
5	719	1589.65344172903	13
5	720	1599.991306077889	12
5	721	1601.041178554683	11
5	726	1613.23501030281	11
5	730	1614.515577955922	12
5	732	1618.96977257512	13
5	737	1622.481533468933	14
5	739	1629.037996312569	15
5	741	1630.301882676822	16
5	743	1638.75912984315	16
5	745	1641.970617942308	16
5	746	1642.808274696397	16
5	748	1645.797627430926	16
5	749	1646.35700279508	16
5	750	1651.768773237631	15
5	754	1656.539141256009	14
5	755	1663.934025351006	13
5	759	1667.039999400943	13
5	761	1672.388843158512	14
5	766	1685.586319982398	14
5	770	1692.920633459253	13
5	772	1697.427960989364	13
5	774	1698.090935004186	14
5	775	1698.844861689121	14
5	776	1700.053576840729	13
5	778	1700.534889485004	13
5	779	1709.780413253434	13
5	781	1712.326784755656	13
5	782	1716.890029422436	13
5	784	1720.655219916318	13
5	785	1725.952368214918	13
5	786	1726.897614921148	12
5	788	1729.016195236021	12
5	789	1741.935021489227	12
5	790	1742.919943489232	11
5	794	1749.048600461093	11
5	796	1752.132748862071	12
5	799	1759.245228234243	13
5	800	1760.635128151938	13
5	802	1766.652817738713	13
5	803	1767.476191215234	13
5	804	1779.401987777339	12
5	808	1787.784976895479	11
5	810	1791.508641308481	11
5	812	1792.495144392664	12
5	816	1800.391638150924	12
5	817	1803.395264560561	11
5	818	1813.480017458904	10
5	819	1815.68230127728	9
5	821	1817.898189472251	9
5	823	1826.477145882993	10
5	825	1827.344850706389	11
5	826	1828.355724372243	11
5	834	1853.837409993153	11
5	836	1857.090814148443	12
5	837	1857.508079817905	12
5	839	1860.926416289429	12
5	841	1861.02042379607	13
5	842	1867.290652810845	13
5	843	1871.20208287811	12
5	845	1872.028882896978	12
5	846	1878.080683240767	12
5	850	1890.502159406996	12
5	853	1891.915466542604	13
5	857	1902.333273084399	14
5	859	1906.585873699681	14
5	860	1906.668038395709	13
5	861	1914.290921436286	12
5	863	1914.932611185489	12
5	864	1919.116528604891	12
5	865	1921.294232757528	11
5	866	1928.098627790978	10
5	867	1928.635223006905	9
5	868	1929.488387455288	8
5	870	1933.34543590036	8
5	874	1936.761977570621	9
5	876	1939.837154808245	10
5	878	1941.860659193917	11
5	880	1946.932660426483	12
5	883	1955.763950846076	13
5	885	1963.81192484409	14
5	887	1964.015049432046	15
5	889	1965.817571951894	16
5	890	1968.578783550804	16
5	891	1971.437562241916	15
5	892	1971.901044391086	14
5	897	1983.474982676025	14
5	901	1988.09229163647	15
5	903	1988.139357041393	16
5	905	1989.722772103698	17
5	910	2001.049113523423	18
5	918	2009.479943844907	19
5	921	2012.627160453453	20
5	923	2024.792246987819	21
5	924	2029.554397214953	21
5	931	2038.079825725322	21
5	933	2041.483293107674	22
5	941	2064.464728842476	22
5	943	2074.234724884822	22
5	944	2074.540234320462	22
5	946	2079.913766419625	22
5	948	2082.773976144706	23
5	949	2090.898985926449	23
5	954	2096.88422023765	23
5	955	2102.608702152128	23
5	956	2105.119045003117	22
5	958	2105.46814991594	22
5	959	2109.261233806225	22
5	960	2109.281354970561	21
5	961	2110.292226211583	20
5	963	2110.511587981818	20
5	965	2119.477496689677	21
5	966	2120.663823622585	21
5	967	2127.384514755732	20
5	968	2128.546316890305	19
5	969	2130.040302774231	18
5	970	2132.808679953558	17
5	971	2138.81590013704	16
5	973	2142.114832448286	16
5	974	2144.865673256359	16
5	975	2150.107152461029	15
5	976	2150.17049415049	14
5	978	2150.60704056393	14
5	979	2156.29858720372	14
5	980	2157.666067241907	13
5	982	2160.793627864118	13
5	984	2163.317827793029	14
5	985	2172.863410400338	14
5	986	2181.505457432339	13
5	987	2182.777545705436	12
5	989	2185.53289677777	12
5	990	2185.871756943853	12
5	991	2190.324373434853	11
5	995	2211.878394003073	10
5	997	2216.055713346613	10
5	998	2222.003456667014	10
5	1000	2227.451792981942	10
5	1001	2228.838717025246	10
5	1002	2233.248513128251	9
5	1003	2233.36014725658	8
5	1005	2233.378033256464	8
5	1006	2235.553550042946	8
5	1008	2239.341827199759	8
5	1012	2258.076425998331	9
5	1014	2275.423769312463	9
5	1015	2283.642332553392	8
5	1016	2289.252526984814	7
5	1018	2296.506491830768	7
5	1019	2302.43057958798	7
5	1021	2308.528877503233	7
5	1023	2309.764143976854	8
5	1025	2313.294345309596	9
5	1029	2327.862530895238	10
5	1031	2330.353418312035	10
5	1032	2331.677492489493	9
5	1036	2341.469542757264	8
5	1037	2342.502028059292	7
5	1039	2344.671752940697	7
5	1041	2349.978977906862	8
5	1042	2352.006379859213	8
5	1044	2355.029165384409	8
5	1046	2366.281985552846	9
5	1050	2372.279367618342	9
5	1051	2380.633325330651	8
5	1053	2387.576979513526	8
5	1055	2390.451084274226	9
5	1059	2399.15644253749	10
5	1061	2402.913830961558	11
5	1063	2409.788638398512	11
5	1067	2418.662734465574	10
5	1068	2420.49558681124	9
5	1070	2424.26213546139	9
5	1071	2430.35430886117	9
5	1075	2443.078699392448	8
5	1076	2452.892143522113	7
5	1077	2454.529525461903	6
5	1079	2457.905839991901	6
5	1084	2469.699669328347	7
5	1088	2478.578283432714	8
5	1093	2489.068853401475	8
5	1094	2490.03527678875	7
5	1096	2491.497376120721	7
5	1097	2498.737298852095	7
5	1098	2499.627568223565	6
6	168	365.058342191057	1
6	174	388.037052425803	1
6	178	390.927857908176	2
6	188	404.73333087535	1
6	192	419.146910101711	1
6	200	436.823234710174	1
6	203	440.900837049397	1
6	209	466.342603331937	1
6	217	497.116149187221	1
6	219	503.09769978815	2
6	232	541.577288411556	1
6	240	557.379584999622	1
6	247	571.013320665705	1
6	252	581.474923170251	1
6	264	618.964030904645	1
6	267	622.85963881137	1
6	269	624.51956532149	2
6	297	694.407150928009	1
6	308	708.481046712107	1
6	313	715.529536791828	1
6	315	716.879841144914	2
6	324	723.6697040014	2
6	332	734.846307524025	1
6	336	737.31664614593	2
6	339	739.346914019748	2
6	343	743.358100075954	1
6	347	746.078159748484	2
6	355	759.713988500873	1
6	361	777.877727033664	1
6	366	794.561121372008	1
6	368	799.685099640979	2
6	370	804.701437837468	3
6	372	806.963595367265	4
6	386	836.140137449287	1
6	388	841.117217619398	2
6	397	858.339450889291	1
6	399	866.949764860109	2
6	402	870.623974825057	2
6	406	883.238222931355	3
6	416	892.398818790866	2
6	418	896.905318042219	3
6	420	909.552892526914	4
6	428	930.008526162325	1
6	435	951.250248410845	1
6	446	964.447198103986	1
6	460	995.956600520193	1
6	474	1010.030117456946	1
6	484	1031.787232155939	1
6	490	1041.57153689313	1
6	494	1060.559683230173	1
6	505	1092.122097599442	1
6	542	1186.006490948789	1
6	549	1203.356701488495	1
6	553	1205.901663236199	2
6	557	1209.443534644607	3
6	560	1212.660171838827	3
6	575	1236.78984715634	1
6	595	1275.038720804297	1
6	619	1341.831971966471	1
6	630	1356.079627233473	1
6	638	1369.942905406479	1
6	641	1374.84225275845	1
6	652	1418.900678856088	1
6	680	1518.913265032233	1
6	684	1527.272532464144	1
6	688	1534.84794874575	1
6	699	1551.594958035781	1
6	702	1557.582850544547	1
6	712	1568.739307218153	1
6	723	1601.86730711915	1
6	728	1613.347843900331	1
6	735	1622.076911568479	1
6	752	1652.049086036555	1
6	757	1664.665401336451	1
6	764	1680.005761790246	1
6	768	1686.414640465257	1
6	792	1747.885153759755	1
6	806	1779.894755724619	1
6	814	1795.609136824645	1
6	828	1829.264198008331	1
6	830	1830.977423873753	2
6	848	1890.142463571974	1
6	855	1899.267394109141	1
6	872	1933.886473698141	1
6	894	1971.942596377363	1
6	899	1986.420461942477	1
6	908	1996.847244160215	1
6	913	2001.842081440919	1
6	915	2002.393665442616	2
6	926	2029.851865139414	1
6	929	2035.530374205771	1
6	936	2046.826782324502	1
6	938	2048.216878838541	2
6	951	2092.056321117119	1
6	993	2193.888924218505	1
6	1010	2250.55891489116	1
6	1027	2321.080740139735	1
6	1034	2335.064538159043	1
6	1048	2367.279148164219	1
6	1057	2391.495205482738	1
6	1065	2409.912083040808	1
6	1073	2434.432498188945	1
6	1081	2463.3924778558	1
6	1086	2476.510344138141	1
6	1090	2480.218280446483	2
7	168	365.058342191057	17
7	174	388.037052425803	18
7	188	404.73333087535	19
7	192	419.146910101711	20
7	217	497.116149187221	21
7	232	541.577288411556	22
7	240	557.379584999622	23
7	247	571.013320665705	24
7	252	581.474923170251	25
7	264	618.964030904645	26
7	267	622.85963881137	27
7	297	694.407150928009	28
7	308	708.481046712107	29
7	313	715.529536791828	30
7	332	734.846307524025	31
7	343	743.358100075954	32
7	355	759.713988500873	33
7	361	777.877727033664	34
7	366	794.561121372008	35
7	386	836.140137449287	36
7	397	858.339450889291	37
7	428	930.008526162325	38
7	435	951.250248410845	39
7	446	964.447198103986	40
7	460	995.956600520193	41
7	474	1010.030117456946	42
7	484	1031.787232155939	43
7	490	1041.57153689313	44
7	494	1060.559683230173	45
7	505	1092.122097599442	46
7	542	1186.006490948789	47
7	549	1203.356701488495	48
7	575	1236.78984715634	49
7	595	1275.038720804297	50
7	619	1341.831971966471	51
7	630	1356.079627233473	52
7	638	1369.942905406479	53
7	641	1374.84225275845	54
7	652	1418.900678856088	55
7	680	1518.913265032233	56
7	684	1527.272532464144	57
7	688	1534.84794874575	58
7	699	1551.594958035781	59
7	702	1557.582850544547	60
7	712	1568.739307218153	61
7	723	1601.86730711915	62
7	728	1613.347843900331	63
7	735	1622.076911568479	64
7	752	1652.049086036555	65
7	757	1664.665401336451	66
7	764	1680.005761790246	67
7	768	1686.414640465257	68
7	792	1747.885153759755	69
7	806	1779.894755724619	70
7	814	1795.609136824645	71
7	828	1829.264198008331	72
7	848	1890.142463571974	73
7	855	1899.267394109141	74
7	872	1933.886473698141	75
7	894	1971.942596377363	76
7	899	1986.420461942477	77
7	908	1996.847244160215	78
7	913	2001.842081440919	79
7	926	2029.851865139414	80
7	929	2035.530374205771	81
7	936	2046.826782324502	82
7	951	2092.056321117119	83
7	993	2193.888924218505	84
7	1010	2250.55891489116	85
7	1027	2321.080740139735	86
7	1034	2335.064538159043	87
7	1048	2367.279148164219	88
7	1057	2391.495205482738	89
7	1065	2409.912083040808	90
7	1073	2434.432498188945	91
7	1081	2463.3924778558	92
7	1086	2476.510344138141	93
8	168	365.058342191057	0
8	174	388.037052425803	0
8	179	392.564213797362	1.636355889186
8	188	404.73333087535	0
8	192	419.146910101711	0
8	200	436.823234710174	0
8	203	440.900837049397	0
8	209	466.342603331937	0
8	217	497.116149187221	0
8	220	503.818934841795	0.721235053645
8	232	541.577288411556	0
8	240	557.379584999622	0
8	247	571.013320665705	0
8	252	581.474923170251	0
8	264	618.964030904645	0
8	267	622.85963881137	0
8	270	626.720397219685	2.200831898195
8	297	694.407150928009	0
8	308	708.481046712107	0
8	313	715.529536791828	0
8	316	718.27305995981	1.393218814896
8	327	727.133236571974	3.463532570574
8	332	734.846307524025	0
8	337	739.20102534352	1.88437919759
8	340	741.612076096534	2.265162076786
8	343	743.358100075954	0
8	350	747.904975419837	1.826815671353
8	355	759.713988500873	0
8	361	777.877727033664	0
8	366	794.561121372008	0
8	373	807.321566832204	7.636467191225
8	374	810.065121405933	5.363683568465
8	375	812.298976050545	5.33538068328
8	386	836.140137449287	0
8	393	852.906650701801	11.789433082403
8	397	858.339450889291	0
8	400	867.844544931382	0.894780071273
8	413	888.506181027631	17.882206202574
8	414	888.662405629147	5.424182697792
8	421	916.633737857749	24.234919066883
8	422	917.788644689801	20.883326647582
8	425	926.157985493468	16.605092966554
8	428	930.008526162325	0
8	435	951.250248410845	0
8	446	964.447198103986	0
8	460	995.956600520193	0
8	474	1010.030117456946	0
8	484	1031.787232155939	0
8	490	1041.57153689313	0
8	494	1060.559683230173	0
8	505	1092.122097599442	0
8	542	1186.006490948789	0
8	549	1203.356701488495	0
8	558	1209.47734048056	3.575677244361
8	563	1218.854187393768	9.410652749161
8	566	1222.219700184473	9.559528345646
8	575	1236.78984715634	0
8	595	1275.038720804297	0
8	619	1341.831971966471	0
8	630	1356.079627233473	0
8	638	1369.942905406479	0
8	641	1374.84225275845	0
8	652	1418.900678856088	0
8	680	1518.913265032233	0
8	684	1527.272532464144	0
8	688	1534.84794874575	0
8	699	1551.594958035781	0
8	702	1557.582850544547	0
8	712	1568.739307218153	0
8	723	1601.86730711915	0
8	728	1613.347843900331	0
8	735	1622.076911568479	0
8	752	1652.049086036555	0
8	757	1664.665401336451	0
8	764	1680.005761790246	0
8	768	1686.414640465257	0
8	792	1747.885153759755	0
8	806	1779.894755724619	0
8	814	1795.609136824645	0
8	828	1829.264198008331	0
8	831	1839.985670320635	9.008246446882
8	848	1890.142463571974	0
8	855	1899.267394109141	0
8	872	1933.886473698141	0
8	894	1971.942596377363	0
8	899	1986.420461942477	0
8	908	1996.847244160215	0
8	913	2001.842081440919	0
8	916	2006.270163179069	3.876497736453
8	926	2029.851865139414	0
8	929	2035.530374205771	0
8	936	2046.826782324502	0
8	939	2052.270776469669	4.053897631128
8	951	2092.056321117119	0
8	993	2193.888924218505	0
8	1010	2250.55891489116	0
8	1027	2321.080740139735	0
8	1034	2335.064538159043	0
8	1048	2367.279148164219	0
8	1057	2391.495205482738	0
8	1065	2409.912083040808	0
8	1073	2434.432498188945	0
8	1081	2463.3924778558	0
8	1086	2476.510344138141	0
8	1091	2482.336260335981	2.117979889498
9	170	373.416521031541	31
9	171	377.693683508599	32
9	172	382.623158324973	33
9	183	403.704498748038	34
9	184	404.016655826867	35
9	190	407.613292892415	36
9	194	424.821691246275	37
9	197	432.880924315963	38
9	198	434.426336834155	39
9	207	459.907157380988	40
9	215	495.227714568904	41
9	228	529.081126838137	42
9	236	553.12259390408	43
9	237	555.754864260982	44
9	238	556.436616934856	45
9	262	613.857477543503	46
9	274	644.761183796124	47
9	277	651.149888156466	48
9	284	666.900279240964	49
9	291	679.268937771109	50
9	292	679.891094471247	51
9	295	692.2784793456	52
9	301	704.302290435966	53
9	302	704.581155590054	54
9	303	706.813438429426	55
9	306	708.116315452134	56
9	359	774.171223539534	57
9	395	856.651734009251	58
9	454	986.706891285584	59
9	455	989.100673000895	60
9	456	991.754299321732	61
9	464	1000.848228674682	62
9	465	1001.106617975621	63
9	468	1009.226330053871	64
9	480	1026.187965657051	65
9	481	1026.57282482019	66
9	482	1030.296440901378	67
9	486	1036.062933452817	68
9	487	1038.542048706906	69
9	488	1038.78543030734	70
9	492	1049.144882526229	71
9	496	1064.777710529777	72
9	499	1072.342478859864	73
9	500	1081.995365187864	74
9	501	1084.022321830253	75
9	502	1086.504015571862	76
9	503	1088.807861963293	77
9	511	1110.969765792938	78
9	512	1112.728087781661	79
9	517	1122.015190410271	80
9	518	1122.777850301912	81
9	519	1123.311212803322	82
9	520	1124.886966797391	83
9	525	1129.045067324281	84
9	526	1133.47916522951	85
9	527	1150.226389545178	86
9	528	1150.934204966009	87
9	529	1151.69119746206	88
9	530	1154.124353022655	89
9	531	1170.482427622079	90
9	532	1172.857960837495	91
9	533	1173.748742561379	92
9	534	1176.23062821122	93
9	535	1177.205692552969	94
9	538	1182.413820040891	95
9	539	1182.550718726281	96
9	540	1183.162010755341	97
9	579	1240.903865261255	98
9	582	1247.825861116963	99
9	589	1267.892235091493	100
9	592	1269.556732612882	101
9	593	1270.378330795674	102
9	597	1280.045051006055	103
9	598	1282.531084890222	104
9	603	1287.266122529985	105
9	604	1293.41216348211	106
9	605	1293.796037138181	107
9	606	1299.637593601651	108
9	607	1306.694483115943	109
9	608	1312.669627416831	110
9	611	1319.331934293356	111
9	614	1321.53568891488	112
9	615	1322.646431963389	113
9	627	1351.974449332428	114
9	628	1354.091451747732	115
9	634	1364.123138730444	116
9	635	1364.878842609562	117
9	636	1367.894830679432	118
9	649	1406.145856247366	119
9	650	1414.444207418587	120
9	654	1424.996350082228	121
9	657	1437.226540480422	122
9	658	1442.671386148926	123
9	659	1443.030096283107	124
9	660	1453.181749573706	125
9	661	1458.555282034199	126
9	662	1458.880124172652	127
9	663	1461.645285106549	128
9	666	1469.275517097174	129
9	667	1470.3310015653	130
9	668	1475.394645954991	131
9	669	1481.82864413872	132
9	674	1492.833759720334	133
9	675	1496.122392963915	134
9	678	1499.711368335396	135
9	682	1526.179876456446	136
9	686	1530.159232806401	137
9	710	1566.569962438481	138
9	718	1584.563481589877	139
9	719	1589.65344172903	140
9	720	1599.991306077889	141
9	721	1601.041178554683	142
9	743	1638.75912984315	143
9	746	1642.808274696397	144
9	749	1646.35700279508	145
9	750	1651.768773237631	146
9	754	1656.539141256009	147
9	755	1663.934025351006	148
9	766	1685.586319982398	149
9	770	1692.920633459253	150
9	775	1698.844861689121	151
9	776	1700.053576840729	152
9	779	1709.780413253434	153
9	782	1716.890029422436	154
9	785	1725.952368214918	155
9	786	1726.897614921148	156
9	789	1741.935021489227	157
9	790	1742.919943489232	158
9	800	1760.635128151938	159
9	803	1767.476191215234	160
9	804	1779.401987777339	161
9	808	1787.784976895479	162
9	816	1800.391638150924	163
9	817	1803.395264560561	164
9	818	1813.480017458904	165
9	819	1815.68230127728	166
9	826	1828.355724372243	167
9	837	1857.508079817905	168
9	842	1867.290652810845	169
9	843	1871.20208287811	170
9	846	1878.080683240767	171
9	859	1906.585873699681	172
9	860	1906.668038395709	173
9	861	1914.290921436286	174
9	864	1919.116528604891	175
9	865	1921.294232757528	176
9	866	1928.098627790978	177
9	867	1928.635223006905	178
9	868	1929.488387455288	179
9	890	1968.578783550804	180
9	891	1971.437562241916	181
9	892	1971.901044391086	182
9	924	2029.554397214953	183
9	941	2064.464728842476	184
9	944	2074.540234320462	185
9	949	2090.898985926449	186
9	955	2102.608702152128	187
9	956	2105.119045003117	188
9	959	2109.261233806225	189
9	960	2109.281354970561	190
9	961	2110.292226211583	191
9	966	2120.663823622585	192
9	967	2127.384514755732	193
9	968	2128.546316890305	194
9	969	2130.040302774231	195
9	970	2132.808679953558	196
9	971	2138.81590013704	197
9	974	2144.865673256359	198
9	975	2150.107152461029	199
9	976	2150.17049415049	200
9	979	2156.29858720372	201
9	980	2157.666067241907	202
9	985	2172.863410400338	203
9	986	2181.505457432339	204
9	987	2182.777545705436	205
9	990	2185.871756943853	206
9	991	2190.324373434853	207
9	995	2211.878394003073	208
9	998	2222.003456667014	209
9	1001	2228.838717025246	210
9	1002	2233.248513128251	211
9	1003	2233.36014725658	212
9	1006	2235.553550042946	213
9	1014	2275.423769312463	214
9	1015	2283.642332553392	215
9	1016	2289.252526984814	216
9	1019	2302.43057958798	217
9	1031	2330.353418312035	218
9	1032	2331.677492489493	219
9	1036	2341.469542757264	220
9	1037	2342.502028059292	221
9	1042	2352.006379859213	222
9	1050	2372.279367618342	223
9	1051	2380.633325330651	224
9	1063	2409.788638398512	225
9	1067	2418.662734465574	226
9	1068	2420.49558681124	227
9	1071	2430.35430886117	228
9	1075	2443.078699392448	229
9	1076	2452.892143522113	230
9	1077	2454.529525461903	231
9	1093	2489.068853401475	232
9	1094	2490.03527678875	233
9	1097	2498.737298852095	234
9	1098	2499.627568223565	235
10	170	373.416521031541	39.284472148128
10	171	377.693683508599	38.969153252634
10	172	382.623158324973	32.628794304115
10	183	403.704498748038	38.646156556981
10	184	404.016655826867	15.979603401064
10	190	407.613292892415	4.45434412893
10	194	424.821691246275	20.088360370925
10	197	432.880924315963	13.734014214252
10	198	434.426336834155	9.351936954601
10	207	459.907157380988	14.423835342317
10	215	495.227714568904	11.292173838815
10	228	529.081126838137	31.964977650916
10	236	553.12259390408	30.577545127669
10	237	555.754864260982	27.020520888304
10	238	556.436616934856	20.35262935028
10	262	613.857477543503	51.248740801923
10	274	644.761183796124	68.141425937927
10	277	651.149888156466	69.674964986215
10	284	666.900279240964	80.066202639275
10	291	679.268937771109	83.711649218999
10	292	679.891094471247	82.786509114137
10	295	692.2784793456	87.465547403817
10	301	704.302290435966	81.442651624596
10	302	704.581155590054	70.8240188684
10	303	706.813438429426	58.842654906835
10	306	708.116315452134	52.767259011984
10	359	774.171223539534	85.912716671121
10	395	856.651734009251	148.17068729714
10	454	986.706891285584	266.51836041068
10	455	989.100673000895	264.99443401922
10	456	991.754299321732	258.0342509494
10	464	1000.848228674682	265.50681540789
10	465	1001.106617975621	257.74851789967
10	468	1009.226330053871	264.41495001533
10	480	1026.187965657051	269.26668652408
10	481	1026.57282482019	266.85883631932
10	482	1030.296440901378	268.48959127533
10	486	1036.062933452817	245.47693361399
10	487	1038.542048706906	243.9809273349
10	488	1038.78543030734	224.91029672637
10	492	1049.144882526229	217.84089863008
10	496	1064.777710529777	228.63757308049
10	499	1072.342478859864	227.08836417823
10	500	1081.995365187864	230.99592643882
10	501	1084.022321830253	225.68287094096
10	502	1086.504015571862	212.24106620588
10	503	1088.807861963293	202.58383460274
10	511	1110.969765792938	223.07897326996
10	512	1112.728087781661	189.83515841414
10	517	1122.015190410271	192.00666424795
10	518	1122.777850301912	188.89579625888
10	519	1123.311212803322	178.84081744542
10	520	1124.886966797391	173.63671838655
10	525	1129.045067324281	173.46869750951
10	526	1133.47916522951	176.02853475455
10	527	1150.226389545178	190.4136920094
10	528	1150.934204966009	186.68746714402
10	529	1151.69119746206	187.24399935807
10	530	1154.124353022655	188.49732831638
10	531	1170.482427622079	190.9649760179
10	532	1172.857960837495	189.55088959048
10	533	1173.748742561379	181.08105571665
10	534	1176.23062821122	180.27402769103
10	535	1177.205692552969	180.016985106
10	538	1182.413820040891	181.29398702088
10	539	1182.550718726281	172.98660777099
10	540	1183.162010755341	173.20606823592
10	579	1240.903865261255	209.11663310532
10	582	1247.825861116963	206.25432422383
10	589	1267.892235091493	207.33255186132
10	592	1269.556732612882	199.22386847197
10	593	1270.378330795674	178.25623319623
10	597	1280.045051006055	176.70636936305
10	598	1282.531084890222	168.61413911369
10	603	1287.266122529985	171.0061615657
10	604	1293.41216348211	167.07201006362
10	605	1293.796037138181	165.69674826544
10	606	1299.637593601651	117.93730122648
10	607	1306.694483115943	120.68799216715
10	608	1312.669627416831	120.38190789071
10	611	1319.331934293356	118.32505623098
10	614	1321.53568891488	118.17898742638
10	615	1322.646431963389	118.71874856834
10	627	1351.974449332428	136.41670335664
10	628	1354.091451747732	132.09589575592
10	634	1364.123138730444	129.55617191313
10	635	1364.878842609562	128.58060123079
10	636	1367.894830679432	131.10498352309
10	649	1406.145856247366	153.32136545611
10	650	1414.444207418587	150.93899465583
10	654	1424.996350082228	156.18845619321
10	657	1437.226540480422	162.18781967613
10	658	1442.671386148926	158.79713892719
10	659	1443.030096283107	156.96704309629
10	660	1453.181749573706	137.24679746837
10	661	1458.555282034199	138.02019035146
10	662	1458.880124172652	127.48233868113
10	663	1461.645285106549	119.81331314008
10	666	1469.275517097174	120.67441502849
10	667	1470.3310015653	121.59325371231
10	668	1475.394645954991	125.63544928675
10	669	1481.82864413872	125.74901690525
10	674	1492.833759720334	133.32354371053
10	675	1496.122392963915	126.17948755744
10	678	1499.711368335396	124.86911557695
10	682	1526.179876456446	137.27332759626
10	686	1530.159232806401	111.25855395031
10	710	1566.569962438481	76.050288534033
10	718	1584.563481589877	65.650216557644
10	719	1589.65344172903	62.380909264886
10	720	1599.991306077889	65.143357332139
10	721	1601.041178554683	65.776395871863
10	743	1638.75912984315	87.164171807369
10	746	1642.808274696397	85.22542415185
10	749	1646.35700279508	81.792244291075
10	750	1651.768773237631	87.002113452164
10	754	1656.539141256009	87.799834037856
10	755	1663.934025351006	92.938818686286
10	766	1685.586319982398	72.351309679588
10	770	1692.920633459253	78.405055503331
10	775	1698.844861689121	79.875089114001
10	776	1700.053576840729	77.97666527225
10	779	1709.780413253434	87.298879784501
10	782	1716.890029422436	87.852033109867
10	785	1725.952368214918	95.650485538096
10	786	1726.897614921148	84.92699697884
10	789	1741.935021489227	96.137394058301
10	790	1742.919943489232	90.870857452677
10	800	1760.635128151938	93.595128750995
10	803	1767.476191215234	95.087348056722
10	804	1779.401987777339	99.396225987093
10	808	1787.784976895479	90.357015906115
10	816	1800.391638150924	99.85674866592
10	817	1803.395264560561	91.068479804905
10	818	1813.480017458904	92.824797542586
10	819	1815.68230127728	86.666106041259
10	826	1828.355724372243	80.470570612488
10	837	1857.508079817905	105.37533095583
10	842	1867.290652810845	108.0454245766
10	843	1871.20208287811	104.5492651394
10	846	1878.080683240767	98.185927516148
10	859	1906.585873699681	110.97673687504
10	860	1906.668038395709	88.769848923458
10	861	1914.290921436286	87.813775553293
10	864	1919.116528604891	91.771677898502
10	865	1921.294232757528	92.030034749197
10	866	1928.098627790978	74.261217797825
10	867	1928.635223006905	71.544408858462
10	868	1929.488387455288	68.561971165859
10	890	1968.578783550804	96.549900653826
10	891	1971.437562241916	81.295098669942
10	892	1971.901044391086	81.39888498409
10	924	2029.554397214953	96.208961314593
10	941	2064.464728842476	122.60406964856
10	944	2074.540234320462	127.60757389398
10	949	2090.898985926449	135.13503508037
10	955	2102.608702152128	138.59365272008
10	956	2105.119045003117	139.30147305122
10	959	2109.261233806225	137.31863742886
10	960	2109.281354970561	125.80637229454
10	961	2110.292226211583	123.87176426911
10	966	2120.663823622585	132.57153198611
10	967	2127.384514755732	139.24515771434
10	968	2128.546316890305	138.82354478661
10	969	2130.040302774231	133.19305861402
10	970	2132.808679953558	131.75956643014
10	971	2138.81590013704	136.97381869612
10	974	2144.865673256359	135.38572941145
10	975	2150.107152461029	137.47999200758
10	976	2150.17049415049	125.37824716267
10	979	2156.29858720372	126.44672206431
10	980	2157.666067241907	122.13569303614
10	985	2172.863410400338	134.78358467502
10	986	2181.505457432339	140.02216432466
10	987	2182.777545705436	135.95076338093
10	990	2185.871756943853	111.63703205903
10	991	2190.324373434853	110.41060701523
10	995	2211.878394003073	119.82207288595
10	998	2222.003456667014	125.11923642936
10	1001	2228.838717025246	123.37056710931
10	1002	2233.248513128251	122.73692514643
10	1003	2233.36014725658	113.8826505669
10	1006	2235.553550042946	93.43871759466
10	1014	2275.423769312463	114.63014144835
10	1015	2283.642332553392	120.32450476036
10	1016	2289.252526984814	103.71963020704
10	1019	2302.43057958798	108.54165536947
10	1031	2330.353418312035	102.90162533009
10	1032	2331.677492489493	98.299459233029
10	1036	2341.469542757264	90.910627866104
10	1037	2342.502028059292	84.425602060961
10	1042	2352.006379859213	55.499888028445
10	1050	2372.279367618342	62.515223641488
10	1051	2380.633325330651	67.338980021055
10	1063	2409.788638398512	81.926107503274
10	1067	2418.662734465574	73.990981524877
10	1068	2420.49558681124	70.516608904378
10	1071	2430.35430886117	75.325143476761
10	1075	2443.078699392448	75.799551228229
10	1076	2452.892143522113	65.315164008587
10	1077	2454.529525461903	64.078441187677
10	1093	2489.068853401475	86.155022439917
10	1094	2490.03527678875	80.123193747942
10	1097	2498.737298852095	74.475163390705
10	1098	2499.627568223565	65.19507003462
11	1099	2500	0.094
12	1099	2500	0.0508

