version 2
run analysis_2kr_hard_game_mode-142-20230304-18:48:53-29712
attr configname analysis_2kr_hard_game_mode
attr datetime 20230304-18:48:53
attr experiment analysis_2kr_hard_game_mode
attr inifile omnetpp.ini
attr iterationvars "$0=30, $1=10, $2=15, $3=3.5, $4=0"
attr iterationvarsf 30,10,15,3.5,0-
attr measurement "$0=30, $1=10, $2=15, $3=3.5, $4=0"
attr network Network
attr processid 29712
attr repetition 2
attr replication #2
attr resultdir results
attr runnumber 142
attr seedset 2
param *.boss.arrival_mean 30
param *.boss.service_mean 10
param *.minion.arrival_mean 15
param *.minion.service_mean 3.5
param *.player.recover_rate_x 0
param **.minion.arrival_distribution 0
param **.minion.service_distribution 0
param **.boss.arrival_distribution 0
param **.boss.service_distribution 0

vector 0 Network.player minion_jobs_number_stat:vector ETV
attr source signal_minion_jobs_number
vector 1 Network.player minion_jobs_queue_number_stat:vector ETV
attr source signal_minion_jobs_queue_number
vector 2 Network.player minion_waiting_time_stat:vector ETV
attr source signal_minion_waiting_time
vector 3 Network.player minion_defeated_stat:vector ETV
attr source signal_minion_defeated
vector 4 Network.player minion_response_time_stat:vector ETV
attr source signal_minion_response_time
vector 5 Network.player boss_jobs_number_stat:vector ETV
attr source signal_boss_jobs_number
vector 6 Network.player boss_jobs_queue_number_stat:vector ETV
attr source signal_boss_jobs_queue_number
vector 7 Network.player boss_waiting_time_stat:vector ETV
attr source signal_boss_waiting_time
vector 8 Network.player boss_defeated_stat:vector ETV
attr source signal_boss_defeated
vector 9 Network.player boss_response_time_stat:vector ETV
attr source signal_boss_response_time
vector 10 Network.player minion_recovered_stat:vector ETV
attr source signal_minion_recovered
vector 11 Network.player minion_throughput:vector ETV
attr source signal_minion_throughput
vector 12 Network.player boss_throughput:vector ETV
attr source signal_boss_throughput
0	110	350.953061253699	1
0	116	369.089244285231	1
0	127	390.552067630878	2
0	131	398.281536046368	3
0	135	416.972979694258	4
0	140	442.551145852204	5
0	142	457.052362703137	6
0	144	457.375028241585	7
0	149	465.704314933775	8
0	152	472.231091623112	9
0	154	477.348917331445	10
0	158	487.219211253535	10
0	170	541.880808372375	1
0	176	573.050354982374	1
0	178	579.142250934685	2
0	180	579.971941709485	3
0	183	583.675823284714	3
0	186	588.339615772527	3
0	189	589.360721477759	3
0	192	594.543407912	3
0	206	655.547742821984	3
0	210	672.47701784307	3
0	213	674.529023853553	3
0	216	679.89239719045	3
0	219	685.724411032188	3
0	222	688.750698212737	3
0	224	689.854473480862	4
0	229	698.557870178393	2
0	231	702.376801839033	3
0	236	713.733760962412	4
0	240	721.237856207437	3
0	250	764.799904146747	1
0	258	798.771298790583	1
0	261	809.583014581335	2
0	266	815.940390217179	1
0	272	832.733544767195	1
0	277	895.480631843658	1
0	279	897.427267600078	2
0	281	897.864561088463	3
0	285	903.930906936938	4
0	287	910.431579799219	5
0	289	915.244056825142	6
0	291	922.437810683289	7
0	295	935.109397270347	8
0	301	956.778430466108	7
0	303	972.965901610437	8
0	309	1014.870981726851	6
0	314	1019.841954418863	6
0	319	1025.620050478194	5
0	321	1027.997723624813	6
0	325	1036.494805447206	5
0	327	1038.307169590088	6
0	331	1043.03082576487	7
0	335	1059.447810545156	7
0	347	1083.668780943537	4
0	349	1084.65695125057	5
0	356	1099.908515917179	1
0	361	1109.696595704063	1
0	363	1110.764044021988	2
0	371	1126.458781998632	2
0	373	1140.3404372306	3
0	375	1142.568142735905	4
0	380	1166.381421845953	4
0	389	1183.801852186621	1
0	391	1184.289826529204	2
0	394	1184.792232950525	2
0	399	1193.90910564187	3
0	407	1229.313354617622	1
0	415	1252.735400317894	1
0	419	1256.586114321579	1
0	427	1323.69366635405	1
0	429	1336.350970977134	2
0	440	1349.505742838266	1
0	443	1354.047819126911	1
0	445	1354.643163320585	2
0	448	1357.63479225311	2
0	452	1366.50510605517	1
0	457	1373.536140864867	1
0	459	1376.663152105085	2
0	464	1386.320335335223	3
0	467	1401.115226304299	4
0	473	1405.440096449075	5
0	475	1409.07724364913	6
0	486	1436.868202280752	3
0	490	1439.323115501346	4
0	499	1467.35640869313	1
0	503	1478.879135337971	1
0	506	1498.117219296358	1
0	508	1499.704075029449	2
0	514	1508.455625839908	1
0	518	1528.160121462115	1
0	521	1540.087391815274	1
0	532	1582.201564502705	1
0	534	1596.979460869487	2
0	542	1640.033988862801	1
0	545	1650.423274314593	1
0	548	1657.467054182859	1
0	551	1677.535476848652	1
0	555	1691.121312760968	2
0	560	1700.271422872681	3
0	565	1716.541296554412	4
0	573	1730.927578084945	3
0	578	1741.645605858174	4
0	587	1758.063398430972	3
0	589	1767.611855590334	4
0	597	1776.316956327264	5
0	599	1776.450634544598	6
0	601	1776.653086147218	7
0	603	1777.707755929082	8
0	605	1778.101605945067	9
0	608	1786.660671059225	10
0	611	1791.405483455559	11
0	613	1799.876624892334	12
0	615	1822.81058505354	13
0	617	1825.895365414743	14
0	629	1868.795083149726	10
0	636	1880.111020188122	6
0	638	1881.981720522455	7
0	647	1895.691854925668	6
0	659	1916.228036437344	1
0	664	1935.372128484686	1
0	674	1992.911364395869	1
0	677	1998.399172613988	1
0	683	2018.998757756524	1
0	686	2026.771433206279	1
0	689	2037.03641691398	1
0	698	2062.9920724781	1
0	703	2064.867336679188	1
0	707	2078.136686887429	1
0	710	2101.029939351562	1
0	716	2119.418898659086	1
0	718	2119.915515577098	2
0	722	2130.633598354114	1
0	724	2132.328073294677	2
0	728	2158.912867470775	1
0	731	2162.997923097165	1
0	737	2182.128774572317	1
0	740	2187.922088015266	1
0	743	2218.100141419454	1
0	755	2257.952915938803	1
0	758	2261.364139015998	1
0	761	2270.922387506429	1
0	764	2276.241148423009	1
0	767	2285.71081615814	1
0	773	2295.399160977723	1
0	778	2320.682741118373	1
0	782	2330.889300565029	2
0	784	2335.037468793384	3
0	787	2349.072482389458	4
0	794	2363.775822585502	1
0	799	2389.409358564869	1
0	803	2400.660923205781	1
0	806	2411.913793708821	1
0	809	2425.814961095485	1
0	814	2467.818465001709	1
0	816	2472.443412053108	2
0	821	2491.720255473208	1
1	110	350.953061253699	0
1	111	358.332207196476	0
1	116	369.089244285231	0
1	127	390.552067630878	1
1	131	398.281536046368	2
1	135	416.972979694258	3
1	140	442.551145852204	4
1	142	457.052362703137	5
1	144	457.375028241585	6
1	149	465.704314933775	7
1	152	472.231091623112	8
1	154	477.348917331445	9
1	156	484.311653580001	9
1	158	487.219211253535	9
1	159	494.86485762799	9
1	160	499.508433256514	8
1	161	499.646749990431	7
1	162	511.683342065024	6
1	163	515.886848579051	5
1	164	520.118865415368	4
1	165	523.095296723109	3
1	166	523.604607589156	2
1	167	531.594590669388	1
1	168	532.106257727638	0
1	170	541.880808372375	0
1	171	545.728391403655	0
1	176	573.050354982374	0
1	178	579.142250934685	1
1	180	579.971941709485	2
1	181	583.592380047224	2
1	183	583.675823284714	2
1	184	586.37038002262	2
1	186	588.339615772527	2
1	187	589.189004472067	2
1	189	589.360721477759	2
1	190	593.431344350766	2
1	192	594.543407912	2
1	193	603.476704421081	2
1	206	655.547742821984	2
1	208	672.375413479842	2
1	210	672.47701784307	2
1	211	673.241524503306	2
1	213	674.529023853553	2
1	214	677.391141244161	2
1	216	679.89239719045	2
1	217	680.303525428533	2
1	219	685.724411032188	2
1	220	686.401328177288	2
1	222	688.750698212737	2
1	224	689.854473480862	3
1	225	689.972912366489	3
1	226	692.166498142926	2
1	227	697.235366259259	1
1	229	698.557870178393	1
1	231	702.376801839033	2
1	236	713.733760962412	3
1	237	715.208769740664	3
1	238	720.907868045762	2
1	240	721.237856207437	2
1	241	723.317524627564	2
1	242	729.608953862302	1
1	243	743.94460666547	0
1	250	764.799904146747	0
1	252	775.301910981099	0
1	258	798.771298790583	0
1	261	809.583014581335	1
1	263	811.82859340618	1
1	264	812.117827822394	0
1	266	815.940390217179	0
1	267	818.517200653117	0
1	272	832.733544767195	0
1	273	832.978782698041	0
1	277	895.480631843658	0
1	279	897.427267600078	1
1	281	897.864561088463	2
1	285	903.930906936938	3
1	287	910.431579799219	4
1	289	915.244056825142	5
1	291	922.437810683289	6
1	295	935.109397270347	7
1	296	938.85231502957	7
1	297	941.215750657718	6
1	301	956.778430466108	6
1	303	972.965901610437	7
1	305	987.233423189867	7
1	306	994.135678263475	6
1	307	1003.212056647517	5
1	309	1014.870981726851	5
1	310	1015.58512848563	5
1	314	1019.841954418863	5
1	316	1023.63743743549	5
1	317	1024.355749551479	4
1	319	1025.620050478194	4
1	321	1027.997723624813	5
1	322	1028.232153157251	5
1	323	1029.20706011543	4
1	325	1036.494805447206	4
1	327	1038.307169590088	5
1	331	1043.03082576487	6
1	333	1058.0958777908	6
1	335	1059.447810545156	6
1	336	1065.329430628198	6
1	337	1070.86440509772	5
1	341	1079.489034790806	4
1	342	1081.456042462461	3
1	347	1083.668780943537	3
1	349	1084.65695125057	4
1	350	1085.124249205681	4
1	351	1086.671671934227	3
1	352	1091.266479641058	2
1	353	1092.757577691989	1
1	354	1093.028594390388	0
1	356	1099.908515917179	0
1	357	1102.088152928251	0
1	361	1109.696595704063	0
1	363	1110.764044021988	1
1	365	1120.132645472739	1
1	371	1126.458781998632	1
1	373	1140.3404372306	2
1	375	1142.568142735905	3
1	378	1165.904150746118	3
1	380	1166.381421845953	3
1	381	1167.901714947141	3
1	382	1170.301798380752	2
1	386	1178.727824599035	1
1	387	1181.021607960171	0
1	389	1183.801852186621	0
1	391	1184.289826529204	1
1	392	1184.330376040497	1
1	394	1184.792232950525	1
1	399	1193.90910564187	2
1	400	1197.428484096449	2
1	401	1198.579095173663	1
1	402	1205.730877853093	0
1	407	1229.313354617622	0
1	408	1242.788232959253	0
1	415	1252.735400317894	0
1	417	1254.182247910582	0
1	419	1256.586114321579	0
1	420	1265.880443560584	0
1	427	1323.69366635405	0
1	429	1336.350970977134	1
1	437	1347.72961851456	1
1	438	1349.475649403677	0
1	440	1349.505742838266	0
1	441	1353.761065483653	0
1	443	1354.047819126911	0
1	445	1354.643163320585	1
1	446	1355.243280488245	1
1	448	1357.63479225311	1
1	449	1364.318565035869	1
1	450	1365.651708378954	0
1	452	1366.50510605517	0
1	453	1366.645995946446	0
1	457	1373.536140864867	0
1	459	1376.663152105085	1
1	464	1386.320335335223	2
1	467	1401.115226304299	3
1	473	1405.440096449075	4
1	475	1409.07724364913	5
1	478	1421.405402811354	5
1	479	1421.558691985497	4
1	480	1425.115602764191	3
1	484	1436.797600318083	2
1	486	1436.868202280752	2
1	490	1439.323115501346	3
1	492	1453.107369173904	3
1	493	1454.255810613509	2
1	494	1455.905959677564	1
1	495	1456.09677596155	0
1	499	1467.35640869313	0
1	501	1473.225114404162	0
1	503	1478.879135337971	0
1	504	1479.016806006323	0
1	506	1498.117219296358	0
1	508	1499.704075029449	1
1	509	1502.037156161435	1
1	510	1502.687334288627	0
1	514	1508.455625839908	0
1	516	1509.803374716219	0
1	518	1528.160121462115	0
1	519	1533.699019560964	0
1	521	1540.087391815274	0
1	522	1540.771146899397	0
1	532	1582.201564502705	0
1	534	1596.979460869487	1
1	536	1599.398656744146	1
1	537	1599.879467513877	0
1	542	1640.033988862801	0
1	543	1640.556739538641	0
1	545	1650.423274314593	0
1	546	1650.677593750716	0
1	548	1657.467054182859	0
1	549	1658.990536388442	0
1	551	1677.535476848652	0
1	555	1691.121312760968	1
1	560	1700.271422872681	2
1	565	1716.541296554412	3
1	567	1725.731101353447	3
1	568	1728.050253772946	2
1	573	1730.927578084945	2
1	578	1741.645605858174	3
1	582	1752.06756422461	3
1	583	1754.126648598932	2
1	587	1758.063398430972	2
1	589	1767.611855590334	3
1	597	1776.316956327264	4
1	599	1776.450634544598	5
1	601	1776.653086147218	6
1	603	1777.707755929082	7
1	605	1778.101605945067	8
1	608	1786.660671059225	9
1	611	1791.405483455559	10
1	613	1799.876624892334	11
1	615	1822.81058505354	12
1	617	1825.895365414743	13
1	623	1851.505519348169	13
1	624	1857.079159900318	12
1	625	1857.203065010638	11
1	626	1858.289121372142	10
1	627	1863.576042746037	9
1	629	1868.795083149726	9
1	630	1871.983541806702	9
1	631	1874.250109110465	8
1	632	1874.331072720046	7
1	633	1874.589663417436	6
1	634	1876.235363620907	5
1	636	1880.111020188122	5
1	638	1881.981720522455	6
1	639	1884.410644052147	6
1	640	1885.190042648116	5
1	647	1895.691854925668	5
1	649	1897.431466296048	5
1	650	1897.447476318282	4
1	651	1899.502637753006	3
1	652	1900.361846917036	2
1	653	1904.679389863801	1
1	657	1912.663758314234	0
1	659	1916.228036437344	0
1	660	1920.805069654237	0
1	664	1935.372128484686	0
1	669	1957.812537367712	0
1	674	1992.911364395869	0
1	675	1994.259923709498	0
1	677	1998.399172613988	0
1	678	1999.243107284767	0
1	683	2018.998757756524	0
1	684	2021.78474626674	0
1	686	2026.771433206279	0
1	687	2027.626002158268	0
1	689	2037.03641691398	0
1	690	2037.167545328045	0
1	698	2062.9920724781	0
1	699	2063.917351833558	0
1	703	2064.867336679188	0
1	705	2071.250009739947	0
1	707	2078.136686887429	0
1	708	2082.70752046523	0
1	710	2101.029939351562	0
1	711	2103.583893885869	0
1	716	2119.418898659086	0
1	718	2119.915515577098	1
1	719	2121.300901282276	1
1	720	2123.866251177	0
1	722	2130.633598354114	0
1	724	2132.328073294677	1
1	725	2133.70248682606	1
1	726	2140.037612192991	0
1	728	2158.912867470775	0
1	729	2161.29946171088	0
1	731	2162.997923097165	0
1	732	2163.026547483009	0
1	737	2182.128774572317	0
1	738	2184.09647824078	0
1	740	2187.922088015266	0
1	741	2189.36085465518	0
1	743	2218.100141419454	0
1	747	2223.121562858498	0
1	755	2257.952915938803	0
1	756	2260.944935144587	0
1	758	2261.364139015998	0
1	759	2264.207603501669	0
1	761	2270.922387506429	0
1	762	2271.429685356625	0
1	764	2276.241148423009	0
1	765	2277.502688725668	0
1	767	2285.71081615814	0
1	768	2286.2664323967	0
1	773	2295.399160977723	0
1	774	2307.766498057052	0
1	778	2320.682741118373	0
1	782	2330.889300565029	1
1	784	2335.037468793384	2
1	787	2349.072482389458	3
1	789	2355.228863581269	3
1	790	2356.120275734956	2
1	791	2358.968148996935	1
1	792	2359.491023438946	0
1	794	2363.775822585502	0
1	795	2375.308287195788	0
1	799	2389.409358564869	0
1	801	2400.620651575829	0
1	803	2400.660923205781	0
1	804	2405.073231557185	0
1	806	2411.913793708821	0
1	807	2414.28376253387	0
1	809	2425.814961095485	0
1	810	2428.754629601832	0
1	814	2467.818465001709	0
1	816	2472.443412053108	1
1	818	2474.860597190216	1
1	819	2480.288440807971	0
1	821	2491.720255473208	0
1	822	2492.125413415547	0
2	110	350.953061253699	0
2	116	369.089244285231	0
2	155	483.406702553709	113.58326505713
2	156	484.311653580001	93.759585949123
2	159	494.86485762799	96.583321581622
2	160	499.508433256514	82.535453562256
2	161	499.646749990431	57.095604138227
2	162	511.683342065024	54.630979361887
2	163	515.886848579051	58.511820337466
2	164	520.118865415368	54.414550481593
2	165	523.095296723109	50.864205099997
2	166	523.604607589156	46.255690257711
2	167	531.594590669388	44.375379415853
2	170	541.880808372375	0
2	176	573.050354982374	0
2	181	583.592380047224	4.450129112539
2	184	586.37038002262	6.398438313135
2	187	589.189004472067	5.513181187353
2	190	593.431344350766	5.091728578239
2	193	603.476704421081	14.115982943322
2	207	668.899775001628	74.356367089628
2	208	672.375413479842	68.054937797363
2	211	673.241524503306	17.693781681322
2	214	677.391141244161	4.914123401091
2	217	680.303525428533	5.77450157498
2	220	686.401328177288	6.508930986838
2	225	689.972912366489	4.248501334301
2	226	692.166498142926	3.415799930189
2	227	697.235366259259	7.380892778397
2	234	713.562584521568	15.004714343175
2	237	715.208769740664	12.831967901631
2	238	720.907868045762	16.204495672356
2	241	723.317524627564	9.583763665152
2	242	729.608953862302	8.371097654865
2	251	774.915769592875	10.115865446128
2	262	811.177973377044	12.406674586461
2	263	811.82859340618	2.245578824845
2	266	815.940390217179	0
2	272	832.733544767195	0
2	293	928.667755364311	33.187123520653
2	296	938.85231502957	41.425047429492
2	297	941.215750657718	43.351189569255
2	304	986.410756372858	82.47984943592
2	305	987.233423189867	76.801843390648
2	306	994.135678263475	78.891621438333
2	307	1003.212056647517	80.774245964228
2	310	1015.58512848563	80.475731215283
2	315	1020.439545970173	78.751901660717
2	316	1023.63743743549	66.859006969382
2	317	1024.355749551479	51.389847941042
2	322	1028.232153157251	13.3611714304
2	323	1029.20706011543	12.57085920672
2	332	1055.04500037296	35.203045954097
2	333	1058.0958777908	32.475827312606
2	336	1065.329430628198	37.331707003385
2	337	1070.86440509772	34.369599650514
2	340	1079.321644961721	41.014475371633
2	341	1079.489034790806	39.49946308786
2	342	1081.456042462461	38.425216697591
2	345	1082.085828103104	22.638017557948
2	350	1085.124249205681	7.521315504712
2	351	1086.671671934227	4.840553011683
2	352	1091.266479641058	7.597698697521
2	353	1092.757577691989	8.100626441419
2	356	1099.908515917179	0
2	364	1119.522116787628	9.825521083565
2	365	1120.132645472739	9.368601450751
2	377	1163.780467478504	42.471046140738
2	378	1165.904150746118	39.445368747486
2	381	1167.901714947141	27.561277716541
2	382	1170.301798380752	27.733655644847
2	385	1176.45269190909	10.071270063137
2	386	1178.727824599035	7.5669344616
2	389	1183.801852186621	0
2	392	1184.330376040497	0.040549511293
2	397	1189.406930153427	4.614697202902
2	400	1197.428484096449	12.247023131106
2	401	1198.579095173663	4.669989531793
2	407	1229.313354617622	0
2	416	1253.456119003665	0.720718685771
2	419	1256.586114321579	0
2	436	1343.656640292029	19.962973937979
2	437	1347.72961851456	11.378647537426
2	440	1349.505742838266	0
2	443	1354.047819126911	0
2	446	1355.243280488245	0.60011716766
2	449	1364.318565035869	6.683772782759
2	452	1366.50510605517	0
2	465	1397.793497793171	24.257356928304
2	477	1417.759740115692	41.096588010607
2	478	1421.405402811354	35.085067476131
2	479	1421.558691985497	20.443465681198
2	480	1425.115602764191	23.106540494618
2	483	1436.14496544206	30.704868992985
2	484	1436.797600318083	27.720356668953
2	491	1452.607961989278	17.03583146404
2	492	1453.107369173904	16.239166893152
2	493	1454.255810613509	16.940687181518
2	494	1455.905959677564	16.582844176218
2	500	1471.417235097405	4.060826404275
2	503	1478.879135337971	0
2	506	1498.117219296358	0
2	509	1502.037156161435	2.333081131986
2	515	1508.844649794032	0.389023954124
2	518	1528.160121462115	0
2	521	1540.087391815274	0
2	535	1598.777544470395	16.57597996769
2	536	1599.398656744146	2.419195874659
2	542	1640.033988862801	0
2	545	1650.423274314593	0
2	548	1657.467054182859	0
2	551	1677.535476848652	0
2	566	1724.792263828816	44.662624554169
2	567	1725.731101353447	34.609788592479
2	568	1728.050253772946	27.778830900265
2	571	1729.085964461616	12.544667907204
2	576	1739.252666841734	10.882659261052
2	581	1750.536883635593	19.609305550648
2	582	1752.06756422461	20.853089021167
2	583	1754.126648598932	12.481042740758
2	622	1848.904699412554	105.42862805465
2	623	1851.505519348169	97.299182204012
2	624	1857.079159900318	99.015761469346
2	625	1857.203065010638	89.591209420304
2	626	1858.289121372142	81.972165044878
2	627	1863.576042746037	87.125408201439
2	630	1871.983541806702	95.330455659484
2	631	1874.250109110465	96.542353181383
2	632	1874.331072720046	96.229466774979
2	633	1874.589663417436	87.928992358211
2	634	1876.235363620907	84.829880165348
2	639	1884.410644052147	84.534019159813
2	640	1885.190042648116	62.379457594576
2	648	1895.962254295425	70.066888880682
2	649	1897.431466296048	28.636383146322
2	650	1897.447476318282	17.33645613016
2	651	1899.502637753006	17.520917230551
2	652	1900.361846917036	13.781280319667
2	653	1904.679389863801	8.987534938133
2	656	1910.986748773003	5.571351880708
2	659	1916.228036437344	0
2	668	1955.939944035502	20.567815550816
2	674	1992.911364395869	0
2	677	1998.399172613988	0
2	683	2018.998757756524	0
2	686	2026.771433206279	0
2	689	2037.03641691398	0
2	698	2062.9920724781	0
2	704	2065.301628735645	0.434292056457
2	707	2078.136686887429	0
2	710	2101.029939351562	0
2	716	2119.418898659086	0
2	719	2121.300901282276	1.385385705178
2	722	2130.633598354114	0
2	725	2133.70248682606	1.374413531383
2	728	2158.912867470775	0
2	731	2162.997923097165	0
2	737	2182.128774572317	0
2	740	2187.922088015266	0
2	743	2218.100141419454	0
2	746	2220.466005912776	0.376423989885
2	755	2257.952915938803	0
2	758	2261.364139015998	0
2	761	2270.922387506429	0
2	764	2276.241148423009	0
2	767	2285.71081615814	0
2	773	2295.399160977723	0
2	788	2355.033224124852	34.350483006479
2	789	2355.228863581269	24.33956301624
2	790	2356.120275734956	21.082806941572
2	791	2358.968148996935	9.895666607477
2	794	2363.775822585502	0
2	800	2397.280473618092	7.871115053223
2	803	2400.660923205781	0
2	806	2411.913793708821	0
2	809	2425.814961095485	0
2	817	2474.152536203042	6.334071201333
2	818	2474.860597190216	2.417185137108
2	821	2491.720255473208	0
3	111	358.332207196476	23
3	156	484.311653580001	24
3	159	494.86485762799	25
3	160	499.508433256514	26
3	161	499.646749990431	27
3	162	511.683342065024	28
3	163	515.886848579051	29
3	164	520.118865415368	30
3	165	523.095296723109	31
3	166	523.604607589156	32
3	167	531.594590669388	33
3	168	532.106257727638	34
3	171	545.728391403655	35
3	181	583.592380047224	36
3	184	586.37038002262	37
3	187	589.189004472067	38
3	190	593.431344350766	39
3	193	603.476704421081	40
3	208	672.375413479842	41
3	211	673.241524503306	42
3	214	677.391141244161	43
3	217	680.303525428533	44
3	220	686.401328177288	45
3	225	689.972912366489	46
3	226	692.166498142926	47
3	227	697.235366259259	48
3	237	715.208769740664	49
3	238	720.907868045762	50
3	241	723.317524627564	51
3	242	729.608953862302	52
3	243	743.94460666547	53
3	252	775.301910981099	54
3	263	811.82859340618	55
3	264	812.117827822394	56
3	267	818.517200653117	57
3	273	832.978782698041	58
3	296	938.85231502957	59
3	297	941.215750657718	60
3	305	987.233423189867	61
3	306	994.135678263475	62
3	307	1003.212056647517	63
3	310	1015.58512848563	64
3	316	1023.63743743549	65
3	317	1024.355749551479	66
3	322	1028.232153157251	67
3	323	1029.20706011543	68
3	333	1058.0958777908	69
3	336	1065.329430628198	70
3	337	1070.86440509772	71
3	341	1079.489034790806	72
3	342	1081.456042462461	73
3	350	1085.124249205681	74
3	351	1086.671671934227	75
3	352	1091.266479641058	76
3	353	1092.757577691989	77
3	354	1093.028594390388	78
3	357	1102.088152928251	79
3	365	1120.132645472739	80
3	378	1165.904150746118	81
3	381	1167.901714947141	82
3	382	1170.301798380752	83
3	386	1178.727824599035	84
3	387	1181.021607960171	85
3	392	1184.330376040497	86
3	400	1197.428484096449	87
3	401	1198.579095173663	88
3	402	1205.730877853093	89
3	408	1242.788232959253	90
3	417	1254.182247910582	91
3	420	1265.880443560584	92
3	437	1347.72961851456	93
3	438	1349.475649403677	94
3	441	1353.761065483653	95
3	446	1355.243280488245	96
3	449	1364.318565035869	97
3	450	1365.651708378954	98
3	453	1366.645995946446	99
3	478	1421.405402811354	100
3	479	1421.558691985497	101
3	480	1425.115602764191	102
3	484	1436.797600318083	103
3	492	1453.107369173904	104
3	493	1454.255810613509	105
3	494	1455.905959677564	106
3	495	1456.09677596155	107
3	501	1473.225114404162	108
3	504	1479.016806006323	109
3	509	1502.037156161435	110
3	510	1502.687334288627	111
3	516	1509.803374716219	112
3	519	1533.699019560964	113
3	522	1540.771146899397	114
3	536	1599.398656744146	115
3	537	1599.879467513877	116
3	543	1640.556739538641	117
3	546	1650.677593750716	118
3	549	1658.990536388442	119
3	567	1725.731101353447	120
3	568	1728.050253772946	121
3	582	1752.06756422461	122
3	583	1754.126648598932	123
3	623	1851.505519348169	124
3	624	1857.079159900318	125
3	625	1857.203065010638	126
3	626	1858.289121372142	127
3	627	1863.576042746037	128
3	630	1871.983541806702	129
3	631	1874.250109110465	130
3	632	1874.331072720046	131
3	633	1874.589663417436	132
3	634	1876.235363620907	133
3	639	1884.410644052147	134
3	640	1885.190042648116	135
3	649	1897.431466296048	136
3	650	1897.447476318282	137
3	651	1899.502637753006	138
3	652	1900.361846917036	139
3	653	1904.679389863801	140
3	657	1912.663758314234	141
3	660	1920.805069654237	142
3	669	1957.812537367712	143
3	675	1994.259923709498	144
3	678	1999.243107284767	145
3	684	2021.78474626674	146
3	687	2027.626002158268	147
3	690	2037.167545328045	148
3	699	2063.917351833558	149
3	705	2071.250009739947	150
3	708	2082.70752046523	151
3	711	2103.583893885869	152
3	719	2121.300901282276	153
3	720	2123.866251177	154
3	725	2133.70248682606	155
3	726	2140.037612192991	156
3	729	2161.29946171088	157
3	732	2163.026547483009	158
3	738	2184.09647824078	159
3	741	2189.36085465518	160
3	747	2223.121562858498	161
3	756	2260.944935144587	162
3	759	2264.207603501669	163
3	762	2271.429685356625	164
3	765	2277.502688725668	165
3	768	2286.2664323967	166
3	774	2307.766498057052	167
3	789	2355.228863581269	168
3	790	2356.120275734956	169
3	791	2358.968148996935	170
3	792	2359.491023438946	171
3	795	2375.308287195788	172
3	801	2400.620651575829	173
3	804	2405.073231557185	174
3	807	2414.28376253387	175
3	810	2428.754629601832	176
3	818	2474.860597190216	177
3	819	2480.288440807971	178
3	822	2492.125413415547	179
4	111	358.332207196476	7.379145942777
4	156	484.311653580001	114.48821608342
4	159	494.86485762799	104.31278999711
4	160	499.508433256514	101.22689721015
4	161	499.646749990431	82.673770296173
4	162	511.683342065024	69.13219621282
4	163	515.886848579051	58.834485875914
4	164	520.118865415368	62.743837173783
4	165	523.095296723109	57.390981789334
4	166	523.604607589156	51.373515966044
4	167	531.594590669388	54.245673337943
4	168	532.106257727638	44.887046474103
4	171	545.728391403655	3.84758303128
4	181	583.592380047224	10.54202506485
4	184	586.37038002262	7.228129087935
4	187	589.189004472067	9.217062762582
4	190	593.431344350766	9.755521066052
4	193	603.476704421081	15.137088648554
4	208	672.375413479842	77.832005567842
4	211	673.241524503306	68.921048820827
4	214	677.391141244161	21.843398422177
4	217	680.303525428533	7.826507585463
4	220	686.401328177288	11.872304323735
4	225	689.972912366489	10.080515176039
4	226	692.166498142926	6.442087110738
4	227	697.235366259259	8.484668046522
4	237	715.208769740664	16.650899562271
4	238	720.907868045762	18.531066206729
4	241	723.317524627564	18.614152254158
4	242	729.608953862302	15.87519289989
4	243	743.94460666547	22.706750458033
4	252	775.301910981099	10.502006834352
4	263	811.82859340618	13.057294615597
4	264	812.117827822394	2.534813241059
4	267	818.517200653117	2.576810435938
4	273	832.978782698041	0.245237930846
4	296	938.85231502957	43.371683185912
4	297	941.215750657718	43.78848305764
4	305	987.233423189867	83.302516252929
4	306	994.135678263475	83.704098464256
4	307	1003.212056647517	87.967999822375
4	310	1015.58512848563	93.147317802341
4	316	1023.63743743549	81.949793126034
4	317	1024.355749551479	67.577319085371
4	322	1028.232153157251	55.266251546814
4	323	1029.20706011543	14.336078388579
4	333	1058.0958777908	38.253923371937
4	336	1065.329430628198	39.709380150004
4	337	1070.86440509772	42.866681472907
4	341	1079.489034790806	41.181865200718
4	342	1081.456042462461	41.466470759515
4	350	1085.124249205681	25.676438660525
4	351	1086.671671934227	9.068738233258
4	352	1091.266479641058	9.435360718514
4	353	1092.757577691989	9.088796748452
4	354	1093.028594390388	8.371643139818
4	357	1102.088152928251	2.179637011072
4	365	1120.132645472739	10.436049768676
4	378	1165.904150746118	44.594729408352
4	381	1167.901714947141	41.442932948509
4	382	1170.301798380752	29.961361150152
4	386	1178.727824599035	12.346402753082
4	387	1181.021607960171	9.860717822736
4	392	1184.330376040497	0.528523853876
4	400	1197.428484096449	12.636251145924
4	401	1198.579095173663	13.39763420832
4	402	1205.730877853093	11.821772211223
4	408	1242.788232959253	13.474878341631
4	417	1254.182247910582	1.446847592688
4	420	1265.880443560584	9.294329239005
4	437	1347.72961851456	24.03595216051
4	438	1349.475649403677	13.124678426543
4	441	1353.761065483653	4.255322645387
4	446	1355.243280488245	1.195461361334
4	449	1364.318565035869	9.675401715284
4	450	1365.651708378954	8.016916125844
4	453	1366.645995946446	0.140889891276
4	478	1421.405402811354	44.742250706269
4	479	1421.558691985497	35.238356650274
4	480	1425.115602764191	24.000376459892
4	484	1436.797600318083	31.357503869008
4	492	1453.107369173904	17.535238648666
4	493	1454.255810613509	17.387608332757
4	494	1455.905959677564	18.590836245573
4	495	1456.09677596155	16.773660460204
4	501	1473.225114404162	5.868705711032
4	504	1479.016806006323	0.137670668352
4	509	1502.037156161435	3.919936865077
4	510	1502.687334288627	2.983259259178
4	516	1509.803374716219	1.347748876311
4	519	1533.699019560964	5.538898098849
4	522	1540.771146899397	0.683755084123
4	536	1599.398656744146	17.197092241441
4	537	1599.879467513877	2.90000664439
4	543	1640.556739538641	0.52275067584
4	546	1650.677593750716	0.254319436123
4	549	1658.990536388442	1.523482205583
4	567	1725.731101353447	45.6014620788
4	568	1728.050253772946	36.928941011978
4	582	1752.06756422461	21.139986139665
4	583	1754.126648598932	22.912173395489
4	623	1851.505519348169	108.02944799027
4	624	1857.079159900318	102.87282275616
4	625	1857.203065010638	99.139666579666
4	626	1858.289121372142	90.677265781808
4	627	1863.576042746037	87.259086418773
4	630	1871.983541806702	95.532907262104
4	631	1874.250109110465	97.597022963247
4	632	1874.331072720046	96.623316790964
4	633	1874.589663417436	96.488057472369
4	634	1876.235363620907	89.574692561682
4	639	1884.410644052147	93.005160596588
4	640	1885.190042648116	85.313417755782
4	649	1897.431466296048	71.536100881305
4	650	1897.447476318282	28.652393168556
4	651	1899.502637753006	19.391617564884
4	652	1900.361846917036	18.380126394581
4	653	1904.679389863801	18.098823266432
4	657	1912.663758314234	7.248361421939
4	660	1920.805069654237	4.577033216893
4	669	1957.812537367712	22.440408883026
4	675	1994.259923709498	1.348559313629
4	678	1999.243107284767	0.843934670779
4	684	2021.78474626674	2.785988510216
4	687	2027.626002158268	0.854568951989
4	690	2037.167545328045	0.131128414065
4	699	2063.917351833558	0.925279355458
4	705	2071.250009739947	6.382673060759
4	708	2082.70752046523	4.570833577801
4	711	2103.583893885869	2.553954534307
4	719	2121.300901282276	1.88200262319
4	720	2123.866251177	3.950735599902
4	725	2133.70248682606	3.068888471946
4	726	2140.037612192991	7.709538898314
4	729	2161.29946171088	2.386594240105
4	732	2163.026547483009	0.028624385844
4	738	2184.09647824078	1.967703668463
4	741	2189.36085465518	1.438766639914
4	747	2223.121562858498	3.031980935607
4	756	2260.944935144587	2.992019205784
4	759	2264.207603501669	2.843464485671
4	762	2271.429685356625	0.507297850196
4	765	2277.502688725668	1.261540302659
4	768	2286.2664323967	0.55561623856
4	774	2307.766498057052	12.367337079329
4	789	2355.228863581269	34.546122462896
4	790	2356.120275734956	25.230975169927
4	791	2358.968148996935	23.930680203551
4	792	2359.491023438946	10.418541049488
4	795	2375.308287195788	11.532464610286
4	801	2400.620651575829	11.21129301096
4	804	2405.073231557185	4.412308351404
4	807	2414.28376253387	2.369968825049
4	810	2428.754629601832	2.939668506347
4	818	2474.860597190216	7.042132188507
4	819	2480.288440807971	7.845028754863
4	822	2492.125413415547	0.405157942339
5	113	360.563777950559	1
5	118	369.823437496583	1
5	120	375.381203536285	2
5	122	384.560774436847	3
5	125	387.335413309351	3
5	129	392.224320651685	4
5	137	426.914087462371	3
5	147	461.457246401535	2
5	173	553.437603758979	1
5	195	604.320475682479	1
5	197	604.439158151511	2
5	200	616.726586392182	2
5	203	638.261604292271	2
5	233	704.703372373406	1
5	245	754.942025664163	1
5	248	761.565982796694	1
5	254	790.009184370493	1
5	256	790.942038269855	2
5	269	829.319669743967	1
5	275	892.337158669343	1
5	283	902.691243247334	2
5	299	941.687644309456	1
5	312	1016.63620090871	1
5	329	1039.989571702946	1
5	339	1077.602933700969	1
5	344	1081.831118922544	1
5	359	1105.293380265788	1
5	367	1121.309421337766	1
5	369	1125.909903032852	2
5	384	1171.160890137435	1
5	396	1185.181460965343	1
5	404	1211.486449424174	1
5	410	1245.12448508443	1
5	413	1251.174440244616	1
5	422	1268.667362010699	1
5	425	1321.142545848953	1
5	431	1338.21812368407	2
5	434	1341.559542662263	2
5	455	1370.411288633291	1
5	461	1380.415810387932	2
5	469	1402.009062269573	1
5	471	1404.043402969798	2
5	482	1435.572130525238	1
5	488	1437.315123431991	1
5	497	1464.8818680639	1
5	512	1508.385206963064	1
5	524	1557.46223702778	1
5	526	1557.817978894505	2
5	530	1579.940178275986	1
5	539	1608.338295609274	1
5	553	1680.129639274647	1
5	557	1692.228364982624	2
5	562	1703.764556429293	2
5	570	1728.370007580682	1
5	575	1731.214475203443	1
5	580	1743.476071357903	1
5	585	1754.206337144157	1
5	591	1770.095509420512	2
5	593	1773.726129804286	3
5	595	1776.125214902578	4
5	619	1829.052110276993	3
5	642	1886.580566597369	1
5	644	1888.021514216396	2
5	655	1905.415396892295	1
5	662	1934.943423605723	1
5	666	1938.845117563528	2
5	671	1962.639855231211	1
5	680	2002.113212525367	1
5	692	2053.438566885625	1
5	694	2057.920811426925	2
5	701	2064.57567663793	1
5	713	2108.261740607993	1
5	734	2166.577670362266	1
5	745	2220.089581922891	1
5	749	2233.08944217134	1
5	752	2244.211704389751	1
5	770	2286.363507756744	1
5	776	2313.67144743344	1
5	780	2324.199123195525	2
5	797	2385.962997380867	1
5	812	2450.57152504087	1
6	113	360.563777950559	0
6	114	367.245818673575	0
6	118	369.823437496583	0
6	120	375.381203536285	1
6	122	384.560774436847	2
6	123	387.320865226011	2
6	125	387.335413309351	2
6	129	392.224320651685	3
6	132	415.760707429282	3
6	133	416.734768555877	2
6	137	426.914087462371	2
6	138	435.759115086155	2
6	145	457.805371202866	1
6	147	461.457246401535	1
6	150	470.897388409085	1
6	155	483.406702553709	0
6	173	553.437603758979	0
6	174	554.588750544426	0
6	195	604.320475682479	0
6	197	604.439158151511	1
6	198	611.616482366649	1
6	200	616.726586392182	1
6	201	634.050607428226	1
6	203	638.261604292271	1
6	204	649.439876148419	1
6	207	668.899775001628	0
6	233	704.703372373406	0
6	234	713.562584521568	0
6	245	754.942025664163	0
6	246	756.746298585773	0
6	248	761.565982796694	0
6	251	774.915769592875	0
6	254	790.009184370493	0
6	256	790.942038269855	1
6	259	800.014988397524	1
6	262	811.177973377044	0
6	269	829.319669743967	0
6	270	829.526632842828	0
6	275	892.337158669343	0
6	283	902.691243247334	1
6	292	927.426429651942	1
6	293	928.667755364311	0
6	299	941.687644309456	0
6	304	986.410756372858	0
6	312	1016.63620090871	0
6	315	1020.439545970173	0
6	329	1039.989571702946	0
6	332	1055.04500037296	0
6	339	1077.602933700969	0
6	340	1079.321644961721	0
6	344	1081.831118922544	0
6	345	1082.085828103104	0
6	359	1105.293380265788	0
6	364	1119.522116787628	0
6	367	1121.309421337766	0
6	369	1125.909903032852	1
6	376	1146.727840718221	1
6	377	1163.780467478504	0
6	384	1171.160890137435	0
6	385	1176.45269190909	0
6	396	1185.181460965343	0
6	397	1189.406930153427	0
6	404	1211.486449424174	0
6	405	1213.589990113755	0
6	410	1245.12448508443	0
6	411	1248.963460787486	0
6	413	1251.174440244616	0
6	416	1253.456119003665	0
6	422	1268.667362010699	0
6	423	1269.851383096837	0
6	425	1321.142545848953	0
6	431	1338.21812368407	1
6	432	1341.093861389956	1
6	434	1341.559542662263	1
6	435	1341.970739066341	1
6	436	1343.656640292029	0
6	455	1370.411288633291	0
6	461	1380.415810387932	1
6	462	1382.884474512163	1
6	465	1397.793497793171	0
6	469	1402.009062269573	0
6	471	1404.043402969798	1
6	476	1411.160560955836	1
6	477	1417.759740115692	0
6	482	1435.572130525238	0
6	483	1436.14496544206	0
6	488	1437.315123431991	0
6	491	1452.607961989278	0
6	497	1464.8818680639	0
6	500	1471.417235097405	0
6	512	1508.385206963064	0
6	515	1508.844649794032	0
6	524	1557.46223702778	0
6	526	1557.817978894505	1
6	527	1562.598473745789	1
6	528	1572.308112070604	0
6	530	1579.940178275986	0
6	535	1598.777544470395	0
6	539	1608.338295609274	0
6	540	1614.180729904425	0
6	553	1680.129639274647	0
6	557	1692.228364982624	1
6	558	1692.782774470659	1
6	562	1703.764556429293	1
6	563	1715.577621542087	1
6	566	1724.792263828816	0
6	570	1728.370007580682	0
6	571	1729.085964461616	0
6	575	1731.214475203443	0
6	576	1739.252666841734	0
6	580	1743.476071357903	0
6	581	1750.536883635593	0
6	585	1754.206337144157	0
6	591	1770.095509420512	1
6	593	1773.726129804286	2
6	595	1776.125214902578	3
6	606	1783.985731830948	3
6	609	1790.238860441633	2
6	619	1829.052110276993	2
6	620	1833.418738197245	2
6	621	1844.77898568362	1
6	622	1848.904699412554	0
6	642	1886.580566597369	0
6	644	1888.021514216396	1
6	645	1893.219534679669	1
6	648	1895.962254295425	0
6	655	1905.415396892295	0
6	656	1910.986748773003	0
6	662	1934.943423605723	0
6	666	1938.845117563528	1
6	667	1950.861159647018	1
6	668	1955.939944035502	0
6	671	1962.639855231211	0
6	672	1963.297903762553	0
6	680	2002.113212525367	0
6	681	2002.552768340445	0
6	692	2053.438566885625	0
6	694	2057.920811426925	1
6	695	2057.973818705383	1
6	696	2060.157714344273	0
6	701	2064.57567663793	0
6	704	2065.301628735645	0
6	713	2108.261740607993	0
6	714	2114.733028560052	0
6	734	2166.577670362266	0
6	735	2170.425001119132	0
6	745	2220.089581922891	0
6	746	2220.466005912776	0
6	749	2233.08944217134	0
6	750	2233.819263916623	0
6	752	2244.211704389751	0
6	753	2244.271881930264	0
6	770	2286.363507756744	0
6	771	2289.792125113062	0
6	776	2313.67144743344	0
6	780	2324.199123195525	1
6	785	2339.421930154928	1
6	788	2355.033224124852	0
6	797	2385.962997380867	0
6	800	2397.280473618092	0
6	812	2450.57152504087	0
6	817	2474.152536203042	0
7	113	360.563777950559	0
7	118	369.823437496583	0
7	123	387.320865226011	11.939661689726
7	132	415.760707429282	31.199932992435
7	133	416.734768555877	29.399355246526
7	138	435.759115086155	43.53479443447
7	145	457.805371202866	30.891283740495
7	150	470.897388409085	9.44014200755
7	173	553.437603758979	0
7	195	604.320475682479	0
7	198	611.616482366649	7.177324215138
7	201	634.050607428226	17.324021036044
7	204	649.439876148419	11.178271856148
7	233	704.703372373406	0
7	245	754.942025664163	0
7	248	761.565982796694	0
7	254	790.009184370493	0
7	259	800.014988397524	9.072950127669
7	269	829.319669743967	0
7	275	892.337158669343	0
7	292	927.426429651942	24.735186404608
7	299	941.687644309456	0
7	312	1016.63620090871	0
7	329	1039.989571702946	0
7	339	1077.602933700969	0
7	344	1081.831118922544	0
7	359	1105.293380265788	0
7	367	1121.309421337766	0
7	376	1146.727840718221	20.817937685369
7	384	1171.160890137435	0
7	396	1185.181460965343	0
7	404	1211.486449424174	0
7	410	1245.12448508443	0
7	413	1251.174440244616	0
7	422	1268.667362010699	0
7	425	1321.142545848953	0
7	432	1341.093861389956	2.875737705886
7	435	1341.970739066341	0.411196404078
7	455	1370.411288633291	0
7	462	1382.884474512163	2.468664124231
7	469	1402.009062269573	0
7	476	1411.160560955836	7.117157986038
7	482	1435.572130525238	0
7	488	1437.315123431991	0
7	497	1464.8818680639	0
7	512	1508.385206963064	0
7	524	1557.46223702778	0
7	527	1562.598473745789	4.780494851284
7	530	1579.940178275986	0
7	539	1608.338295609274	0
7	553	1680.129639274647	0
7	558	1692.782774470659	0.554409488035
7	563	1715.577621542087	11.813065112794
7	570	1728.370007580682	0
7	575	1731.214475203443	0
7	580	1743.476071357903	0
7	585	1754.206337144157	0
7	606	1783.985731830948	13.890222410436
7	609	1790.238860441633	16.512730637347
7	620	1833.418738197245	57.293523294667
7	621	1844.77898568362	15.726875406627
7	642	1886.580566597369	0
7	645	1893.219534679669	5.198020463273
7	655	1905.415396892295	0
7	662	1934.943423605723	0
7	667	1950.861159647018	12.01604208349
7	671	1962.639855231211	0
7	680	2002.113212525367	0
7	692	2053.438566885625	0
7	695	2057.973818705383	0.053007278458
7	701	2064.57567663793	0
7	713	2108.261740607993	0
7	734	2166.577670362266	0
7	745	2220.089581922891	0
7	749	2233.08944217134	0
7	752	2244.211704389751	0
7	770	2286.363507756744	0
7	776	2313.67144743344	0
7	785	2339.421930154928	15.222806959403
7	797	2385.962997380867	0
7	812	2450.57152504087	0
8	114	367.245818673575	15
8	123	387.320865226011	16
8	132	415.760707429282	17
8	133	416.734768555877	18
8	138	435.759115086155	19
8	145	457.805371202866	20
8	150	470.897388409085	21
8	155	483.406702553709	22
8	174	554.588750544426	23
8	198	611.616482366649	24
8	201	634.050607428226	25
8	204	649.439876148419	26
8	207	668.899775001628	27
8	234	713.562584521568	28
8	246	756.746298585773	29
8	251	774.915769592875	30
8	259	800.014988397524	31
8	262	811.177973377044	32
8	270	829.526632842828	33
8	292	927.426429651942	34
8	293	928.667755364311	35
8	304	986.410756372858	36
8	315	1020.439545970173	37
8	332	1055.04500037296	38
8	340	1079.321644961721	39
8	345	1082.085828103104	40
8	364	1119.522116787628	41
8	376	1146.727840718221	42
8	377	1163.780467478504	43
8	385	1176.45269190909	44
8	397	1189.406930153427	45
8	405	1213.589990113755	46
8	411	1248.963460787486	47
8	416	1253.456119003665	48
8	423	1269.851383096837	49
8	432	1341.093861389956	50
8	435	1341.970739066341	51
8	436	1343.656640292029	52
8	462	1382.884474512163	53
8	465	1397.793497793171	54
8	476	1411.160560955836	55
8	477	1417.759740115692	56
8	483	1436.14496544206	57
8	491	1452.607961989278	58
8	500	1471.417235097405	59
8	515	1508.844649794032	60
8	527	1562.598473745789	61
8	528	1572.308112070604	62
8	535	1598.777544470395	63
8	540	1614.180729904425	64
8	558	1692.782774470659	65
8	563	1715.577621542087	66
8	566	1724.792263828816	67
8	571	1729.085964461616	68
8	576	1739.252666841734	69
8	581	1750.536883635593	70
8	606	1783.985731830948	71
8	609	1790.238860441633	72
8	620	1833.418738197245	73
8	621	1844.77898568362	74
8	622	1848.904699412554	75
8	645	1893.219534679669	76
8	648	1895.962254295425	77
8	656	1910.986748773003	78
8	667	1950.861159647018	79
8	668	1955.939944035502	80
8	672	1963.297903762553	81
8	681	2002.552768340445	82
8	695	2057.973818705383	83
8	696	2060.157714344273	84
8	704	2065.301628735645	85
8	714	2114.733028560052	86
8	735	2170.425001119132	87
8	746	2220.466005912776	88
8	750	2233.819263916623	89
8	753	2244.271881930264	90
8	771	2289.792125113062	91
8	785	2339.421930154928	92
8	788	2355.033224124852	93
8	800	2397.280473618092	94
8	817	2474.152536203042	95
9	114	367.245818673575	6.682040723016
9	123	387.320865226011	17.497427729428
9	132	415.760707429282	40.379503892997
9	133	416.734768555877	32.17399411903
9	138	435.759115086155	48.423701776804
9	145	457.805371202866	65.581050551181
9	150	470.897388409085	43.983300946714
9	155	483.406702553709	21.949456152174
9	174	554.588750544426	1.151146785447
9	198	611.616482366649	7.29600668417
9	201	634.050607428226	29.611449276715
9	204	649.439876148419	32.713289756237
9	207	668.899775001628	30.638170709357
9	234	713.562584521568	8.859212148162
9	246	756.746298585773	1.80427292161
9	251	774.915769592875	13.349786796181
9	259	800.014988397524	10.005804027031
9	262	811.177973377044	20.235935107189
9	270	829.526632842828	0.206963098861
9	292	927.426429651942	35.089270982599
9	293	928.667755364311	25.976512116977
9	304	986.410756372858	44.723112063402
9	315	1020.439545970173	3.803345061463
9	332	1055.04500037296	15.055428670014
9	340	1079.321644961721	1.718711260752
9	345	1082.085828103104	0.25470918056
9	364	1119.522116787628	14.22873652184
9	376	1146.727840718221	25.418419380455
9	377	1163.780467478504	37.870564445652
9	385	1176.45269190909	5.291801771655
9	397	1189.406930153427	4.225469188084
9	405	1213.589990113755	2.103540689581
9	411	1248.963460787486	3.838975703056
9	416	1253.456119003665	2.281678759049
9	423	1269.851383096837	1.184021086138
9	432	1341.093861389956	19.951315541003
9	435	1341.970739066341	3.752615382271
9	436	1343.656640292029	2.097097629766
9	462	1382.884474512163	12.473185878872
9	465	1397.793497793171	17.377687405239
9	476	1411.160560955836	9.151498686263
9	477	1417.759740115692	13.716337145894
9	483	1436.14496544206	0.572834916822
9	491	1452.607961989278	15.292838557287
9	500	1471.417235097405	6.535367033505
9	515	1508.844649794032	0.459442830968
9	527	1562.598473745789	5.136236718009
9	528	1572.308112070604	14.490133176099
9	535	1598.777544470395	18.837366194409
9	540	1614.180729904425	5.842434295151
9	558	1692.782774470659	12.653135196012
9	563	1715.577621542087	23.349256559463
9	566	1724.792263828816	21.027707399523
9	571	1729.085964461616	0.715956880934
9	576	1739.252666841734	8.038191638291
9	581	1750.536883635593	7.06081227769
9	606	1783.985731830948	29.779394686791
9	609	1790.238860441633	20.143351021121
9	620	1833.418738197245	59.692608392959
9	621	1844.77898568362	68.653770781042
9	622	1848.904699412554	19.852589135561
9	645	1893.219534679669	6.6389680823
9	648	1895.962254295425	7.940740079029
9	656	1910.986748773003	5.571351880708
9	667	1950.861159647018	15.917736041295
9	668	1955.939944035502	17.094826471974
9	672	1963.297903762553	0.658048531342
9	681	2002.552768340445	0.439555815078
9	695	2057.973818705383	4.535251819758
9	696	2060.157714344273	2.236902917348
9	704	2065.301628735645	0.725952097715
9	714	2114.733028560052	6.471287952059
9	735	2170.425001119132	3.847330756866
9	746	2220.466005912776	0.376423989885
9	750	2233.819263916623	0.729821745283
9	753	2244.271881930264	0.060177540513
9	771	2289.792125113062	3.428617356318
9	785	2339.421930154928	25.750482721488
9	788	2355.033224124852	30.834100929327
9	800	2397.280473618092	11.317476237225
9	817	2474.152536203042	23.581011162172
10	118	369.823437496583	2
10	195	604.320475682479	3
10	233	704.703372373406	4
10	299	941.687644309456	5
10	312	1016.63620090871	6
10	329	1039.989571702946	7
10	339	1077.602933700969	8
10	344	1081.831118922544	9
10	367	1121.309421337766	10
10	384	1171.160890137435	11
10	396	1185.181460965343	12
10	469	1402.009062269573	13
10	482	1435.572130525238	14
10	488	1437.315123431991	15
10	553	1680.129639274647	16
10	570	1728.370007580682	17
10	575	1731.214475203443	18
10	580	1743.476071357903	19
10	585	1754.206337144157	20
10	642	1886.580566597369	21
10	655	1905.415396892295	22
10	745	2220.089581922891	23
11	823	2500	0.0716
12	823	2500	0.038

