file 48670 1677952110                                           
version 2
run analysis_2kr_hard_game_mode-30-20230304-18:48:30-29146
attr configname analysis_2kr_hard_game_mode
attr datetime 20230304-18:48:30
attr experiment analysis_2kr_hard_game_mode
attr inifile omnetpp.ini
attr iterationvars "$0=20, $1=7.5, $2=15, $3=7, $4=0"
attr iterationvarsf 20,7.5,15,7,0-
attr measurement "$0=20, $1=7.5, $2=15, $3=7, $4=0"
attr network Network
attr processid 29146
attr repetition 0
attr replication #0
attr resultdir results
attr runnumber 30
attr seedset 0
param *.boss.arrival_mean 20
param *.boss.service_mean 7.5
param *.minion.arrival_mean 15
param *.minion.service_mean 7
param *.player.recover_rate_x 0
param **.minion.arrival_distribution 0
param **.minion.service_distribution 0
param **.boss.arrival_distribution 0
param **.boss.service_distribution 0

vector 0 Network.player boss_defeated_stat:vector ETV
attr source signal_boss_defeated
vector 1 Network.player boss_jobs_queue_number_stat:vector ETV
attr source signal_boss_jobs_queue_number
vector 2 Network.player boss_response_time_stat:vector ETV
attr source signal_boss_response_time
vector 3 Network.player minion_waiting_time_stat:vector ETV
attr source signal_minion_waiting_time
vector 4 Network.player minion_defeated_stat:vector ETV
attr source signal_minion_defeated
vector 5 Network.player minion_jobs_queue_number_stat:vector ETV
attr source signal_minion_jobs_queue_number
vector 6 Network.player minion_response_time_stat:vector ETV
attr source signal_minion_response_time
vector 7 Network.player boss_jobs_number_stat:vector ETV
attr source signal_boss_jobs_number
vector 8 Network.player boss_waiting_time_stat:vector ETV
attr source signal_boss_waiting_time
vector 9 Network.player minion_jobs_number_stat:vector ETV
attr source signal_minion_jobs_number
vector 10 Network.player minion_recovered_stat:vector ETV
attr source signal_minion_recovered
vector 11 Network.player minion_throughput:vector ETV
attr source signal_minion_throughput
vector 12 Network.player boss_throughput:vector ETV
attr source signal_boss_throughput
0	2042 2826 128 863 351.172515206455 2488.714925074732 106 22 127 7897 687569
1	4868 5361 128 863 351.172515206455 2488.714925074732 211 0 3 68 112
2	10229 4093 128 863 351.172515206455 2488.714925074732 106 0.182055978274 33.395514926394 863.92515909674 11228.288503577
3	14322 7037 128 863 351.172515206455 2488.714925074732 191 0 130.30294004854 5227.424898654 387947.19242031
4	21359 3828 129 864 351.851045928285 2496.619227649101 141 21 161 12831 1401211
5	25187 7256 129 864 351.851045928285 2496.619227649101 281 0 15 902 8270
6	32443 5533 129 864 351.851045928285 2496.619227649101 141 0.13689868539 132.62388525604 4388.0582484452 302913.63508929
7	37976 2669 131 861 365.058342191057 2480.218280446483 105 1 4 139 229
8	40645 2999 131 862 365.058342191057 2482.336260335981 105 0 24.234919066883 173.04348339338 2247.5350030322
9	43644 3611 133 856 369.303862818423 2468.696441146389 140 1 16 591 5177
10	47255 1376 139 859 388.037052425803 2476.510344138141 50 14 63 1925 84525
11	48631 19 865 865 2500 2500 1 0.0644 0.0644 0.0644 0.00414736
12	48650 19 865 865 2500 2500 1 0.0508 0.0508 0.0508 0.00258064

