version 2
run analysis_2kr_hard_game_mode-83-20230304-18:48:41-29414
attr configname analysis_2kr_hard_game_mode
attr datetime 20230304-18:48:41
attr experiment analysis_2kr_hard_game_mode
attr inifile omnetpp.ini
attr iterationvars "$0=30, $1=7.5, $2=10, $3=3.5, $4=0"
attr iterationvarsf 30,7.5,10,3.5,0-
attr measurement "$0=30, $1=7.5, $2=10, $3=3.5, $4=0"
attr network Network
attr processid 29414
attr repetition 3
attr replication #3
attr resultdir results
attr runnumber 83
attr seedset 3
param *.boss.arrival_mean 30
param *.boss.service_mean 7.5
param *.minion.arrival_mean 10
param *.minion.service_mean 3.5
param *.player.recover_rate_x 0
param **.minion.arrival_distribution 0
param **.minion.service_distribution 0
param **.boss.arrival_distribution 0
param **.boss.service_distribution 0

vector 0 Network.player minion_jobs_number_stat:vector ETV
attr source signal_minion_jobs_number
vector 1 Network.player minion_jobs_queue_number_stat:vector ETV
attr source signal_minion_jobs_queue_number
vector 2 Network.player minion_waiting_time_stat:vector ETV
attr source signal_minion_waiting_time
vector 3 Network.player minion_defeated_stat:vector ETV
attr source signal_minion_defeated
vector 4 Network.player minion_response_time_stat:vector ETV
attr source signal_minion_response_time
vector 5 Network.player boss_jobs_number_stat:vector ETV
attr source signal_boss_jobs_number
vector 6 Network.player boss_jobs_queue_number_stat:vector ETV
attr source signal_boss_jobs_queue_number
vector 7 Network.player boss_waiting_time_stat:vector ETV
attr source signal_boss_waiting_time
vector 8 Network.player boss_defeated_stat:vector ETV
attr source signal_boss_defeated
vector 9 Network.player boss_response_time_stat:vector ETV
attr source signal_boss_response_time
vector 10 Network.player minion_recovered_stat:vector ETV
attr source signal_minion_recovered
vector 11 Network.player minion_throughput:vector ETV
attr source signal_minion_throughput
vector 12 Network.player boss_throughput:vector ETV
attr source signal_boss_throughput
0	131	361.339663494602	1
0	136	367.9828784262	1
0	143	379.513301138535	1
0	145	394.129264259982	2
0	158	425.765741351908	1
0	160	427.517811650595	2
0	166	433.606808067719	1
0	170	448.069818965425	1
0	172	456.351270045832	2
0	174	456.561563782591	3
0	182	472.719413120029	1
0	184	474.172100886485	2
0	194	502.850351250119	1
0	196	504.086422382937	2
0	199	506.614196716074	2
0	201	510.323349281481	3
0	208	522.461553090038	1
0	210	533.592296136414	2
0	213	540.522669763452	3
0	218	546.894682894063	1
0	220	549.159432880295	2
0	224	566.096778961453	1
0	228	576.022142600914	2
0	230	579.441227499843	3
0	232	580.999566973229	4
0	241	594.209352549086	2
0	243	594.753402569665	3
0	250	606.880926727436	1
0	252	608.676596580058	2
0	255	612.645161330649	3
0	263	632.76123856948	1
0	266	636.83562207702	1
0	268	637.217093321776	2
0	275	675.410655830787	1
0	277	677.865079647084	2
0	281	687.662234629069	1
0	284	730.758287029875	1
0	294	760.778512054772	1
0	297	762.676109818951	2
0	299	777.263713199375	3
0	301	778.560288534075	4
0	310	795.990510267887	5
0	314	803.875283134171	6
0	318	809.094828093027	7
0	321	814.571875706268	8
0	323	820.574063313727	9
0	326	829.945582910592	10
0	329	835.06437174103	10
0	337	850.643575561551	5
0	349	903.906946611633	1
0	356	930.044493005324	1
0	358	931.999341308693	2
0	361	935.126957832346	2
0	365	967.986976557275	1
0	368	971.614401115977	1
0	371	977.048754828475	1
0	374	990.426205312561	1
0	377	995.943592048176	1
0	380	1022.382591948731	1
0	383	1028.602936522879	1
0	385	1028.810805650015	2
0	389	1033.490433093267	1
0	394	1061.002901677937	1
0	398	1067.267288635778	1
0	401	1075.724465931961	1
0	403	1076.082481560829	2
0	407	1077.735018370196	1
0	410	1078.615384691453	1
0	412	1081.67931445012	2
0	416	1094.866445323894	1
0	425	1111.881230236583	1
0	428	1121.992740047389	1
0	431	1134.933958298035	1
0	433	1135.217004455986	2
0	435	1135.363051972741	3
0	439	1138.932231129405	2
0	443	1144.787715153364	1
0	448	1147.283264483279	1
0	452	1155.69337419801	1
0	454	1156.259289260176	2
0	456	1163.204706882349	3
0	458	1170.612254816977	4
0	464	1186.949025027116	1
0	466	1192.333899696592	2
0	468	1197.613977193519	3
0	470	1198.108177697727	4
0	472	1198.606263427609	5
0	475	1207.102040070224	5
0	481	1215.572599614181	2
0	485	1231.844375578986	1
0	488	1234.910810938707	1
0	491	1236.116699961997	1
0	494	1247.942971155498	1
0	497	1251.188053035955	1
0	503	1275.249598754447	1
0	506	1285.512833833394	1
0	509	1294.031758144982	1
0	512	1300.819020909668	1
0	515	1310.93961002616	1
0	518	1318.003070602428	1
0	526	1326.696373353387	2
0	530	1332.884941883537	3
0	532	1336.650535836356	4
0	536	1359.16404557901	5
0	538	1366.636648785843	6
0	541	1375.945051716496	7
0	545	1386.322276825134	8
0	550	1395.569428066275	9
0	553	1398.224964158521	10
0	558	1404.092529556116	9
0	560	1404.723363852476	10
0	565	1411.263528282476	10
0	568	1420.224574092024	11
0	573	1442.157175674872	9
0	577	1450.186517457622	8
0	579	1452.524777592798	9
0	585	1471.364551841377	6
0	595	1500.292962552547	1
0	598	1514.628496105396	2
0	600	1515.391585098206	3
0	605	1520.075491215183	3
0	611	1529.117938344292	1
0	614	1536.955543686046	1
0	617	1537.272009496688	1
0	627	1568.170486611142	1
0	631	1579.114421679445	2
0	633	1580.500100178335	3
0	637	1590.644250055458	2
0	639	1590.825644943243	3
0	650	1610.664425130129	1
0	653	1618.936633049524	1
0	665	1647.347486492507	1
0	668	1651.645264029249	1
0	671	1657.544440275635	1
0	674	1667.875743443595	1
0	677	1678.961085905515	1
0	682	1682.270965130991	1
0	692	1708.084792584536	1
0	695	1713.623104352338	1
0	697	1723.283784264192	2
0	700	1728.055282631709	2
0	703	1731.950005401017	2
0	706	1733.335643327318	2
0	709	1737.184569819368	2
0	712	1746.430995735594	2
0	714	1749.876436639148	3
0	716	1750.623721910651	4
0	725	1782.186823052272	1
0	727	1786.678947997071	2
0	731	1791.887006369677	1
0	734	1797.950978938951	1
0	737	1827.242154249278	1
0	740	1850.542439783431	1
0	743	1870.004880988581	1
0	746	1873.144783037164	1
0	749	1884.822081319794	1
0	753	1885.778595246252	2
0	755	1885.811529056579	3
0	763	1897.708087929202	4
0	770	1920.744293764123	1
0	779	1932.417776871576	1
0	784	1957.658186564513	2
0	786	1958.145638604626	3
0	788	1958.20490747963	4
0	790	1962.041132941032	5
0	794	1972.339259434377	4
0	800	1996.972662773382	1
0	803	2001.837521535633	1
0	809	2022.651661072584	1
0	812	2031.708678368501	1
0	814	2039.16582307412	2
0	819	2048.602623725115	2
0	821	2051.296746386859	3
0	826	2060.450138024586	2
0	828	2061.864559880863	3
0	832	2065.608353002928	2
0	835	2073.528318068424	2
0	837	2074.252666708182	3
0	842	2094.944618720664	1
0	847	2111.075776948067	1
0	851	2121.523496411099	1
0	854	2145.763574788525	1
0	859	2151.397617746221	1
0	863	2153.562706682703	2
0	866	2158.8277209331	3
0	868	2161.192638793574	4
0	874	2176.623459025381	5
0	880	2181.362624258206	2
0	882	2184.414138255062	3
0	885	2189.569960956599	3
0	887	2192.862153177103	4
0	896	2214.505848794852	1
0	898	2214.739026256483	2
0	902	2216.997427399395	1
0	905	2228.158970210153	1
0	908	2233.589270654671	1
0	911	2235.134555999138	1
0	914	2245.5746372874	1
0	917	2246.434071313046	1
0	919	2253.60115613332	2
0	923	2264.722149296945	1
0	926	2268.784290434962	1
0	929	2282.192260561595	1
0	932	2297.26438804666	1
0	935	2306.451312004043	1
0	937	2307.906601523895	2
0	939	2308.451575159593	3
0	944	2310.57992847033	1
0	947	2313.938378685859	1
0	950	2319.089880690129	1
0	953	2332.875221144699	1
0	957	2348.332552859931	2
0	961	2353.692697809273	2
0	964	2356.62042384619	2
0	966	2358.091024437805	3
0	968	2359.250582496203	4
0	970	2366.186839445675	5
0	980	2392.876483049199	1
0	982	2394.55395121754	2
0	984	2395.905132468107	3
0	986	2396.699003818489	4
0	992	2405.987835363148	4
0	998	2431.543350033688	1
0	1001	2434.969970675909	1
0	1004	2436.854714053433	1
0	1007	2446.703873746544	1
0	1010	2453.818389630889	1
0	1013	2464.591085000307	1
0	1015	2466.762044446235	2
0	1017	2467.46333134511	3
0	1021	2475.219092225462	2
0	1025	2479.611011255182	1
0	1028	2495.728823675633	1
0	1031	2499.804357768263	1
1	131	361.339663494602	0
1	132	363.986530271653	0
1	136	367.9828784262	0
1	138	374.837130241702	0
1	143	379.513301138535	0
1	145	394.129264259982	1
1	149	399.57412505043	1
1	150	399.777159250838	0
1	158	425.765741351908	0
1	160	427.517811650595	1
1	161	429.101573945293	1
1	162	430.654478527573	0
1	166	433.606808067719	0
1	168	443.664576269099	0
1	170	448.069818965425	0
1	172	456.351270045832	1
1	174	456.561563782591	2
1	178	462.047297337558	2
1	179	462.907497235633	1
1	180	464.732356428776	0
1	182	472.719413120029	0
1	184	474.172100886485	1
1	188	483.033376877979	1
1	189	485.649269465868	0
1	194	502.850351250119	0
1	196	504.086422382937	1
1	197	505.555959194291	1
1	199	506.614196716074	1
1	201	510.323349281481	2
1	202	514.299883432853	2
1	203	516.522867917467	1
1	204	516.636350791448	0
1	208	522.461553090038	0
1	210	533.592296136414	1
1	213	540.522669763452	2
1	214	540.588520246167	2
1	215	540.824067334903	1
1	216	544.920703785137	0
1	218	546.894682894063	0
1	220	549.159432880295	1
1	221	550.372948665519	1
1	222	551.565587086313	0
1	224	566.096778961453	0
1	228	576.022142600914	1
1	230	579.441227499843	2
1	232	580.999566973229	3
1	234	592.065753437219	3
1	235	592.25574609828	2
1	236	592.286384865805	1
1	241	594.209352549086	1
1	243	594.753402569665	2
1	244	597.957800261724	2
1	245	602.762236876917	1
1	246	605.374001956422	0
1	250	606.880926727436	0
1	252	608.676596580058	1
1	255	612.645161330649	2
1	256	614.691390646066	2
1	260	620.560538801367	1
1	261	620.963063297277	0
1	263	632.76123856948	0
1	264	635.926540177741	0
1	266	636.83562207702	0
1	268	637.217093321776	1
1	272	650.508754661109	1
1	273	652.804391632387	0
1	275	675.410655830787	0
1	277	677.865079647084	1
1	278	677.902114410092	1
1	279	680.004046416129	0
1	281	687.662234629069	0
1	282	689.950192496873	0
1	284	730.758287029875	0
1	285	733.266308960363	0
1	294	760.778512054772	0
1	297	762.676109818951	1
1	299	777.263713199375	2
1	301	778.560288534075	3
1	310	795.990510267887	4
1	314	803.875283134171	5
1	318	809.094828093027	6
1	321	814.571875706268	7
1	323	820.574063313727	8
1	326	829.945582910592	9
1	327	834.875634064462	9
1	329	835.06437174103	9
1	330	838.736813436985	9
1	331	838.736855570388	8
1	332	839.17773992009	7
1	333	840.170556123365	6
1	334	840.584432206772	5
1	335	844.944042789556	4
1	337	850.643575561551	4
1	338	851.285521763254	4
1	339	852.65900436753	3
1	340	853.769880404645	2
1	341	854.905073947257	1
1	342	858.274282728399	0
1	349	903.906946611633	0
1	351	910.557420962683	0
1	356	930.044493005324	0
1	358	931.999341308693	1
1	359	933.162177984089	1
1	361	935.126957832346	1
1	362	941.939433688683	1
1	363	946.000144286344	0
1	365	967.986976557275	0
1	366	968.968178241073	0
1	368	971.614401115977	0
1	369	972.863857946367	0
1	371	977.048754828475	0
1	372	979.193021503883	0
1	374	990.426205312561	0
1	375	993.84895263022	0
1	377	995.943592048176	0
1	378	996.964473111561	0
1	380	1022.382591948731	0
1	381	1022.708555727862	0
1	383	1028.602936522879	0
1	385	1028.810805650015	1
1	386	1030.272300151266	1
1	387	1032.972080535161	0
1	389	1033.490433093267	0
1	390	1036.737392500854	0
1	394	1061.002901677937	0
1	396	1065.152339483259	0
1	398	1067.267288635778	0
1	399	1072.44754153559	0
1	401	1075.724465931961	0
1	403	1076.082481560829	1
1	404	1076.873173094901	1
1	405	1077.119341912272	0
1	407	1077.735018370196	0
1	408	1078.147583842591	0
1	410	1078.615384691453	0
1	412	1081.67931445012	1
1	413	1082.670601148456	1
1	414	1085.413048091054	0
1	416	1094.866445323894	0
1	420	1097.94936893912	0
1	425	1111.881230236583	0
1	426	1115.319049092932	0
1	428	1121.992740047389	0
1	429	1122.512433432543	0
1	431	1134.933958298035	0
1	433	1135.217004455986	1
1	435	1135.363051972741	2
1	436	1137.338350346969	2
1	437	1137.702266917938	1
1	439	1138.932231129405	1
1	440	1142.087971408634	1
1	441	1143.074195623884	0
1	443	1144.787715153364	0
1	444	1145.596777233925	0
1	448	1147.283264483279	0
1	450	1148.784081184957	0
1	452	1155.69337419801	0
1	454	1156.259289260176	1
1	456	1163.204706882349	2
1	458	1170.612254816977	3
1	459	1172.956634864755	3
1	460	1182.069289632188	2
1	461	1182.754148219508	1
1	462	1186.743316936366	0
1	464	1186.949025027116	0
1	466	1192.333899696592	1
1	468	1197.613977193519	2
1	470	1198.108177697727	3
1	472	1198.606263427609	4
1	473	1206.153408795297	4
1	475	1207.102040070224	4
1	476	1207.103173050823	4
1	477	1209.772818311689	3
1	478	1212.717651773172	2
1	479	1213.051001224501	1
1	481	1215.572599614181	1
1	482	1215.89774468642	1
1	483	1217.025724581286	0
1	485	1231.844375578986	0
1	486	1232.10868953962	0
1	488	1234.910810938707	0
1	489	1235.630895533659	0
1	491	1236.116699961997	0
1	492	1242.524364580077	0
1	494	1247.942971155498	0
1	495	1250.037369975838	0
1	497	1251.188053035955	0
1	498	1253.007111453438	0
1	503	1275.249598754447	0
1	504	1277.180704490753	0
1	506	1285.512833833394	0
1	507	1286.060594103771	0
1	509	1294.031758144982	0
1	510	1294.041960303574	0
1	512	1300.819020909668	0
1	513	1301.560522328783	0
1	515	1310.93961002616	0
1	516	1313.392728257272	0
1	518	1318.003070602428	0
1	526	1326.696373353387	1
1	530	1332.884941883537	2
1	532	1336.650535836356	3
1	536	1359.16404557901	4
1	538	1366.636648785843	5
1	541	1375.945051716496	6
1	545	1386.322276825134	7
1	550	1395.569428066275	8
1	553	1398.224964158521	9
1	555	1399.510362008286	9
1	556	1401.683218933505	8
1	558	1404.092529556116	8
1	560	1404.723363852476	9
1	561	1406.04029696715	9
1	565	1411.263528282476	9
1	568	1420.224574092024	10
1	569	1430.097847413439	10
1	570	1430.141708050969	9
1	571	1437.41378045851	8
1	573	1442.157175674872	8
1	574	1442.23716848395	8
1	575	1444.656481798071	7
1	577	1450.186517457622	7
1	579	1452.524777592798	8
1	580	1460.943868055702	8
1	581	1461.339096340614	7
1	582	1462.075277480766	6
1	583	1463.016176214233	5
1	585	1471.364551841377	5
1	586	1471.57121300786	5
1	587	1472.077397089829	4
1	588	1473.666389906172	3
1	589	1474.365640975324	2
1	590	1475.264942280295	1
1	591	1475.37077373282	0
1	595	1500.292962552547	0
1	598	1514.628496105396	1
1	600	1515.391585098206	2
1	601	1518.296695527113	2
1	605	1520.075491215183	2
1	607	1525.750429530127	2
1	608	1525.936521664971	1
1	609	1526.575836174446	0
1	611	1529.117938344292	0
1	612	1530.061836587713	0
1	614	1536.955543686046	0
1	615	1537.098375754017	0
1	617	1537.272009496688	0
1	618	1540.439000208769	0
1	627	1568.170486611142	0
1	631	1579.114421679445	1
1	633	1580.500100178335	2
1	634	1587.099518869872	2
1	635	1590.004293302661	1
1	637	1590.644250055458	1
1	639	1590.825644943243	2
1	646	1599.75756929766	2
1	647	1600.278308861126	1
1	648	1608.567672360456	0
1	650	1610.664425130129	0
1	651	1612.77752952556	0
1	653	1618.936633049524	0
1	654	1621.696633895757	0
1	665	1647.347486492507	0
1	666	1647.830714567325	0
1	668	1651.645264029249	0
1	669	1656.900230983244	0
1	671	1657.544440275635	0
1	672	1662.547635935571	0
1	674	1667.875743443595	0
1	675	1670.796888120081	0
1	677	1678.961085905515	0
1	678	1679.749244725667	0
1	682	1682.270965130991	0
1	684	1685.739856225869	0
1	692	1708.084792584536	0
1	693	1708.761191940553	0
1	695	1713.623104352338	0
1	697	1723.283784264192	1
1	698	1727.727779119367	1
1	700	1728.055282631709	1
1	701	1729.73917763196	1
1	703	1731.950005401017	1
1	704	1732.351114475588	1
1	706	1733.335643327318	1
1	707	1733.806801849003	1
1	709	1737.184569819368	1
1	710	1741.397726058636	1
1	712	1746.430995735594	1
1	714	1749.876436639148	2
1	716	1750.623721910651	3
1	717	1753.364041216417	3
1	718	1756.862295065137	2
1	719	1757.402512348626	1
1	720	1757.816074686944	0
1	725	1782.186823052272	0
1	727	1786.678947997071	1
1	728	1788.702024143474	1
1	729	1790.70803343402	0
1	731	1791.887006369677	0
1	732	1795.761032732831	0
1	734	1797.950978938951	0
1	735	1798.809190379597	0
1	737	1827.242154249278	0
1	738	1827.64729018152	0
1	740	1850.542439783431	0
1	741	1852.459170568234	0
1	743	1870.004880988581	0
1	744	1870.32825764676	0
1	746	1873.144783037164	0
1	747	1876.631163218425	0
1	749	1884.822081319794	0
1	753	1885.778595246252	1
1	755	1885.811529056579	2
1	763	1897.708087929202	3
1	765	1912.475781150497	3
1	766	1914.140412619322	2
1	767	1914.896555067248	1
1	768	1914.972280039763	0
1	770	1920.744293764123	0
1	771	1921.043365336866	0
1	779	1932.417776871576	0
1	784	1957.658186564513	1
1	786	1958.145638604626	2
1	788	1958.20490747963	3
1	790	1962.041132941032	4
1	791	1967.51006359838	4
1	792	1968.608602344218	3
1	794	1972.339259434377	3
1	795	1973.580769873817	3
1	796	1977.256452770382	2
1	797	1977.367341454542	1
1	798	1980.137141845236	0
1	800	1996.972662773382	0
1	801	2000.112592993583	0
1	803	2001.837521535633	0
1	807	2020.61188812238	0
1	809	2022.651661072584	0
1	810	2025.714162162348	0
1	812	2031.708678368501	0
1	814	2039.16582307412	1
1	815	2043.256898634976	1
1	819	2048.602623725115	1
1	821	2051.296746386859	2
1	823	2056.784814583422	2
1	824	2057.923520405947	1
1	826	2060.450138024586	1
1	828	2061.864559880863	2
1	829	2062.601263206381	2
1	830	2063.532562707831	1
1	832	2065.608353002928	1
1	833	2071.956983228661	1
1	835	2073.528318068424	1
1	837	2074.252666708182	2
1	838	2078.497347218679	2
1	839	2083.881868222546	1
1	840	2084.770436310764	0
1	842	2094.944618720664	0
1	843	2096.712295284131	0
1	847	2111.075776948067	0
1	849	2120.520868871139	0
1	851	2121.523496411099	0
1	852	2122.93382249948	0
1	854	2145.763574788525	0
1	855	2146.346810384292	0
1	859	2151.397617746221	0
1	863	2153.562706682703	1
1	866	2158.8277209331	2
1	868	2161.192638793574	3
1	874	2176.623459025381	4
1	875	2177.422484036761	4
1	876	2178.21926383132	3
1	877	2179.272359046332	2
1	878	2179.51733167947	1
1	880	2181.362624258206	1
1	882	2184.414138255062	2
1	883	2188.136388537333	2
1	885	2189.569960956599	2
1	887	2192.862153177103	3
1	888	2192.981225950656	3
1	889	2193.805289691405	2
1	890	2194.500206893119	1
1	891	2195.812243150198	0
1	896	2214.505848794852	0
1	898	2214.739026256483	1
1	899	2214.970252768173	1
1	900	2215.792672742499	0
1	902	2216.997427399395	0
1	903	2217.888680015558	0
1	905	2228.158970210153	0
1	906	2230.891401712616	0
1	908	2233.589270654671	0
1	909	2234.736408700889	0
1	911	2235.134555999138	0
1	912	2236.688980919983	0
1	914	2245.5746372874	0
1	915	2245.695061493465	0
1	917	2246.434071313046	0
1	919	2253.60115613332	1
1	920	2254.414367739032	1
1	921	2255.441844967124	0
1	923	2264.722149296945	0
1	924	2268.120734423708	0
1	926	2268.784290434962	0
1	927	2272.652483615319	0
1	929	2282.192260561595	0
1	930	2282.401276876678	0
1	932	2297.26438804666	0
1	933	2302.258115423236	0
1	935	2306.451312004043	0
1	937	2307.906601523895	1
1	939	2308.451575159593	2
1	940	2308.638983238322	2
1	941	2309.535690344175	1
1	942	2310.222236815508	0
1	944	2310.57992847033	0
1	945	2313.892196735809	0
1	947	2313.938378685859	0
1	948	2318.889910605114	0
1	950	2319.089880690129	0
1	951	2327.606545087936	0
1	953	2332.875221144699	0
1	957	2348.332552859931	1
1	959	2353.401783622808	1
1	961	2353.692697809273	1
1	962	2356.131910651997	1
1	964	2356.62042384619	1
1	966	2358.091024437805	2
1	968	2359.250582496203	3
1	970	2366.186839445675	4
1	971	2371.729324294633	4
1	972	2373.368434501653	3
1	973	2374.716573164264	2
1	974	2374.763082999888	1
1	978	2390.17482175021	0
1	980	2392.876483049199	0
1	982	2394.55395121754	1
1	984	2395.905132468107	2
1	986	2396.699003818489	3
1	987	2399.064312602412	3
1	992	2405.987835363148	3
1	993	2409.994518807909	3
1	994	2410.072111770142	2
1	995	2413.625828562	1
1	996	2413.916599588824	0
1	998	2431.543350033688	0
1	999	2431.839495911739	0
1	1001	2434.969970675909	0
1	1002	2435.629195844071	0
1	1004	2436.854714053433	0
1	1005	2438.689304949217	0
1	1007	2446.703873746544	0
1	1008	2453.077651385896	0
1	1010	2453.818389630889	0
1	1011	2460.022326932158	0
1	1013	2464.591085000307	0
1	1015	2466.762044446235	1
1	1017	2467.46333134511	2
1	1018	2467.497767478733	2
1	1019	2474.297099978793	1
1	1021	2475.219092225462	1
1	1022	2475.803667719202	1
1	1023	2475.818894834237	0
1	1025	2479.611011255182	0
1	1026	2480.159311731127	0
1	1028	2495.728823675633	0
1	1029	2496.633293505373	0
1	1031	2499.804357768263	0
2	131	361.339663494602	0
2	137	373.342390098229	5.359511672029
2	143	379.513301138535	0
2	148	399.541024331962	5.41176007198
2	149	399.57412505043	2.77184935889
2	158	425.765741351908	0
2	161	429.101573945293	1.583762294698
2	167	442.968688456231	9.361880388512
2	170	448.069818965425	0
2	177	457.555874658309	1.204604612477
2	178	462.047297337558	5.485733554967
2	179	462.907497235633	6.240314295681
2	182	472.719413120029	0
2	187	481.686689479313	7.514588592828
2	188	483.033376877979	3.134652453079
2	194	502.850351250119	0
2	197	505.555959194291	1.469536811354
2	202	514.299883432853	7.685686716779
2	203	516.522867917467	6.199518635986
2	211	537.160910219877	14.699357129839
2	214	540.588520246167	6.996224109753
2	215	540.824067334903	0.301397571451
2	218	546.894682894063	0
2	221	550.372948665519	1.213515785224
2	224	566.096778961453	0
2	233	589.71320639841	18.723995782933
2	234	592.065753437219	16.043610836305
2	235	592.25574609828	12.814518598437
2	236	592.286384865805	11.286817892576
2	239	594.205305895836	0.247764269636
2	244	597.957800261724	3.748447712638
2	245	602.762236876917	8.008834307252
2	253	608.826098716347	1.945171988911
2	256	614.691390646066	6.014794066008
2	259	620.284957685586	7.639796354937
2	260	620.560538801367	5.50450453917
2	263	632.76123856948	0
2	266	636.83562207702	0
2	271	647.76736360555	10.550270283774
2	272	650.508754661109	12.22923601385
2	275	675.410655830787	0
2	278	677.902114410092	0.037034763008
2	281	687.662234629069	0
2	284	730.758287029875	0
2	324	823.976866306365	63.198354251593
2	327	834.875634064462	72.199524245511
2	330	838.736813436985	61.47310023761
2	331	838.736855570388	60.176567036313
2	332	839.17773992009	43.187229652203
2	333	840.170556123365	36.295272989194
2	334	840.584432206772	31.489604113745
2	335	844.944042789556	30.372167083288
2	338	851.285521763254	30.711458449527
2	339	852.65900436753	22.713421456938
2	340	853.769880404645	18.705508663615
2	341	854.905073947257	4.261498385706
2	350	906.396253216913	2.48930660528
2	356	930.044493005324	0
2	359	933.162177984089	1.162836675396
2	362	941.939433688683	6.812475856337
2	365	967.986976557275	0
2	368	971.614401115977	0
2	371	977.048754828475	0
2	374	990.426205312561	0
2	377	995.943592048176	0
2	380	1022.382591948731	0
2	383	1028.602936522879	0
2	386	1030.272300151266	1.461494501251
2	389	1033.490433093267	0
2	395	1064.910628354087	3.90772667615
2	398	1067.267288635778	0
2	401	1075.724465931961	0
2	404	1076.873173094901	0.790691534072
2	407	1077.735018370196	0
2	410	1078.615384691453	0
2	413	1082.670601148456	0.991286698336
2	416	1094.866445323894	0
2	419	1095.917183345733	0.301653151009
2	425	1111.881230236583	0
2	428	1121.992740047389	0
2	431	1134.933958298035	0
2	436	1137.338350346969	2.121345890983
2	437	1137.702266917938	2.339214945197
2	440	1142.087971408634	3.155740279229
2	443	1144.787715153364	0
2	449	1148.207900348586	0.924635865307
2	452	1155.69337419801	0
2	459	1172.956634864755	16.697345604579
2	460	1182.069289632188	18.864582749839
2	461	1182.754148219508	12.141893402531
2	464	1186.949025027116	0
2	473	1206.153408795297	13.819509098705
2	476	1207.103173050823	9.489195857304
2	477	1209.772818311689	11.664640613962
2	478	1212.717651773172	14.111388345563
2	479	1213.051001224501	5.948961154277
2	482	1215.89774468642	0.325145072239
2	485	1231.844375578986	0
2	488	1234.910810938707	0
2	491	1236.116699961997	0
2	494	1247.942971155498	0
2	497	1251.188053035955	0
2	503	1275.249598754447	0
2	506	1285.512833833394	0
2	509	1294.031758144982	0
2	512	1300.819020909668	0
2	515	1310.93961002616	0
2	518	1318.003070602428	0
2	554	1398.75901279399	79.146189626654
2	555	1399.510362008286	72.813988654899
2	556	1401.683218933505	68.798277049968
2	561	1406.04029696715	69.389761130794
2	566	1415.413209126534	56.249163547524
2	569	1430.097847413439	63.461198627596
2	570	1430.141708050969	54.196656334473
2	571	1437.41378045851	51.091503633376
2	574	1442.23716848395	46.667740417675
2	575	1444.656481798071	46.43151763955
2	580	1460.943868055702	56.851338499586
2	581	1461.339096340614	56.615732488138
2	582	1462.075277480766	51.472983828617
2	583	1463.016176214233	51.752647931757
2	586	1471.57121300786	51.346638915836
2	587	1472.077397089829	29.920221414957
2	588	1473.666389906172	23.47987244855
2	589	1474.365640975324	21.840863382526
2	590	1475.264942280295	3.900390438918
2	596	1511.089829296604	10.796866744057
2	601	1518.296695527113	3.668199421717
2	606	1525.237338765566	9.84575366736
2	607	1525.750429530127	5.858858615206
2	608	1525.936521664971	5.861030449788
2	611	1529.117938344292	0
2	614	1536.955543686046	0
2	617	1537.272009496688	0
2	629	1575.453893256086	7.283406644944
2	634	1587.099518869872	7.985097190427
2	635	1590.004293302661	9.504193124326
2	642	1591.906037774486	1.261787719028
2	645	1599.661456832104	8.835811888861
2	646	1599.75756929766	8.720873531507
2	647	1600.278308861126	5.487560133674
2	650	1610.664425130129	0
2	653	1618.936633049524	0
2	665	1647.347486492507	0
2	668	1651.645264029249	0
2	671	1657.544440275635	0
2	674	1667.875743443595	0
2	677	1678.961085905515	0
2	683	1683.652527280482	1.381562149491
2	692	1708.084792584536	0
2	695	1713.623104352338	0
2	698	1727.727779119367	4.443994855175
2	701	1729.73917763196	1.683895000251
2	704	1732.351114475588	0.401109074571
2	707	1733.806801849003	0.471158521685
2	710	1741.397726058636	4.213156239268
2	717	1753.364041216417	6.933045480823
2	718	1756.862295065137	6.985858425989
2	719	1757.402512348626	6.778790437975
2	725	1782.186823052272	0
2	728	1788.702024143474	2.023076146403
2	731	1791.887006369677	0
2	734	1797.950978938951	0
2	737	1827.242154249278	0
2	740	1850.542439783431	0
2	743	1870.004880988581	0
2	746	1873.144783037164	0
2	749	1884.822081319794	0
2	764	1900.679081196968	15.77092910593
2	765	1912.475781150497	26.697185904245
2	766	1914.140412619322	28.328883562743
2	767	1914.896555067248	17.188467138046
2	770	1920.744293764123	0
2	782	1954.034130069162	21.616353197586
2	791	1967.51006359838	9.851877033867
2	792	1968.608602344218	10.462963739592
2	795	1973.580769873817	15.375862394187
2	796	1977.256452770382	15.21531982935
2	797	1977.367341454542	5.028082020165
2	800	1996.972662773382	0
2	803	2001.837521535633	0
2	806	2020.434044973842	14.598464860423
2	809	2022.651661072584	0
2	812	2031.708678368501	0
2	815	2043.256898634976	4.091075560856
2	822	2052.597298021164	7.316696042705
2	823	2056.784814583422	8.182190858307
2	824	2057.923520405947	6.626774019088
2	829	2062.601263206381	2.151125181795
2	830	2063.532562707831	1.668002826968
2	833	2071.956983228661	6.348630225733
2	838	2078.497347218679	4.969029150255
2	839	2083.881868222546	9.629201514364
2	842	2094.944618720664	0
2	848	2116.434054881676	5.358277933609
2	851	2121.523496411099	0
2	854	2145.763574788525	0
2	872	2175.421615581388	24.023997835167
2	875	2177.422484036761	23.859777354058
2	876	2178.21926383132	19.39154289822
2	877	2179.272359046332	18.079720252758
2	878	2179.51733167947	2.893872654089
2	883	2188.136388537333	6.773764279127
2	888	2192.981225950656	8.567087695594
2	889	2193.805289691405	4.235328734806
2	890	2194.500206893119	1.638053716016
2	896	2214.505848794852	0
2	899	2214.970252768173	0.23122651169
2	902	2216.997427399395	0
2	905	2228.158970210153	0
2	908	2233.589270654671	0
2	911	2235.134555999138	0
2	914	2245.5746372874	0
2	917	2246.434071313046	0
2	920	2254.414367739032	0.813211605712
2	923	2264.722149296945	0
2	926	2268.784290434962	0
2	929	2282.192260561595	0
2	932	2297.26438804666	0
2	935	2306.451312004043	0
2	940	2308.638983238322	0.732381714427
2	941	2309.535690344175	1.084115184582
2	944	2310.57992847033	0
2	947	2313.938378685859	0
2	950	2319.089880690129	0
2	953	2332.875221144699	0
2	958	2351.032858844221	3.871832506764
2	959	2353.401783622808	5.069230762877
2	962	2356.131910651997	2.439212842724
2	971	2371.729324294633	15.108900448443
2	972	2373.368434501653	15.277410063848
2	973	2374.716573164264	15.465990668061
2	974	2374.763082999888	8.576243554213
2	977	2385.2539600049	2.959316195327
2	980	2392.876483049199	0
2	987	2399.064312602412	4.510361384872
2	990	2404.058952920909	8.153820452802
2	993	2409.994518807909	13.29551498942
2	994	2410.072111770142	9.725551035883
2	995	2413.625828562	7.637993198852
2	998	2431.543350033688	0
2	1001	2434.969970675909	0
2	1004	2436.854714053433	0
2	1007	2446.703873746544	0
2	1010	2453.818389630889	0
2	1013	2464.591085000307	0
2	1018	2467.497767478733	0.735723032498
2	1019	2474.297099978793	6.833768633683
2	1022	2475.803667719202	0.58457549374
2	1025	2479.611011255182	0
2	1028	2495.728823675633	0
2	1031	2499.804357768263	0
3	132	363.986530271653	34
3	138	374.837130241702	35
3	149	399.57412505043	36
3	150	399.777159250838	37
3	161	429.101573945293	38
3	162	430.654478527573	39
3	168	443.664576269099	40
3	178	462.047297337558	41
3	179	462.907497235633	42
3	180	464.732356428776	43
3	188	483.033376877979	44
3	189	485.649269465868	45
3	197	505.555959194291	46
3	202	514.299883432853	47
3	203	516.522867917467	48
3	204	516.636350791448	49
3	214	540.588520246167	50
3	215	540.824067334903	51
3	216	544.920703785137	52
3	221	550.372948665519	53
3	222	551.565587086313	54
3	234	592.065753437219	55
3	235	592.25574609828	56
3	236	592.286384865805	57
3	244	597.957800261724	58
3	245	602.762236876917	59
3	246	605.374001956422	60
3	256	614.691390646066	61
3	260	620.560538801367	62
3	261	620.963063297277	63
3	264	635.926540177741	64
3	272	650.508754661109	65
3	273	652.804391632387	66
3	278	677.902114410092	67
3	279	680.004046416129	68
3	282	689.950192496873	69
3	285	733.266308960363	70
3	327	834.875634064462	71
3	330	838.736813436985	72
3	331	838.736855570388	73
3	332	839.17773992009	74
3	333	840.170556123365	75
3	334	840.584432206772	76
3	335	844.944042789556	77
3	338	851.285521763254	78
3	339	852.65900436753	79
3	340	853.769880404645	80
3	341	854.905073947257	81
3	342	858.274282728399	82
3	351	910.557420962683	83
3	359	933.162177984089	84
3	362	941.939433688683	85
3	363	946.000144286344	86
3	366	968.968178241073	87
3	369	972.863857946367	88
3	372	979.193021503883	89
3	375	993.84895263022	90
3	378	996.964473111561	91
3	381	1022.708555727862	92
3	386	1030.272300151266	93
3	387	1032.972080535161	94
3	390	1036.737392500854	95
3	396	1065.152339483259	96
3	399	1072.44754153559	97
3	404	1076.873173094901	98
3	405	1077.119341912272	99
3	408	1078.147583842591	100
3	413	1082.670601148456	101
3	414	1085.413048091054	102
3	420	1097.94936893912	103
3	426	1115.319049092932	104
3	429	1122.512433432543	105
3	436	1137.338350346969	106
3	437	1137.702266917938	107
3	440	1142.087971408634	108
3	441	1143.074195623884	109
3	444	1145.596777233925	110
3	450	1148.784081184957	111
3	459	1172.956634864755	112
3	460	1182.069289632188	113
3	461	1182.754148219508	114
3	462	1186.743316936366	115
3	473	1206.153408795297	116
3	476	1207.103173050823	117
3	477	1209.772818311689	118
3	478	1212.717651773172	119
3	479	1213.051001224501	120
3	482	1215.89774468642	121
3	483	1217.025724581286	122
3	486	1232.10868953962	123
3	489	1235.630895533659	124
3	492	1242.524364580077	125
3	495	1250.037369975838	126
3	498	1253.007111453438	127
3	504	1277.180704490753	128
3	507	1286.060594103771	129
3	510	1294.041960303574	130
3	513	1301.560522328783	131
3	516	1313.392728257272	132
3	555	1399.510362008286	133
3	556	1401.683218933505	134
3	561	1406.04029696715	135
3	569	1430.097847413439	136
3	570	1430.141708050969	137
3	571	1437.41378045851	138
3	574	1442.23716848395	139
3	575	1444.656481798071	140
3	580	1460.943868055702	141
3	581	1461.339096340614	142
3	582	1462.075277480766	143
3	583	1463.016176214233	144
3	586	1471.57121300786	145
3	587	1472.077397089829	146
3	588	1473.666389906172	147
3	589	1474.365640975324	148
3	590	1475.264942280295	149
3	591	1475.37077373282	150
3	601	1518.296695527113	151
3	607	1525.750429530127	152
3	608	1525.936521664971	153
3	609	1526.575836174446	154
3	612	1530.061836587713	155
3	615	1537.098375754017	156
3	618	1540.439000208769	157
3	634	1587.099518869872	158
3	635	1590.004293302661	159
3	646	1599.75756929766	160
3	647	1600.278308861126	161
3	648	1608.567672360456	162
3	651	1612.77752952556	163
3	654	1621.696633895757	164
3	666	1647.830714567325	165
3	669	1656.900230983244	166
3	672	1662.547635935571	167
3	675	1670.796888120081	168
3	678	1679.749244725667	169
3	684	1685.739856225869	170
3	693	1708.761191940553	171
3	698	1727.727779119367	172
3	701	1729.73917763196	173
3	704	1732.351114475588	174
3	707	1733.806801849003	175
3	710	1741.397726058636	176
3	717	1753.364041216417	177
3	718	1756.862295065137	178
3	719	1757.402512348626	179
3	720	1757.816074686944	180
3	728	1788.702024143474	181
3	729	1790.70803343402	182
3	732	1795.761032732831	183
3	735	1798.809190379597	184
3	738	1827.64729018152	185
3	741	1852.459170568234	186
3	744	1870.32825764676	187
3	747	1876.631163218425	188
3	765	1912.475781150497	189
3	766	1914.140412619322	190
3	767	1914.896555067248	191
3	768	1914.972280039763	192
3	771	1921.043365336866	193
3	791	1967.51006359838	194
3	792	1968.608602344218	195
3	795	1973.580769873817	196
3	796	1977.256452770382	197
3	797	1977.367341454542	198
3	798	1980.137141845236	199
3	801	2000.112592993583	200
3	807	2020.61188812238	201
3	810	2025.714162162348	202
3	815	2043.256898634976	203
3	823	2056.784814583422	204
3	824	2057.923520405947	205
3	829	2062.601263206381	206
3	830	2063.532562707831	207
3	833	2071.956983228661	208
3	838	2078.497347218679	209
3	839	2083.881868222546	210
3	840	2084.770436310764	211
3	843	2096.712295284131	212
3	849	2120.520868871139	213
3	852	2122.93382249948	214
3	855	2146.346810384292	215
3	875	2177.422484036761	216
3	876	2178.21926383132	217
3	877	2179.272359046332	218
3	878	2179.51733167947	219
3	883	2188.136388537333	220
3	888	2192.981225950656	221
3	889	2193.805289691405	222
3	890	2194.500206893119	223
3	891	2195.812243150198	224
3	899	2214.970252768173	225
3	900	2215.792672742499	226
3	903	2217.888680015558	227
3	906	2230.891401712616	228
3	909	2234.736408700889	229
3	912	2236.688980919983	230
3	915	2245.695061493465	231
3	920	2254.414367739032	232
3	921	2255.441844967124	233
3	924	2268.120734423708	234
3	927	2272.652483615319	235
3	930	2282.401276876678	236
3	933	2302.258115423236	237
3	940	2308.638983238322	238
3	941	2309.535690344175	239
3	942	2310.222236815508	240
3	945	2313.892196735809	241
3	948	2318.889910605114	242
3	951	2327.606545087936	243
3	959	2353.401783622808	244
3	962	2356.131910651997	245
3	971	2371.729324294633	246
3	972	2373.368434501653	247
3	973	2374.716573164264	248
3	974	2374.763082999888	249
3	978	2390.17482175021	250
3	987	2399.064312602412	251
3	993	2409.994518807909	252
3	994	2410.072111770142	253
3	995	2413.625828562	254
3	996	2413.916599588824	255
3	999	2431.839495911739	256
3	1002	2435.629195844071	257
3	1005	2438.689304949217	258
3	1008	2453.077651385896	259
3	1011	2460.022326932158	260
3	1018	2467.497767478733	261
3	1019	2474.297099978793	262
3	1022	2475.803667719202	263
3	1023	2475.818894834237	264
3	1026	2480.159311731127	265
3	1029	2496.633293505373	266
4	132	363.986530271653	2.646866777051
4	138	374.837130241702	6.854251815502
4	149	399.57412505043	5.444860790448
4	150	399.777159250838	2.974883559298
4	161	429.101573945293	3.335832593385
4	162	430.654478527573	3.136666876978
4	168	443.664576269099	10.05776820138
4	178	462.047297337558	5.696027291726
4	179	462.907497235633	6.345933453042
4	180	464.732356428776	8.065173488824
4	188	483.033376877979	8.861275991494
4	189	485.649269465868	5.750545040968
4	197	505.555959194291	2.705607944172
4	202	514.299883432853	10.213461049916
4	203	516.522867917467	9.908671201393
4	204	516.636350791448	6.313001509967
4	214	540.588520246167	18.126967156129
4	215	540.824067334903	7.231771198489
4	216	544.920703785137	4.398034021685
4	221	550.372948665519	3.478265771456
4	222	551.565587086313	2.406154206018
4	234	592.065753437219	21.076542821742
4	235	592.25574609828	16.233603497366
4	236	592.286384865805	12.845157365962
4	244	597.957800261724	4.000258635524
4	245	602.762236876917	8.552884327831
4	246	605.374001956422	10.620599386757
4	256	614.691390646066	7.81046391863
4	260	620.560538801367	7.915377470718
4	261	620.963063297277	5.90702903508
4	264	635.926540177741	3.165301608261
4	272	650.508754661109	13.291661339333
4	273	652.804391632387	14.524872985128
4	278	677.902114410092	2.491458579305
4	279	680.004046416129	2.138966769045
4	282	689.950192496873	2.287957867804
4	285	733.266308960363	2.508021930488
4	327	834.875634064462	74.09712200969
4	330	838.736813436985	76.060703618034
4	331	838.736855570388	61.473142371013
4	332	839.17773992009	60.617451386015
4	333	840.170556123365	44.180045855478
4	334	840.584432206772	36.709149072601
4	335	844.944042789556	35.849214696529
4	338	851.285521763254	36.713646056986
4	339	852.65900436753	32.084941053803
4	340	853.769880404645	23.824297494053
4	341	854.905073947257	19.840702206227
4	342	858.274282728399	7.630707166848
4	351	910.557420962683	6.65047435105
4	359	933.162177984089	3.117684978765
4	362	941.939433688683	9.94009237999
4	363	946.000144286344	10.873186453998
4	366	968.968178241073	0.981201683798
4	369	972.863857946367	1.24945683039
4	372	979.193021503883	2.144266675408
4	375	993.84895263022	3.422747317659
4	378	996.964473111561	1.020881063385
4	381	1022.708555727862	0.325963779131
4	386	1030.272300151266	1.669363628387
4	387	1032.972080535161	4.161274885146
4	390	1036.737392500854	3.246959407587
4	396	1065.152339483259	4.149437805322
4	399	1072.44754153559	5.180252899812
4	404	1076.873173094901	1.14870716294
4	405	1077.119341912272	1.036860351443
4	408	1078.147583842591	0.412565472395
4	413	1082.670601148456	4.055216457003
4	414	1085.413048091054	3.733733640934
4	420	1097.94936893912	2.333838744396
4	426	1115.319049092932	3.437818856349
4	429	1122.512433432543	0.519693385154
4	436	1137.338350346969	2.404392048934
4	437	1137.702266917938	2.485262461952
4	440	1142.087971408634	6.724919435893
4	441	1143.074195623884	4.141964494479
4	444	1145.596777233925	0.809062080561
4	450	1148.784081184957	1.500816701678
4	459	1172.956634864755	17.263260666745
4	460	1182.069289632188	25.810000372012
4	461	1182.754148219508	19.549441337159
4	462	1186.743316936366	16.131062119389
4	473	1206.153408795297	19.204383768181
4	476	1207.103173050823	14.769273354231
4	477	1209.772818311689	12.15884111817
4	478	1212.717651773172	14.609474075445
4	479	1213.051001224501	14.444737796892
4	482	1215.89774468642	8.795704616196
4	483	1217.025724581286	1.453124967105
4	486	1232.10868953962	0.264313960634
4	489	1235.630895533659	0.720084594952
4	492	1242.524364580077	6.40766461808
4	495	1250.037369975838	2.09439882034
4	498	1253.007111453438	1.819058417483
4	504	1277.180704490753	1.931105736306
4	507	1286.060594103771	0.547760270377
4	510	1294.041960303574	0.010202158592
4	513	1301.560522328783	0.741501419115
4	516	1313.392728257272	2.453118231112
4	555	1399.510362008286	79.89753884095
4	556	1401.683218933505	74.986845580118
4	561	1406.04029696715	73.155355083613
4	569	1430.097847413439	70.933801834429
4	570	1430.141708050969	63.505059265126
4	571	1437.41378045851	61.468728742014
4	574	1442.23716848395	55.914891658816
4	575	1444.656481798071	49.087053731796
4	580	1460.943868055702	62.718903897181
4	581	1461.339096340614	57.246566784498
4	582	1462.075277480766	57.35191362829
4	583	1463.016176214233	52.413882562084
4	586	1471.57121300786	60.307684725384
4	587	1472.077397089829	51.852822997805
4	588	1473.666389906172	31.5092142313
4	589	1474.365640975324	24.179123517702
4	590	1475.264942280295	22.740164687497
4	591	1475.37077373282	4.006221891443
4	601	1518.296695527113	18.003732974566
4	607	1525.750429530127	10.358844431921
4	608	1525.936521664971	6.04495075005
4	609	1526.575836174446	6.500344959263
4	612	1530.061836587713	0.943898243421
4	615	1537.098375754017	0.142832067971
4	618	1540.439000208769	3.166990712081
4	634	1587.099518869872	18.92903225873
4	635	1590.004293302661	10.889871623216
4	646	1599.75756929766	8.931924354417
4	647	1600.278308861126	9.241613094973
4	648	1608.567672360456	13.776923633004
4	651	1612.77752952556	2.113104395431
4	654	1621.696633895757	2.760000846233
4	666	1647.830714567325	0.483228074818
4	669	1656.900230983244	5.254966953995
4	672	1662.547635935571	5.003195659936
4	675	1670.796888120081	2.921144676486
4	678	1679.749244725667	0.788158820152
4	684	1685.739856225869	3.468891094878
4	693	1708.761191940553	0.676399356017
4	698	1727.727779119367	14.104674767029
4	701	1729.73917763196	6.455393367768
4	704	1732.351114475588	4.295831843879
4	707	1733.806801849003	1.856796447986
4	710	1741.397726058636	8.062082731318
4	717	1753.364041216417	16.179471397049
4	718	1756.862295065137	10.431299329543
4	719	1757.402512348626	7.526075709478
4	720	1757.816074686944	7.192352776293
4	728	1788.702024143474	6.515201091202
4	729	1790.70803343402	4.029085436949
4	732	1795.761032732831	3.874026363154
4	735	1798.809190379597	0.858211440646
4	738	1827.64729018152	0.405135932242
4	741	1852.459170568234	1.916730784803
4	744	1870.32825764676	0.323376658179
4	747	1876.631163218425	3.486380181261
4	765	1912.475781150497	27.567629059459
4	766	1914.140412619322	28.36181737307
4	767	1914.896555067248	29.085026010669
4	768	1914.972280039763	17.264192110561
4	771	1921.043365336866	0.299071572743
4	791	1967.51006359838	35.092286726804
4	792	1968.608602344218	10.950415779705
4	795	1973.580769873817	15.435131269191
4	796	1977.256452770382	19.051545290752
4	797	1977.367341454542	15.32620851351
4	798	1980.137141845236	7.797882410859
4	801	2000.112592993583	3.139930220201
4	807	2020.61188812238	14.776308008961
4	810	2025.714162162348	3.062501089764
4	815	2043.256898634976	11.548220266475
4	823	2056.784814583422	11.504212604963
4	824	2057.923520405947	9.320896680832
4	829	2062.601263206381	11.304516819522
4	830	2063.532562707831	3.082424683245
4	833	2071.956983228661	10.092423347798
4	838	2078.497347218679	12.888994215751
4	839	2083.881868222546	10.353550154122
4	840	2084.770436310764	10.517769602582
4	843	2096.712295284131	1.767676563467
4	849	2120.520868871139	9.445091923072
4	852	2122.93382249948	1.410326088381
4	855	2146.346810384292	0.583235595767
4	875	2177.422484036761	26.02486629054
4	876	2178.21926383132	24.656557148617
4	877	2179.272359046332	20.444638113232
4	878	2179.51733167947	18.324692885896
4	883	2188.136388537333	11.512929511952
4	888	2192.981225950656	11.61860169245
4	889	2193.805289691405	9.391151436343
4	890	2194.500206893119	4.93024593652
4	891	2195.812243150198	2.950089973095
4	899	2214.970252768173	0.464403973321
4	900	2215.792672742499	1.053646486016
4	903	2217.888680015558	0.891252616163
4	906	2230.891401712616	2.732431502463
4	909	2234.736408700889	1.147138046218
4	912	2236.688980919983	1.554424920845
4	915	2245.695061493465	0.120424206065
4	920	2254.414367739032	7.980296425986
4	921	2255.441844967124	1.840688833804
4	924	2268.120734423708	3.398585126763
4	927	2272.652483615319	3.868193180357
4	930	2282.401276876678	0.209016315083
4	933	2302.258115423236	4.993727376576
4	940	2308.638983238322	2.187671234279
4	941	2309.535690344175	1.62908882028
4	942	2310.222236815508	1.770661655915
4	945	2313.892196735809	3.312268265479
4	948	2318.889910605114	4.951531919255
4	951	2327.606545087936	8.516664397807
4	959	2353.401783622808	6.240757285351
4	962	2356.131910651997	7.799357792066
4	971	2371.729324294633	18.03662648536
4	972	2373.368434501653	16.748010655463
4	973	2374.716573164264	16.625548726459
4	974	2374.763082999888	15.512500503685
4	978	2390.17482175021	7.880177940637
4	987	2399.064312602412	6.187829553213
4	993	2409.994518807909	14.089386339802
4	994	2410.072111770142	13.373107951653
4	995	2413.625828562	13.279267827741
4	996	2413.916599588824	7.928764225676
4	999	2431.839495911739	0.296145878051
4	1002	2435.629195844071	0.659225168162
4	1005	2438.689304949217	1.834590895784
4	1008	2453.077651385896	6.373777639352
4	1011	2460.022326932158	6.203937301269
4	1018	2467.497767478733	2.906682478426
4	1019	2474.297099978793	7.535055532558
4	1022	2475.803667719202	8.340336374092
4	1023	2475.818894834237	0.599802608775
4	1026	2480.159311731127	0.548300475945
4	1029	2496.633293505373	0.90446982974
5	134	367.67971705233	1
5	140	375.210350517339	1
5	147	396.80227569154	1
5	152	408.346817373222	1
5	154	419.841100122032	2
5	164	433.423451838605	1
5	176	456.667182939952	1
5	186	479.8987244249	1
5	191	487.400870993499	1
5	206	521.717767512899	1
5	226	570.989210615477	1
5	238	593.9575416262	1
5	248	606.525663427187	1
5	258	615.056034262197	1
5	270	638.279518647259	1
5	287	740.011350562599	1
5	289	740.188083805517	2
5	291	745.113891914374	3
5	303	778.661737200405	2
5	305	786.075593013022	3
5	308	793.14818451024	3
5	312	803.613919261048	4
5	344	884.508357242949	1
5	347	897.217062939565	1
5	353	911.280941401943	1
5	392	1053.735015083488	1
5	418	1095.615530194724	1
5	422	1103.323705587571	1
5	446	1146.5321595176	1
5	500	1258.290716160345	1
5	520	1319.612823167336	1
5	522	1323.169976339976	2
5	524	1326.669738733412	3
5	528	1332.368404606407	4
5	534	1343.0725951647	5
5	548	1391.27696745929	2
5	563	1410.602293652149	1
5	593	1486.363522480277	1
5	603	1519.891570914921	1
5	620	1542.818830657273	1
5	623	1551.754537970867	1
5	625	1554.802158005087	2
5	641	1591.036695766153	1
5	644	1594.790748727452	1
5	656	1626.891499068839	1
5	659	1636.131250978557	1
5	662	1642.158323806722	1
5	680	1680.183271238993	1
5	686	1691.844298419303	1
5	688	1697.448727133183	2
5	722	1763.00277769651	1
5	751	1884.908152091038	1
5	757	1887.519011510956	2
5	760	1888.334118857984	2
5	773	1929.513452192102	1
5	775	1929.862412728932	2
5	777	1931.793770282296	3
5	805	2005.835580113419	1
5	817	2045.280601978459	1
5	845	2109.769324116728	1
5	857	2150.472713889061	1
5	861	2153.020989180779	2
5	870	2168.744182616918	2
5	893	2204.540492292759	1
5	955	2347.161026337457	1
5	976	2382.294643809573	1
5	989	2400.346560734259	1
6	134	367.67971705233	0
6	137	373.342390098229	0
6	140	375.210350517339	0
6	141	375.399872818015	0
6	147	396.80227569154	0
6	148	399.541024331962	0
6	152	408.346817373222	0
6	154	419.841100122032	1
6	155	421.30417631932	1
6	156	424.027331815544	0
6	164	433.423451838605	0
6	167	442.968688456231	0
6	176	456.667182939952	0
6	177	457.555874658309	0
6	186	479.8987244249	0
6	187	481.686689479313	0
6	191	487.400870993499	0
6	192	489.557476678678	0
6	206	521.717767512899	0
6	211	537.160910219877	0
6	226	570.989210615477	0
6	233	589.71320639841	0
6	238	593.9575416262	0
6	239	594.205305895836	0
6	248	606.525663427187	0
6	253	608.826098716347	0
6	258	615.056034262197	0
6	259	620.284957685586	0
6	270	638.279518647259	0
6	271	647.76736360555	0
6	287	740.011350562599	0
6	289	740.188083805517	1
6	291	745.113891914374	2
6	292	746.014885489558	2
6	295	761.073318776071	1
6	303	778.661737200405	1
6	305	786.075593013022	2
6	306	792.298524471227	2
6	308	793.14818451024	2
6	312	803.613919261048	3
6	315	804.639601966597	3
6	316	808.756033681243	2
6	319	810.529180060673	1
6	324	823.976866306365	0
6	344	884.508357242949	0
6	345	885.880957961913	0
6	347	897.217062939565	0
6	350	906.396253216913	0
6	353	911.280941401943	0
6	354	911.639683907757	0
6	392	1053.735015083488	0
6	395	1064.910628354087	0
6	418	1095.615530194724	0
6	419	1095.917183345733	0
6	422	1103.323705587571	0
6	423	1104.253526652486	0
6	446	1146.5321595176	0
6	449	1148.207900348586	0
6	500	1258.290716160345	0
6	501	1261.680932343959	0
6	520	1319.612823167336	0
6	522	1323.169976339976	1
6	524	1326.669738733412	2
6	528	1332.368404606407	3
6	534	1343.0725951647	4
6	539	1368.600208242334	4
6	542	1381.605493944084	3
6	543	1385.104011790815	2
6	546	1387.353734577242	1
6	548	1391.27696745929	1
6	551	1398.073070391532	1
6	554	1398.75901279399	0
6	563	1410.602293652149	0
6	566	1415.413209126534	0
6	593	1486.363522480277	0
6	596	1511.089829296604	0
6	603	1519.891570914921	0
6	606	1525.237338765566	0
6	620	1542.818830657273	0
6	621	1545.216970104765	0
6	623	1551.754537970867	0
6	625	1554.802158005087	1
6	628	1573.512944043952	1
6	629	1575.453893256086	0
6	641	1591.036695766153	0
6	642	1591.906037774486	0
6	644	1594.790748727452	0
6	645	1599.661456832104	0
6	656	1626.891499068839	0
6	657	1631.583969155187	0
6	659	1636.131250978557	0
6	660	1639.318346675685	0
6	662	1642.158323806722	0
6	663	1643.303071096571	0
6	680	1680.183271238993	0
6	683	1683.652527280482	0
6	686	1691.844298419303	0
6	688	1697.448727133183	1
6	689	1697.641390113157	1
6	690	1707.414728166739	0
6	722	1763.00277769651	0
6	723	1765.667118751521	0
6	751	1884.908152091038	0
6	757	1887.519011510956	1
6	758	1888.144973024001	1
6	760	1888.334118857984	1
6	761	1893.93226599096	1
6	764	1900.679081196968	0
6	773	1929.513452192102	0
6	775	1929.862412728932	1
6	777	1931.793770282296	2
6	780	1937.729700214376	2
6	781	1950.636076357208	1
6	782	1954.034130069162	0
6	805	2005.835580113419	0
6	806	2020.434044973842	0
6	817	2045.280601978459	0
6	822	2052.597298021164	0
6	845	2109.769324116728	0
6	848	2116.434054881676	0
6	857	2150.472713889061	0
6	861	2153.020989180779	1
6	864	2158.192082556453	1
6	870	2168.744182616918	1
6	871	2171.336396862593	1
6	872	2175.421615581388	0
6	893	2204.540492292759	0
6	894	2213.440768321173	0
6	955	2347.161026337457	0
6	958	2351.032858844221	0
6	976	2382.294643809573	0
6	977	2385.2539600049	0
6	989	2400.346560734259	0
6	990	2404.058952920909	0
7	134	367.67971705233	0
7	140	375.210350517339	0
7	147	396.80227569154	0
7	152	408.346817373222	0
7	155	421.30417631932	1.463076197288
7	164	433.423451838605	0
7	176	456.667182939952	0
7	186	479.8987244249	0
7	191	487.400870993499	0
7	206	521.717767512899	0
7	226	570.989210615477	0
7	238	593.9575416262	0
7	248	606.525663427187	0
7	258	615.056034262197	0
7	270	638.279518647259	0
7	287	740.011350562599	0
7	292	746.014885489558	5.826801684041
7	295	761.073318776071	15.959426861697
7	306	792.298524471227	13.636787270822
7	315	804.639601966597	18.564008953575
7	316	808.756033681243	15.607849171003
7	319	810.529180060673	6.915260799625
7	344	884.508357242949	0
7	347	897.217062939565	0
7	353	911.280941401943	0
7	392	1053.735015083488	0
7	418	1095.615530194724	0
7	422	1103.323705587571	0
7	446	1146.5321595176	0
7	500	1258.290716160345	0
7	520	1319.612823167336	0
7	539	1368.600208242334	45.430231902358
7	542	1381.605493944084	54.935755210672
7	543	1385.104011790815	52.735607184408
7	546	1387.353734577242	44.281139412542
7	551	1398.073070391532	6.796102932242
7	563	1410.602293652149	0
7	593	1486.363522480277	0
7	603	1519.891570914921	0
7	620	1542.818830657273	0
7	623	1551.754537970867	0
7	628	1573.512944043952	18.710786038865
7	641	1591.036695766153	0
7	644	1594.790748727452	0
7	656	1626.891499068839	0
7	659	1636.131250978557	0
7	662	1642.158323806722	0
7	680	1680.183271238993	0
7	686	1691.844298419303	0
7	689	1697.641390113157	0.192662979974
7	722	1763.00277769651	0
7	751	1884.908152091038	0
7	758	1888.144973024001	0.625961513045
7	761	1893.93226599096	5.598147132976
7	773	1929.513452192102	0
7	780	1937.729700214376	7.867287485444
7	781	1950.636076357208	18.842306074912
7	805	2005.835580113419	0
7	817	2045.280601978459	0
7	845	2109.769324116728	0
7	857	2150.472713889061	0
7	864	2158.192082556453	5.171093375674
7	871	2171.336396862593	2.592214245675
7	893	2204.540492292759	0
7	955	2347.161026337457	0
7	976	2382.294643809573	0
7	989	2400.346560734259	0
8	137	373.342390098229	11
8	141	375.399872818015	12
8	148	399.541024331962	13
8	155	421.30417631932	14
8	156	424.027331815544	15
8	167	442.968688456231	16
8	177	457.555874658309	17
8	187	481.686689479313	18
8	192	489.557476678678	19
8	211	537.160910219877	20
8	233	589.71320639841	21
8	239	594.205305895836	22
8	253	608.826098716347	23
8	259	620.284957685586	24
8	271	647.76736360555	25
8	292	746.014885489558	26
8	295	761.073318776071	27
8	306	792.298524471227	28
8	315	804.639601966597	29
8	316	808.756033681243	30
8	319	810.529180060673	31
8	324	823.976866306365	32
8	345	885.880957961913	33
8	350	906.396253216913	34
8	354	911.639683907757	35
8	395	1064.910628354087	36
8	419	1095.917183345733	37
8	423	1104.253526652486	38
8	449	1148.207900348586	39
8	501	1261.680932343959	40
8	539	1368.600208242334	41
8	542	1381.605493944084	42
8	543	1385.104011790815	43
8	546	1387.353734577242	44
8	551	1398.073070391532	45
8	554	1398.75901279399	46
8	566	1415.413209126534	47
8	596	1511.089829296604	48
8	606	1525.237338765566	49
8	621	1545.216970104765	50
8	628	1573.512944043952	51
8	629	1575.453893256086	52
8	642	1591.906037774486	53
8	645	1599.661456832104	54
8	657	1631.583969155187	55
8	660	1639.318346675685	56
8	663	1643.303071096571	57
8	683	1683.652527280482	58
8	689	1697.641390113157	59
8	690	1707.414728166739	60
8	723	1765.667118751521	61
8	758	1888.144973024001	62
8	761	1893.93226599096	63
8	764	1900.679081196968	64
8	780	1937.729700214376	65
8	781	1950.636076357208	66
8	782	1954.034130069162	67
8	806	2020.434044973842	68
8	822	2052.597298021164	69
8	848	2116.434054881676	70
8	864	2158.192082556453	71
8	871	2171.336396862593	72
8	872	2175.421615581388	73
8	894	2213.440768321173	74
8	958	2351.032858844221	75
8	977	2385.2539600049	76
8	990	2404.058952920909	77
9	137	373.342390098229	5.662673045899
9	141	375.399872818015	0.189522300676
9	148	399.541024331962	2.738748640422
9	155	421.30417631932	12.957358946098
9	156	424.027331815544	4.186231693512
9	167	442.968688456231	9.545236617626
9	177	457.555874658309	0.888691718357
9	187	481.686689479313	1.787965054413
9	192	489.557476678678	2.156605685179
9	211	537.160910219877	15.443142706978
9	233	589.71320639841	18.723995782933
9	239	594.205305895836	0.247764269636
9	253	608.826098716347	2.30043528916
9	259	620.284957685586	5.228923423389
9	271	647.76736360555	9.487844958291
9	292	746.014885489558	6.003534926959
9	295	761.073318776071	20.885234970554
9	306	792.298524471227	47.184632556853
9	315	804.639601966597	25.977864766192
9	316	808.756033681243	22.680440668221
9	319	810.529180060673	17.380995550433
9	324	823.976866306365	20.362947045317
9	345	885.880957961913	1.372600718964
9	350	906.396253216913	9.179190277348
9	354	911.639683907757	0.358742505814
9	395	1064.910628354087	11.175613270599
9	419	1095.917183345733	0.301653151009
9	423	1104.253526652486	0.929821064915
9	449	1148.207900348586	1.675740830986
9	501	1261.680932343959	3.390216183614
9	539	1368.600208242334	48.987385074998
9	542	1381.605493944084	58.435517604108
9	543	1385.104011790815	58.434273057403
9	546	1387.353734577242	54.985329970835
9	551	1398.073070391532	55.000475226832
9	554	1398.75901279399	7.4820453347
9	566	1415.413209126534	4.810915474385
9	596	1511.089829296604	24.726306816327
9	606	1525.237338765566	5.345767850645
9	621	1545.216970104765	2.398139447492
9	628	1573.512944043952	21.758406073085
9	629	1575.453893256086	20.651735250999
9	642	1591.906037774486	0.869342008333
9	645	1599.661456832104	4.870708104652
9	657	1631.583969155187	4.692470086348
9	660	1639.318346675685	3.187095697128
9	663	1643.303071096571	1.144747289849
9	683	1683.652527280482	3.469256041489
9	689	1697.641390113157	5.797091693854
9	690	1707.414728166739	9.966001033556
9	723	1765.667118751521	2.664341055011
9	758	1888.144973024001	3.236820932963
9	761	1893.93226599096	6.413254480004
9	764	1900.679081196968	12.344962338984
9	780	1937.729700214376	8.216248022274
9	781	1950.636076357208	20.773663628276
9	782	1954.034130069162	22.240359786866
9	806	2020.434044973842	14.598464860423
9	822	2052.597298021164	7.316696042705
9	848	2116.434054881676	6.664730764948
9	864	2158.192082556453	7.719368667392
9	871	2171.336396862593	18.315407681814
9	872	2175.421615581388	6.67743296447
9	894	2213.440768321173	8.900276028414
9	958	2351.032858844221	3.871832506764
9	977	2385.2539600049	2.959316195327
9	990	2404.058952920909	3.71239218665
10	147	396.80227569154	4
10	176	456.667182939952	5
10	186	479.8987244249	6
10	226	570.989210615477	7
10	238	593.9575416262	8
10	258	615.056034262197	9
10	270	638.279518647259	10
10	418	1095.615530194724	11
10	520	1319.612823167336	12
10	563	1410.602293652149	13
10	603	1519.891570914921	14
10	641	1591.036695766153	15
10	644	1594.790748727452	16
10	751	1884.908152091038	17
10	805	2005.835580113419	18
10	817	2045.280601978459	19
10	955	2347.161026337457	20
10	976	2382.294643809573	21
10	989	2400.346560734259	22
11	1032	2500	0.1064
12	1032	2500	0.0308

