version 2
run experiments_hard_game_mode1-831-20230311-19:42:18-8999
attr configname experiments_hard_game_mode1
attr datetime 20230311-19:42:18
attr experiment experiments_hard_game_mode1
attr inifile omnetpp.ini
attr iterationvars "$0=8.5, $1=6, $2=100"
attr iterationvarsf 8.5,6,100-
attr measurement "$0=8.5, $1=6, $2=100"
attr network Network
attr processid 8999
attr repetition 21
attr replication #21
attr resultdir results
attr runnumber 831
attr seedset 21
param *.boss.arrival_mean 20
param *.boss.service_mean 8.5
param *.minion.arrival_mean 10
param *.minion.service_mean 6
param *.player.recover_rate_x 100
param **.minion.arrival_distribution 0
param **.minion.service_distribution 0
param **.boss.arrival_distribution 0
param **.boss.service_distribution 0

vector 0 Network.player boss_defeated_stat:vector ETV
attr source signal_boss_defeated
vector 1 Network.player boss_jobs_queue_number_stat:vector ETV
attr source signal_boss_jobs_queue_number
vector 2 Network.player boss_response_time_stat:vector ETV
attr source signal_boss_response_time
vector 3 Network.player minion_waiting_time_stat:vector ETV
attr source signal_minion_waiting_time
vector 4 Network.player minion_defeated_stat:vector ETV
attr source signal_minion_defeated
vector 5 Network.player minion_jobs_queue_number_stat:vector ETV
attr source signal_minion_jobs_queue_number
vector 6 Network.player minion_response_time_stat:vector ETV
attr source signal_minion_response_time
vector 7 Network.player minion_jobs_number_stat:vector ETV
attr source signal_minion_jobs_number
vector 8 Network.player boss_jobs_number_stat:vector ETV
attr source signal_boss_jobs_number
vector 9 Network.player minion_recovered_stat:vector ETV
attr source signal_minion_recovered
vector 10 Network.player boss_waiting_time_stat:vector ETV
attr source signal_boss_waiting_time
vector 11 Network.player minion_throughput:vector ETV
attr source signal_minion_throughput
vector 12 Network.player boss_throughput:vector ETV
attr source signal_boss_throughput
0	136	352.004986605385	15
0	177	448.838787117998	16
0	194	498.512873964631	17
0	201	510.118193268633	18
0	208	526.655724056329	19
0	211	529.412356379047	20
0	216	539.112049780877	21
0	234	582.502377605875	22
0	240	621.010474838874	23
0	243	633.881574804543	24
0	252	661.675800466577	25
0	258	678.837395791449	26
0	273	710.905617309135	27
0	286	730.198991887559	28
0	310	766.476968032142	29
0	313	768.516467533904	30
0	320	780.714903710573	31
0	327	788.459346680532	32
0	328	791.09645590799	33
0	341	802.498032932788	34
0	344	805.139322119772	35
0	345	808.33339717265	36
0	352	840.063165194446	37
0	353	842.161533879949	38
0	365	872.780215534753	39
0	390	905.489191089088	40
0	397	910.107801359149	41
0	402	919.555114439606	42
0	415	934.50557216991	43
0	419	939.298120612361	44
0	437	976.659960950725	45
0	457	1028.472455898693	46
0	462	1033.117933239266	47
0	476	1070.694731436917	48
0	487	1096.020785080231	49
0	488	1097.392797881211	50
0	493	1104.714409529457	51
0	507	1134.983843234056	52
0	510	1137.180958501051	53
0	523	1168.6695842219	54
0	540	1219.011678109553	55
0	541	1220.913527617928	56
0	542	1224.448646382497	57
0	562	1296.384878762265	58
0	563	1299.745188493323	59
0	567	1308.33472290226	60
0	572	1320.761912468983	61
0	573	1320.883132772745	62
0	581	1341.240607460036	63
0	590	1350.6635923511	64
0	593	1354.78233583701	65
0	618	1409.315250037989	66
0	637	1435.211727180381	67
0	648	1453.993499160686	68
0	649	1465.800944179146	69
0	650	1472.884447057592	70
0	653	1475.072466266883	71
0	654	1476.619499003505	72
0	705	1580.679349847678	73
0	710	1599.78774671452	74
0	728	1641.040746799152	75
0	734	1657.009526633566	76
0	745	1686.184167646453	77
0	777	1748.702706650456	78
0	786	1773.684387104329	79
0	787	1776.408567448565	80
0	790	1788.587519568396	81
0	812	1854.728042083379	82
0	823	1866.528058580101	83
0	824	1870.986979779889	84
0	849	1925.742120287312	85
0	854	1932.629566207813	86
0	857	1942.373225895596	87
0	864	1957.949705936149	88
0	883	1984.406101197694	89
0	886	1995.455044816697	90
0	895	2004.350670234359	91
0	904	2033.441833009767	92
0	905	2043.67421537576	93
0	910	2055.511434959271	94
0	921	2079.982876856313	95
0	922	2083.494612548294	96
0	938	2127.755946989651	97
0	941	2128.880074471994	98
0	959	2167.055539926512	99
0	964	2173.910012997973	100
0	968	2198.318869405148	101
0	990	2251.804337587894	102
0	994	2260.33798140504	103
0	998	2274.724858972831	104
0	1014	2307.670428566235	105
0	1056	2413.998618125214	106
0	1065	2432.87022944519	107
0	1066	2437.686949454638	108
0	1071	2453.65447470372	109
1	136	352.004986605385	0
1	176	437.655607876823	0
1	177	448.838787117998	0
1	187	476.417763818169	0
1	194	498.512873964631	0
1	198	505.157294903869	0
1	201	510.118193268633	0
1	205	518.497244516544	0
1	207	524.0058841167	1
1	208	526.655724056329	1
1	211	529.412356379047	0
1	213	529.768904742497	0
1	216	539.112049780877	0
1	233	580.600471402607	0
1	234	582.502377605875	0
1	239	617.556769837513	0
1	240	621.010474838874	0
1	242	627.787029116695	0
1	243	633.881574804543	0
1	251	659.958738792625	0
1	252	661.675800466577	0
1	257	677.472481062608	0
1	258	678.837395791449	0
1	270	707.079421658916	0
1	273	710.905617309135	0
1	283	727.849037380949	0
1	286	730.198991887559	0
1	307	762.10861487089	0
1	309	766.064582611732	1
1	310	766.476968032142	1
1	312	767.243145531648	1
1	313	768.516467533904	1
1	315	772.710391185803	1
1	319	780.04016885003	2
1	320	780.714903710573	2
1	322	781.156737009427	2
1	326	785.089428818756	3
1	327	788.459346680532	3
1	328	791.09645590799	2
1	330	791.300089263771	2
1	340	801.447574365974	3
1	341	802.498032932788	3
1	344	805.139322119772	2
1	345	808.33339717265	1
1	351	828.207746898685	1
1	352	840.063165194446	1
1	353	842.161533879949	0
1	364	872.233908686601	0
1	365	872.780215534753	0
1	383	897.458853731429	0
1	389	904.239175991417	1
1	390	905.489191089088	1
1	396	908.062744141541	1
1	397	910.107801359149	1
1	402	919.555114439606	0
1	414	930.827557754315	0
1	415	934.50557216991	0
1	418	936.983423856897	0
1	419	939.298120612361	0
1	436	975.863125736149	0
1	437	976.659960950725	0
1	456	1024.781438977254	0
1	457	1028.472455898693	0
1	461	1031.249239247124	0
1	462	1033.117933239266	0
1	471	1057.375757117136	0
1	476	1070.694731436917	0
1	478	1071.984350674741	0
1	486	1087.347407495617	1
1	487	1096.020785080231	1
1	488	1097.392797881211	0
1	492	1104.624125570428	0
1	493	1104.714409529457	0
1	504	1131.913251019904	0
1	507	1134.983843234056	0
1	509	1135.430596268884	0
1	510	1137.180958501051	0
1	518	1156.225977596079	0
1	523	1168.6695842219	0
1	525	1183.033137147023	0
1	527	1184.399680763421	1
1	537	1202.823700682684	2
1	540	1219.011678109553	2
1	541	1220.913527617928	1
1	542	1224.448646382497	0
1	557	1290.756257528264	0
1	559	1291.773124459133	1
1	562	1296.384878762265	1
1	563	1299.745188493323	0
1	566	1303.250290103507	0
1	567	1308.33472290226	0
1	569	1311.742924506421	0
1	571	1318.834994364708	1
1	572	1320.761912468983	1
1	573	1320.883132772745	0
1	580	1341.051374691128	0
1	581	1341.240607460036	0
1	585	1348.418308572707	0
1	590	1350.6635923511	0
1	592	1352.969785587635	0
1	593	1354.78233583701	0
1	605	1392.271716502791	0
1	607	1395.251755794326	1
1	618	1409.315250037989	1
1	624	1420.79883808038	1
1	634	1432.314240596926	2
1	636	1432.462336685495	3
1	637	1435.211727180381	3
1	643	1439.522554827319	3
1	647	1453.866869318157	4
1	648	1453.993499160686	4
1	649	1465.800944179146	3
1	650	1472.884447057592	2
1	653	1475.072466266883	1
1	654	1476.619499003505	0
1	702	1572.04492876378	0
1	705	1580.679349847678	0
1	709	1595.075952196652	0
1	710	1599.78774671452	0
1	727	1640.764755717333	0
1	728	1641.040746799152	0
1	733	1652.793029395307	0
1	734	1657.009526633566	0
1	742	1681.66743090527	0
1	745	1686.184167646453	0
1	764	1726.483585756461	0
1	768	1731.217903927377	1
1	774	1745.062392548567	2
1	777	1748.702706650456	2
1	783	1761.688329774283	2
1	786	1773.684387104329	2
1	787	1776.408567448565	1
1	790	1788.587519568396	0
1	805	1834.890265730179	0
1	812	1854.728042083379	0
1	818	1861.258659594882	0
1	820	1862.537144774147	1
1	823	1866.528058580101	1
1	824	1870.986979779889	0
1	844	1921.970189220149	0
1	849	1925.742120287312	0
1	851	1926.174871237724	0
1	854	1932.629566207813	0
1	856	1939.677308397534	0
1	857	1942.373225895596	0
1	861	1947.375216089019	0
1	864	1957.949705936149	0
1	880	1982.883816033365	0
1	882	1983.984816311616	1
1	883	1984.406101197694	1
1	885	1991.286837472051	1
1	886	1995.455044816697	1
1	888	1996.754152655681	1
1	894	2002.466128489888	2
1	895	2004.350670234359	2
1	904	2033.441833009767	1
1	905	2043.67421537576	0
1	909	2055.107241010381	0
1	910	2055.511434959271	0
1	916	2068.075372850136	0
1	920	2075.632832202764	1
1	921	2079.982876856313	1
1	922	2083.494612548294	0
1	929	2104.666754849128	0
1	938	2127.755946989651	0
1	940	2127.889419142281	0
1	941	2128.880074471994	0
1	956	2158.870692950259	0
1	959	2167.055539926512	0
1	961	2167.354006824154	0
1	964	2173.910012997973	0
1	967	2188.12599603428	0
1	968	2198.318869405148	0
1	989	2251.243384943465	0
1	990	2251.804337587894	0
1	993	2258.364926004097	0
1	994	2260.33798140504	0
1	997	2269.872364346719	0
1	998	2274.724858972831	0
1	1013	2307.555450401146	0
1	1014	2307.670428566235	0
1	1053	2408.063543574337	0
1	1055	2409.514620667025	1
1	1056	2413.998618125214	1
1	1062	2424.407726500811	1
1	1064	2432.363775165864	2
1	1065	2432.87022944519	2
1	1066	2437.686949454638	1
1	1071	2453.65447470372	0
1	1084	2490.842751616098	0
2	136	352.004986605385	10.79454347878
2	177	448.838787117998	11.183179241175
2	194	498.512873964631	22.095110146462
2	201	510.118193268633	4.960898364764
2	208	526.655724056329	8.158479539785
2	211	529.412356379047	5.406472262347
2	216	539.112049780877	9.34314503838
2	234	582.502377605875	1.901906203268
2	240	621.010474838874	3.453705001361
2	243	633.881574804543	6.094545687848
2	252	661.675800466577	1.717061673952
2	258	678.837395791449	1.364914728841
2	273	710.905617309135	3.826195650219
2	286	730.198991887559	2.34995450661
2	310	766.476968032142	4.368353161252
2	313	768.516467533904	2.451884922172
2	320	780.714903710573	13.471758178925
2	327	788.459346680532	15.748955494729
2	328	791.09645590799	11.05628705796
2	341	802.498032932788	21.341295923361
2	344	805.139322119772	20.049893301016
2	345	808.33339717265	17.033307908879
2	352	840.063165194446	38.615590828472
2	353	842.161533879949	13.953786981264
2	365	872.780215534753	0.546306848152
2	390	905.489191089088	8.030337357659
2	397	910.107801359149	5.868625367732
2	402	919.555114439606	11.492370298065
2	415	934.50557216991	3.678014415595
2	419	939.298120612361	2.314696755464
2	437	976.659960950725	0.796835214576
2	457	1028.472455898693	3.691016921439
2	462	1033.117933239266	1.868693992142
2	476	1070.694731436917	13.318974319781
2	487	1096.020785080231	24.03643440549
2	488	1097.392797881211	10.045390385594
2	493	1104.714409529457	0.090283959029
2	507	1134.983843234056	3.070592214152
2	510	1137.180958501051	1.750362232167
2	523	1168.6695842219	12.443606625821
2	540	1219.011678109553	35.97854096253
2	541	1220.913527617928	36.513846854507
2	542	1224.448646382497	21.624945699813
2	562	1296.384878762265	5.628621234001
2	563	1299.745188493323	7.97206403419
2	567	1308.33472290226	5.084432798753
2	572	1320.761912468983	9.018987962562
2	573	1320.883132772745	2.048138408037
2	581	1341.240607460036	0.189232768908
2	590	1350.6635923511	2.245283778393
2	593	1354.78233583701	1.812550249375
2	618	1409.315250037989	17.043533535198
2	637	1435.211727180381	39.959971386055
2	648	1453.993499160686	33.194661080306
2	649	1465.800944179146	33.48670358222
2	650	1472.884447057592	40.422110372097
2	653	1475.072466266883	35.549911439564
2	654	1476.619499003505	22.752629685348
2	705	1580.679349847678	8.634421083898
2	710	1599.78774671452	4.711794517868
2	728	1641.040746799152	0.275991081819
2	734	1657.009526633566	4.216497238259
2	745	1686.184167646453	4.516736741183
2	777	1748.702706650456	22.219120893995
2	786	1773.684387104329	42.466483176952
2	787	1776.408567448565	31.346174899998
2	790	1788.587519568396	26.899189794113
2	812	1854.728042083379	19.8377763532
2	823	1866.528058580101	5.269398985219
2	824	1870.986979779889	8.449835005742
2	849	1925.742120287312	3.771931067163
2	854	1932.629566207813	6.454694970089
2	857	1942.373225895596	2.695917498062
2	864	1957.949705936149	10.57448984713
2	883	1984.406101197694	1.522285164329
2	886	1995.455044816697	11.470228505081
2	895	2004.350670234359	13.063832762308
2	904	2033.441833009767	36.687680354086
2	905	2043.67421537576	41.208086885872
2	910	2055.511434959271	0.40419394889
2	921	2079.982876856313	11.907504006177
2	922	2083.494612548294	7.86178034553
2	938	2127.755946989651	23.089192140523
2	941	2128.880074471994	0.990655329713
2	959	2167.055539926512	8.184846976253
2	964	2173.910012997973	6.556006173819
2	968	2198.318869405148	10.192873370868
2	990	2251.804337587894	0.560952644429
2	994	2260.33798140504	1.973055400943
2	998	2274.724858972831	4.852494626112
2	1014	2307.670428566235	0.114978165089
2	1056	2413.998618125214	5.935074550877
2	1065	2432.87022944519	23.355608778165
2	1066	2437.686949454638	13.279222953827
2	1071	2453.65447470372	21.290699537856
3	136	352.004986605385	135.04414339127
3	137	353.42810966541	111.83064608746
3	138	356.548849486116	114.29417140726
3	139	357.788821511808	112.00461229808
3	142	370.697321496998	117.97348666653
3	143	371.743588928807	111.64790928255
3	144	373.501353777798	102.85583591832
3	149	374.907347626667	104.09354708853
3	150	375.582888759778	101.04129191195
3	153	380.788890758169	102.30472221107
3	154	382.232057925975	101.44899686374
3	155	388.869935567333	86.280864967973
3	158	390.869698228649	81.063082590977
3	163	416.244351712645	86.442646237724
3	164	419.86560398535	89.606585849317
3	171	429.995113376319	94.639366280683
3	172	431.833058994437	90.622615867832
3	173	433.456075596124	69.877020710325
3	174	435.927130480978	62.383845085209
3	177	448.838787117998	74.176872932452
3	178	448.909627275934	69.192670187479
3	179	448.998879124186	59.782869771949
3	180	452.033379005369	55.961955247081
3	181	455.215120496256	57.176357879808
3	182	462.225640848154	41.298928098722
3	183	463.112381676083	41.414946199931
3	184	473.930638147897	47.542048830108
3	185	474.793304737482	37.137696860659
3	194	498.512873964631	22.095110146462
3	195	502.59055727059	21.154113746618
3	196	504.867486339956	15.218716457595
3	201	510.118193268633	16.06460270396
3	202	517.738636241275	12.581341337406
3	203	517.94031282338	8.040580605038
3	211	529.412356379047	10.915111862503
3	216	539.112049780877	10.919293630717
3	217	543.331111995481	13.562207252984
3	218	546.608704369191	9.633229840378
3	221	547.817043430886	0.678485367659
3	224	560.03261985754	0
3	227	562.385083159734	0
3	230	570.527389667603	0
3	236	608.890487285279	0
3	245	655.955770116286	0
3	248	657.882087485901	0.43654400474
3	254	671.478368522561	0
3	260	679.535327752802	0
3	263	700.541593501188	0
3	266	703.644066229174	0
3	273	710.905617309135	4.565262121884
3	276	714.398021858856	7.31860019994
3	279	722.062886808945	11.987345678101
3	280	723.58237383202	10.599038458344
3	281	723.878798384694	6.875775581067
3	286	730.198991887559	2.34995450661
3	291	733.43514000577	4.231330046373
3	292	737.911095663867	7.131024290207
3	293	741.10053292814	9.353949979066
3	298	752.336202037181	3.399369166797
3	303	758.158665516508	6.701519053894
3	353	842.161533879949	88.947541798215
3	354	843.804838028901	89.308276340167
3	355	848.912898210851	87.517942601576
3	356	851.115477702454	89.006862831564
3	357	854.562735664512	76.83820310394
3	358	860.489834325285	78.745119424632
3	359	862.282637579828	68.829190806114
3	360	867.447753983498	71.827136417326
3	361	868.038495876562	71.538682509953
3	362	871.920907508602	73.839016909915
3	365	872.780215534753	68.967166546675
3	370	876.014964309072	60.595144855818
3	377	888.108221609468	66.906621076527
3	402	919.555114439606	47.321205753005
3	405	923.989036889255	50.538430285086
3	408	927.253598394255	52.607503569048
3	415	934.50557216991	56.508146903291
3	416	935.995448634265	56.727464531497
3	419	939.298120612361	51.678605547817
3	428	966.686016187919	77.297372073776
3	433	973.87781902684	83.207345710205
3	434	974.512443296779	77.05358956535
3	437	976.659960950725	72.975047359488
3	438	978.288254172414	74.160028413102
3	439	978.29810156109	72.74285364364
3	440	979.073186248263	71.799943701
3	443	984.627154393768	72.652203954817
3	448	994.554545386032	76.905383119001
3	453	1017.498908032277	95.174157819039
3	454	1018.785243942259	91.724947544
3	457	1028.472455898693	98.834001790269
3	462	1033.117933239266	102.85884863642
3	467	1038.978029534268	108.15047177995
3	468	1043.608615768062	106.62519191117
3	469	1049.853733733971	105.65028074067
3	476	1070.694731436917	116.68731921315
3	488	1097.392797881211	138.60797437088
3	493	1104.714409529457	139.23925032929
3	494	1114.93192377251	147.84527346213
3	497	1121.320695272837	148.92858832879
3	498	1121.818530462246	145.9554047261
3	507	1134.983843234056	154.62272960299
3	510	1137.180958501051	150.81352936804
3	513	1149.188129409709	161.07093304277
3	514	1152.609701630491	156.44927187288
3	523	1168.6695842219	167.14413974804
3	542	1224.448646382497	199.66720740524
3	543	1225.719691441268	196.88831791732
3	544	1232.914972416653	201.66573316953
3	545	1243.690939197662	210.55763551631
3	548	1256.701785025862	220.4976029207
3	551	1275.242040563122	217.86628344599
3	554	1281.533842593732	214.20962616786
3	555	1281.817167634678	214.31457655277
3	563	1299.745188493323	227.76083781858
3	564	1301.245210001817	227.73078660093
3	567	1308.33472290226	222.83334305431
3	573	1320.883132772745	234.12943307284
3	574	1322.946418900976	219.72429188497
3	577	1329.814940576453	225.19081500602
3	578	1340.751200701664	224.59847505421
3	581	1341.240607460036	214.80607809806
3	582	1342.52577846169	215.48398489518
3	583	1343.949706206945	212.03645518704
3	590	1350.6635923511	216.12453737622
3	593	1354.78233583701	219.35173956813
3	594	1357.7158618719	219.45237918971
3	597	1358.974001051064	202.85094191397
3	598	1359.537781769013	203.31180417293
3	601	1364.923182795935	207.0606360818
3	602	1370.881071683819	208.69361460855
3	603	1385.458320198597	202.42518305157
3	654	1476.619499003505	285.09795067821
3	655	1478.532963221282	284.90959037123
3	656	1490.37974571618	295.90537723875
3	657	1494.181434661365	299.53270981706
3	658	1499.822404404077	286.60733257428
3	659	1503.219549558056	250.51503507493
3	662	1504.107215997191	242.87479497985
3	663	1505.650800728159	227.75703040568
3	664	1508.466702078782	217.71044455052
3	667	1515.106267389279	221.40917456291
3	668	1515.730038841198	212.47974873769
3	671	1523.318116325064	211.57519181864
3	672	1525.5840744386	199.49740479826
3	675	1527.087637929921	186.03626323879
3	686	1539.804656754269	191.38634818156
3	687	1544.902930808742	195.86945242859
3	690	1546.046272448047	196.88466621436
3	697	1555.206041860578	202.23625627294
3	698	1565.082368523983	206.78351861419
3	699	1565.594865018503	203.96761668786
3	700	1570.163898967488	177.8921824647
3	705	1580.679349847678	181.73210829185
3	706	1585.726712316278	184.2005715142
3	707	1588.484647677523	182.62780964573
3	710	1599.78774671452	193.9035492355
3	711	1600.27327797554	193.03825081532
3	712	1604.618150336132	193.09126294882
3	715	1609.251105657335	190.37415831457
3	716	1614.749425910866	190.0775987208
3	717	1615.465357638721	188.21363913736
3	718	1618.00708972189	188.75218113791
3	719	1623.443755764331	194.14893665823
3	722	1630.279608063758	193.89554784972
3	723	1633.421767332518	195.55266607875
3	728	1641.040746799152	199.84760812228
3	729	1645.95036006438	172.64334638122
3	734	1657.009526633566	153.32709341278
3	735	1663.780882021087	153.97380454302
3	736	1663.898088005346	147.6502518997
3	745	1686.184167646453	159.49308935761
3	746	1688.013197906741	158.31053744753
3	747	1703.480757888194	170.4786195638
3	748	1704.123790509252	167.4253192797
3	749	1704.717181481993	166.48318427857
3	754	1708.471971805845	170.02186246491
3	755	1709.316789393006	163.95043152123
3	758	1717.021211864834	168.33250094956
3	759	1720.178468830512	169.8768077519
3	760	1722.436572107983	169.15173375499
3	790	1788.587519568396	216.54259080462
3	791	1794.470639632398	216.82065363014
3	798	1816.122652506917	221.04670031027
3	801	1827.274562935002	220.0714124383
3	802	1829.797229412138	201.88300511647
3	803	1830.256187005135	189.50703096758
3	812	1854.728042083379	213.96328636605
3	815	1855.130841932225	203.60906607164
3	816	1859.746244400956	206.95321500565
3	824	1870.986979779889	201.80135920884
3	825	1871.36161733882	195.8199594986
3	826	1871.708911166785	190.04148026152
3	827	1874.925637089878	190.8635221799
3	828	1878.600611580667	172.23860608621
3	831	1883.284575297814	175.60682455512
3	836	1893.964887264667	179.49540253971
3	839	1899.532199866544	176.40697597595
3	840	1901.989003520359	175.5054177639
3	849	1925.742120287312	195.72150655638
3	854	1932.629566207813	194.75164478851
3	857	1942.373225895596	203.00222792943
3	864	1957.949705936149	211.98769491572
3	865	1959.65327293724	209.77143564914
3	870	1975.760556220764	216.57369344059
3	871	1976.708061247635	207.0777589387
3	872	1977.133724575683	199.76644396863
3	873	1977.261410099059	177.03185466867
3	878	1980.720017718348	174.72594762048
3	905	2043.67421537576	233.51835732425
3	906	2044.556188273914	221.88517710448
3	907	2045.286636869968	210.39637113979
3	910	2055.511434959271	217.55341733129
3	911	2058.997867823265	217.21761710882
3	914	2066.25687469291	215.14756607926
3	922	2083.494612548294	228.47306608704
3	923	2088.649118471928	227.39045887705
3	938	2127.755946989651	264.34013076268
3	941	2128.880074471994	247.8582491276
3	942	2130.556157465818	244.7094110972
3	945	2133.555370735062	243.05606942441
3	946	2142.212488080894	247.47903772983
3	947	2143.520174356773	224.88801338656
3	950	2146.981294458163	225.01110523801
3	951	2148.992150232102	224.80385225123
3	952	2153.325385174059	228.00628521797
3	959	2167.055539926512	240.88066868879
3	964	2173.910012997973	244.32417610439
3	965	2177.487442844283	237.81013444675
3	968	2198.318869405148	252.99401137135
3	969	2201.095362378941	253.72014628992
3	980	2218.040242777462	268.93728609643
3	981	2224.218547342901	254.02318833526
3	982	2226.504807648002	254.43150066498
3	983	2231.355805994343	254.05936857882
3	984	2232.669280482926	254.33290084505
3	985	2238.817671277423	255.93385524406
3	990	2251.804337587894	251.15833881816
3	991	2253.801027709067	252.26789736501
3	994	2260.33798140504	252.34295531023
3	995	2269.561241498511	244.95786501327
3	998	2274.724858972831	249.77430065725
3	999	2277.969338653045	244.53161922323
3	1002	2281.672264706131	226.56502369575
3	1003	2283.321828922389	220.28496555682
3	1006	2286.38326637563	218.30789352549
3	1009	2295.485610751471	222.44807128291
3	1014	2307.670428566235	209.04426698039
3	1015	2309.396823354987	207.74463206347
3	1016	2314.628251248782	209.96149639965
3	1017	2321.593852117998	216.87133249366
3	1018	2325.141073599405	210.84079238662
3	1019	2327.048700809567	203.45283020498
3	1022	2332.101841207798	205.62144950254
3	1023	2334.600605309233	206.71118616695
3	1028	2338.668282260014	207.53027348284
3	1029	2344.220675307051	198.90775928938
3	1032	2352.915750288227	197.650001596
3	1033	2353.699513907979	194.82882095772
3	1034	2354.211695320275	194.47253059574
3	1035	2355.242434651355	187.8884278272
3	1036	2365.133473411262	194.95543876382
3	1039	2373.693049179295	185.56705314501
3	1042	2380.082977025072	177.69406534675
3	1043	2383.181255320327	179.97556400915
3	1044	2383.362083159702	179.83752751869
3	1045	2388.904307752953	178.61454783202
3	1050	2405.097418146211	192.29895917344
3	1051	2407.136659973021	159.58721902329
3	1071	2453.65447470372	202.41108976026
3	1072	2453.734991552302	195.3700655482
3	1073	2464.676548504849	194.80418415813
3	1074	2464.702678578779	184.02637018662
3	1075	2466.67178600049	180.72384399081
3	1076	2471.606787430749	178.42863129755
3	1077	2482.849678982737	184.78617919555
3	1078	2484.155784183012	176.60033378187
3	1079	2485.865923793965	154.45617282386
3	1080	2488.721984683352	153.12618586605
4	137	353.42810966541	20
4	138	356.548849486116	21
4	139	357.788821511808	22
4	142	370.697321496998	23
4	143	371.743588928807	24
4	144	373.501353777798	25
4	149	374.907347626667	26
4	150	375.582888759778	27
4	153	380.788890758169	28
4	154	382.232057925975	29
4	155	388.869935567333	30
4	158	390.869698228649	31
4	163	416.244351712645	32
4	164	419.86560398535	33
4	171	429.995113376319	34
4	172	431.833058994437	35
4	173	433.456075596124	36
4	174	435.927130480978	37
4	178	448.909627275934	38
4	179	448.998879124186	39
4	180	452.033379005369	40
4	181	455.215120496256	41
4	182	462.225640848154	42
4	183	463.112381676083	43
4	184	473.930638147897	44
4	185	474.793304737482	45
4	195	502.59055727059	46
4	196	504.867486339956	47
4	202	517.738636241275	48
4	203	517.94031282338	49
4	217	543.331111995481	50
4	218	546.608704369191	51
4	221	547.817043430886	52
4	222	550.565419847982	53
4	225	560.591927602979	54
4	228	563.597492748877	55
4	231	577.078955823832	56
4	237	613.506241319655	57
4	248	657.882087485901	58
4	249	658.074809680717	59
4	255	671.48339332504	60
4	261	685.011991422008	61
4	264	702.845952574189	62
4	276	714.398021858856	63
4	279	722.062886808945	64
4	280	723.58237383202	65
4	281	723.878798384694	66
4	291	733.43514000577	67
4	292	737.911095663867	68
4	293	741.10053292814	69
4	298	752.336202037181	70
4	303	758.158665516508	71
4	354	843.804838028901	72
4	355	848.912898210851	73
4	356	851.115477702454	74
4	357	854.562735664512	75
4	358	860.489834325285	76
4	359	862.282637579828	77
4	360	867.447753983498	78
4	361	868.038495876562	79
4	362	871.920907508602	80
4	370	876.014964309072	81
4	377	888.108221609468	82
4	405	923.989036889255	83
4	408	927.253598394255	84
4	416	935.995448634265	85
4	428	966.686016187919	86
4	433	973.87781902684	87
4	434	974.512443296779	88
4	438	978.288254172414	89
4	439	978.29810156109	90
4	440	979.073186248263	91
4	443	984.627154393768	92
4	448	994.554545386032	93
4	453	1017.498908032277	94
4	454	1018.785243942259	95
4	467	1038.978029534268	96
4	468	1043.608615768062	97
4	469	1049.853733733971	98
4	494	1114.93192377251	99
4	497	1121.320695272837	100
4	498	1121.818530462246	101
4	513	1149.188129409709	102
4	514	1152.609701630491	103
4	543	1225.719691441268	104
4	544	1232.914972416653	105
4	545	1243.690939197662	106
4	548	1256.701785025862	107
4	551	1275.242040563122	108
4	554	1281.533842593732	109
4	555	1281.817167634678	110
4	564	1301.245210001817	111
4	574	1322.946418900976	112
4	577	1329.814940576453	113
4	578	1340.751200701664	114
4	582	1342.52577846169	115
4	583	1343.949706206945	116
4	594	1357.7158618719	117
4	597	1358.974001051064	118
4	598	1359.537781769013	119
4	601	1364.923182795935	120
4	602	1370.881071683819	121
4	603	1385.458320198597	122
4	655	1478.532963221282	123
4	656	1490.37974571618	124
4	657	1494.181434661365	125
4	658	1499.822404404077	126
4	659	1503.219549558056	127
4	662	1504.107215997191	128
4	663	1505.650800728159	129
4	664	1508.466702078782	130
4	667	1515.106267389279	131
4	668	1515.730038841198	132
4	671	1523.318116325064	133
4	672	1525.5840744386	134
4	675	1527.087637929921	135
4	686	1539.804656754269	136
4	687	1544.902930808742	137
4	690	1546.046272448047	138
4	697	1555.206041860578	139
4	698	1565.082368523983	140
4	699	1565.594865018503	141
4	700	1570.163898967488	142
4	706	1585.726712316278	143
4	707	1588.484647677523	144
4	711	1600.27327797554	145
4	712	1604.618150336132	146
4	715	1609.251105657335	147
4	716	1614.749425910866	148
4	717	1615.465357638721	149
4	718	1618.00708972189	150
4	719	1623.443755764331	151
4	722	1630.279608063758	152
4	723	1633.421767332518	153
4	729	1645.95036006438	154
4	735	1663.780882021087	155
4	736	1663.898088005346	156
4	746	1688.013197906741	157
4	747	1703.480757888194	158
4	748	1704.123790509252	159
4	749	1704.717181481993	160
4	754	1708.471971805845	161
4	755	1709.316789393006	162
4	758	1717.021211864834	163
4	759	1720.178468830512	164
4	760	1722.436572107983	165
4	791	1794.470639632398	166
4	798	1816.122652506917	167
4	801	1827.274562935002	168
4	802	1829.797229412138	169
4	803	1830.256187005135	170
4	815	1855.130841932225	171
4	816	1859.746244400956	172
4	825	1871.36161733882	173
4	826	1871.708911166785	174
4	827	1874.925637089878	175
4	828	1878.600611580667	176
4	831	1883.284575297814	177
4	836	1893.964887264667	178
4	839	1899.532199866544	179
4	840	1901.989003520359	180
4	865	1959.65327293724	181
4	870	1975.760556220764	182
4	871	1976.708061247635	183
4	872	1977.133724575683	184
4	873	1977.261410099059	185
4	878	1980.720017718348	186
4	906	2044.556188273914	187
4	907	2045.286636869968	188
4	911	2058.997867823265	189
4	914	2066.25687469291	190
4	923	2088.649118471928	191
4	942	2130.556157465818	192
4	945	2133.555370735062	193
4	946	2142.212488080894	194
4	947	2143.520174356773	195
4	950	2146.981294458163	196
4	951	2148.992150232102	197
4	952	2153.325385174059	198
4	965	2177.487442844283	199
4	969	2201.095362378941	200
4	980	2218.040242777462	201
4	981	2224.218547342901	202
4	982	2226.504807648002	203
4	983	2231.355805994343	204
4	984	2232.669280482926	205
4	985	2238.817671277423	206
4	991	2253.801027709067	207
4	995	2269.561241498511	208
4	999	2277.969338653045	209
4	1002	2281.672264706131	210
4	1003	2283.321828922389	211
4	1006	2286.38326637563	212
4	1009	2295.485610751471	213
4	1015	2309.396823354987	214
4	1016	2314.628251248782	215
4	1017	2321.593852117998	216
4	1018	2325.141073599405	217
4	1019	2327.048700809567	218
4	1022	2332.101841207798	219
4	1023	2334.600605309233	220
4	1028	2338.668282260014	221
4	1029	2344.220675307051	222
4	1032	2352.915750288227	223
4	1033	2353.699513907979	224
4	1034	2354.211695320275	225
4	1035	2355.242434651355	226
4	1036	2365.133473411262	227
4	1039	2373.693049179295	228
4	1042	2380.082977025072	229
4	1043	2383.181255320327	230
4	1044	2383.362083159702	231
4	1045	2388.904307752953	232
4	1050	2405.097418146211	233
4	1051	2407.136659973021	234
4	1072	2453.734991552302	235
4	1073	2464.676548504849	236
4	1074	2464.702678578779	237
4	1075	2466.67178600049	238
4	1076	2471.606787430749	239
4	1077	2482.849678982737	240
4	1078	2484.155784183012	241
4	1079	2485.865923793965	242
4	1080	2488.721984683352	243
5	137	353.42810966541	16
5	138	356.548849486116	15
5	139	357.788821511808	14
5	141	363.579054885799	14
5	142	370.697321496998	14
5	143	371.743588928807	13
5	144	373.501353777798	12
5	146	373.543285395769	12
5	148	374.661914185546	13
5	149	374.907347626667	13
5	150	375.582888759778	12
5	152	379.716957088455	12
5	153	380.788890758169	12
5	154	382.232057925975	11
5	155	388.869935567333	10
5	157	389.216009352237	10
5	158	390.869698228649	10
5	160	396.071423758288	10
5	162	398.038762616448	11
5	163	416.244351712645	11
5	164	419.86560398535	10
5	166	420.926712749432	10
5	168	421.697435476152	11
5	170	426.388589317789	12
5	171	429.995113376319	12
5	172	431.833058994437	11
5	173	433.456075596124	10
5	174	435.927130480978	9
5	178	448.909627275934	8
5	179	448.998879124186	7
5	180	452.033379005369	6
5	181	455.215120496256	5
5	182	462.225640848154	4
5	183	463.112381676083	3
5	184	473.930638147897	2
5	185	474.793304737482	1
5	189	481.436443523972	1
5	191	489.648769882361	2
5	193	494.053590564673	3
5	195	502.59055727059	3
5	196	504.867486339956	2
5	200	509.899732218342	2
5	202	517.738636241275	2
5	203	517.94031282338	1
5	210	528.19275615016	1
5	215	536.975474528813	2
5	217	543.331111995481	2
5	218	546.608704369191	1
5	220	547.138558063227	1
5	221	547.817043430886	1
5	222	550.565419847982	0
5	224	560.03261985754	0
5	225	560.591927602979	0
5	227	562.385083159734	0
5	228	563.597492748877	0
5	230	570.527389667603	0
5	231	577.078955823832	0
5	236	608.890487285279	0
5	237	613.506241319655	0
5	245	655.955770116286	0
5	247	657.445543481161	1
5	248	657.882087485901	1
5	249	658.074809680717	0
5	254	671.478368522561	0
5	255	671.48339332504	0
5	260	679.535327752802	0
5	261	685.011991422008	0
5	263	700.541593501188	0
5	264	702.845952574189	0
5	266	703.644066229174	0
5	268	706.340355187251	1
5	272	710.075541130844	2
5	275	712.983335373676	3
5	276	714.398021858856	3
5	278	717.003022803627	3
5	279	722.062886808945	3
5	280	723.58237383202	2
5	281	723.878798384694	1
5	285	729.203809959397	1
5	288	730.78007137366	2
5	290	731.746582949074	3
5	291	733.43514000577	3
5	292	737.911095663867	2
5	293	741.10053292814	1
5	295	748.936832870384	1
5	297	751.457146462614	2
5	298	752.336202037181	2
5	300	753.213992081734	2
5	302	754.496561688734	3
5	303	758.158665516508	3
5	305	761.394955609275	3
5	317	777.724532560572	4
5	324	781.744714900653	5
5	332	793.453446773714	6
5	334	795.620617566172	7
5	336	796.499813366609	8
5	338	798.081890598687	9
5	343	803.813048988078	10
5	347	815.419819453254	11
5	349	821.201600532941	12
5	354	843.804838028901	12
5	355	848.912898210851	11
5	356	851.115477702454	10
5	357	854.562735664512	9
5	358	860.489834325285	8
5	359	862.282637579828	7
5	360	867.447753983498	6
5	361	868.038495876562	5
5	362	871.920907508602	4
5	367	873.450606604169	4
5	369	874.646094825207	5
5	370	876.014964309072	5
5	372	877.997425266619	5
5	374	879.267984102768	6
5	376	887.619515064544	7
5	377	888.108221609468	7
5	379	889.388644114143	7
5	381	890.670473316635	8
5	385	903.684913591237	9
5	387	904.128225759312	10
5	392	905.55524791745	11
5	394	907.273242547263	12
5	399	911.974950438951	13
5	401	917.649162267031	14
5	404	922.324750213238	15
5	405	923.989036889255	15
5	407	927.060296398259	15
5	408	927.253598394255	15
5	410	929.638454108424	15
5	412	930.259084602846	16
5	416	935.995448634265	16
5	421	944.203452993304	16
5	423	954.007412223763	17
5	425	958.784823510326	18
5	427	965.475159200168	19
5	428	966.686016187919	19
5	430	967.086650310384	19
5	432	972.392106944048	20
5	433	973.87781902684	20
5	434	974.512443296779	19
5	438	978.288254172414	18
5	439	978.29810156109	17
5	440	979.073186248263	16
5	442	980.361113631062	16
5	443	984.627154393768	16
5	445	986.367429133012	16
5	447	988.117196366938	17
5	448	994.554545386032	17
5	450	996.160429757614	17
5	452	1001.525444473856	18
5	453	1017.498908032277	18
5	454	1018.785243942259	17
5	459	1028.831373523952	17
5	464	1033.133303681355	18
5	466	1036.204182105157	19
5	467	1038.978029534268	19
5	468	1043.608615768062	18
5	469	1049.853733733971	17
5	473	1067.324216425874	17
5	475	1067.502591081906	18
5	480	1073.514423400888	19
5	482	1085.501379847949	20
5	484	1086.753699699907	21
5	490	1103.222127016005	22
5	494	1114.93192377251	22
5	496	1116.152725647456	22
5	497	1121.320695272837	22
5	498	1121.818530462246	21
5	500	1126.434529361977	21
5	502	1127.04179356651	22
5	506	1134.539054974881	23
5	512	1138.263482682187	24
5	513	1149.188129409709	24
5	514	1152.609701630491	23
5	516	1156.12305913709	23
5	520	1157.862546714135	24
5	522	1162.187457075274	25
5	529	1191.521548325295	26
5	531	1193.623372850051	27
5	533	1194.474368477427	28
5	535	1194.648724844303	29
5	539	1213.215071829798	30
5	543	1225.719691441268	30
5	544	1232.914972416653	29
5	545	1243.690939197662	28
5	547	1252.704514483121	28
5	548	1256.701785025862	28
5	550	1261.23242101734	28
5	551	1275.242040563122	28
5	553	1277.893770322476	28
5	554	1281.533842593732	28
5	555	1281.817167634678	27
5	561	1293.69709282637	27
5	564	1301.245210001817	27
5	574	1322.946418900976	26
5	576	1326.086669640338	26
5	577	1329.814940576453	26
5	578	1340.751200701664	25
5	582	1342.52577846169	24
5	583	1343.949706206945	23
5	587	1349.033478380154	23
5	589	1349.161606233685	24
5	594	1357.7158618719	24
5	596	1358.298849909792	24
5	597	1358.974001051064	24
5	598	1359.537781769013	23
5	600	1361.627248330642	23
5	601	1364.923182795935	23
5	602	1370.881071683819	22
5	603	1385.458320198597	21
5	609	1398.947241555823	21
5	611	1401.526140802077	22
5	613	1405.856838031789	23
5	615	1405.884197479022	24
5	617	1407.235027160216	25
5	620	1411.526887387314	26
5	622	1418.876947342769	27
5	626	1424.671827190064	28
5	628	1427.251718501363	29
5	630	1429.254908583975	30
5	632	1429.294819106096	31
5	639	1436.384060214042	32
5	641	1437.869101253766	33
5	645	1441.193138676873	34
5	652	1473.307013683163	35
5	655	1478.532963221282	35
5	656	1490.37974571618	34
5	657	1494.181434661365	33
5	658	1499.822404404077	32
5	659	1503.219549558056	31
5	661	1503.682433220789	31
5	662	1504.107215997191	31
5	663	1505.650800728159	30
5	664	1508.466702078782	29
5	666	1509.807077478072	29
5	667	1515.106267389279	29
5	668	1515.730038841198	28
5	670	1516.247836105645	28
5	671	1523.318116325064	28
5	672	1525.5840744386	27
5	674	1526.691078288846	27
5	675	1527.087637929921	27
5	677	1529.702660459206	27
5	679	1533.00213832439	28
5	681	1536.698471229552	29
5	683	1538.233997203426	30
5	685	1538.450109340932	31
5	686	1539.804656754269	31
5	687	1544.902930808742	30
5	689	1545.366357871776	30
5	690	1546.046272448047	30
5	692	1548.688710915277	30
5	694	1550.301661078617	31
5	696	1553.284838352992	32
5	697	1555.206041860578	32
5	698	1565.082368523983	31
5	699	1565.594865018503	30
5	700	1570.163898967488	29
5	704	1577.649986002257	29
5	706	1585.726712316278	29
5	707	1588.484647677523	28
5	711	1600.27327797554	27
5	712	1604.618150336132	26
5	714	1607.203150496704	26
5	715	1609.251105657335	26
5	716	1614.749425910866	25
5	717	1615.465357638721	24
5	718	1618.00708972189	23
5	719	1623.443755764331	22
5	721	1627.914224295672	22
5	722	1630.279608063758	22
5	723	1633.421767332518	21
5	725	1640.74915603755	21
5	729	1645.95036006438	21
5	731	1651.521775860583	21
5	735	1663.780882021087	21
5	736	1663.898088005346	20
5	738	1669.18562057105	20
5	740	1675.541657840223	21
5	744	1684.062114909978	22
5	746	1688.013197906741	22
5	747	1703.480757888194	21
5	748	1704.123790509252	20
5	749	1704.717181481993	19
5	751	1706.362005494458	19
5	753	1707.677750742697	20
5	754	1708.471971805845	20
5	755	1709.316789393006	19
5	757	1714.469484724958	19
5	758	1717.021211864834	19
5	759	1720.178468830512	18
5	760	1722.436572107983	17
5	762	1723.125223890593	17
5	766	1730.020613730931	18
5	770	1737.8779214193	19
5	772	1739.370997966171	20
5	776	1745.962011020429	21
5	779	1749.881837288104	22
5	781	1759.186862780174	23
5	785	1769.630302308937	24
5	789	1777.367280607055	25
5	791	1794.470639632398	25
5	793	1800.229555430394	25
5	795	1805.994070097871	26
5	797	1810.155858051508	27
5	798	1816.122652506917	27
5	800	1822.671011169435	27
5	801	1827.274562935002	27
5	802	1829.797229412138	26
5	803	1830.256187005135	25
5	807	1837.958017627977	25
5	809	1841.780250714441	26
5	811	1851.10930861365	27
5	814	1855.021546461255	28
5	815	1855.130841932225	28
5	816	1859.746244400956	27
5	822	1863.415816226968	27
5	825	1871.36161733882	27
5	826	1871.708911166785	26
5	827	1874.925637089878	25
5	828	1878.600611580667	24
5	830	1881.021825344395	24
5	831	1883.284575297814	24
5	833	1885.846746368614	24
5	835	1890.499301310651	25
5	836	1893.964887264667	25
5	838	1894.733450351068	25
5	839	1899.532199866544	25
5	840	1901.989003520359	24
5	842	1918.63216097021	24
5	846	1924.188297980871	25
5	848	1925.319099956091	26
5	853	1929.585836893588	27
5	859	1945.324858033802	28
5	863	1949.102956681035	29
5	865	1959.65327293724	29
5	867	1970.195359007643	29
5	869	1972.073306983018	30
5	870	1975.760556220764	30
5	871	1976.708061247635	29
5	872	1977.133724575683	28
5	873	1977.261410099059	27
5	875	1977.296437415521	27
5	877	1978.336379637879	28
5	878	1980.720017718348	28
5	890	2000.645998769736	28
5	892	2001.533130344054	29
5	897	2007.995026094809	30
5	899	2024.603376485236	31
5	901	2024.950558315583	32
5	903	2033.437719429817	33
5	906	2044.556188273914	33
5	907	2045.286636869968	32
5	911	2058.997867823265	31
5	913	2063.036863365565	31
5	914	2066.25687469291	31
5	918	2073.037539468562	31
5	923	2088.649118471928	31
5	925	2098.626161585843	31
5	927	2101.652191291521	32
5	931	2104.722519624341	33
5	933	2114.300281212789	34
5	935	2123.595870604585	35
5	937	2126.480391705255	36
5	942	2130.556157465818	36
5	944	2131.138008777177	36
5	945	2133.555370735062	36
5	946	2142.212488080894	35
5	947	2143.520174356773	34
5	949	2145.312916017673	34
5	950	2146.981294458163	34
5	951	2148.992150232102	33
5	952	2153.325385174059	32
5	954	2155.265748692222	32
5	958	2159.739164724532	33
5	963	2170.178034647438	34
5	965	2177.487442844283	34
5	969	2201.095362378941	33
5	971	2202.388911678322	33
5	973	2203.205691311175	34
5	975	2203.524555641011	35
5	977	2210.289759920931	36
5	979	2212.79845897277	37
5	980	2218.040242777462	37
5	981	2224.218547342901	36
5	982	2226.504807648002	35
5	983	2231.355805994343	34
5	984	2232.669280482926	33
5	985	2238.817671277423	32
5	987	2247.549440949729	32
5	991	2253.801027709067	32
5	995	2269.561241498511	31
5	999	2277.969338653045	30
5	1001	2280.676308392161	30
5	1002	2281.672264706131	30
5	1003	2283.321828922389	29
5	1005	2285.947942009678	29
5	1006	2286.38326637563	29
5	1008	2293.178156133197	29
5	1009	2295.485610751471	29
5	1011	2298.063499787186	29
5	1015	2309.396823354987	29
5	1016	2314.628251248782	28
5	1017	2321.593852117998	27
5	1018	2325.141073599405	26
5	1019	2327.048700809567	25
5	1021	2331.409750970106	25
5	1022	2332.101841207798	25
5	1023	2334.600605309233	24
5	1025	2335.595798817299	24
5	1027	2337.869263900486	25
5	1028	2338.668282260014	25
5	1029	2344.220675307051	24
5	1031	2345.414111781883	24
5	1032	2352.915750288227	24
5	1033	2353.699513907979	23
5	1034	2354.211695320275	22
5	1035	2355.242434651355	21
5	1036	2365.133473411262	20
5	1038	2367.882882518354	20
5	1039	2373.693049179295	20
5	1041	2375.883843674064	20
5	1042	2380.082977025072	20
5	1043	2383.181255320327	19
5	1044	2383.362083159702	18
5	1045	2388.904307752953	17
5	1047	2396.56508061736	17
5	1049	2402.72537027751	18
5	1050	2405.097418146211	18
5	1051	2407.136659973021	17
5	1058	2418.608898796319	17
5	1060	2420.928476131934	18
5	1068	2440.516677299247	19
5	1070	2448.232179053637	20
5	1072	2453.734991552302	20
5	1073	2464.676548504849	19
5	1074	2464.702678578779	18
5	1075	2466.67178600049	17
5	1076	2471.606787430749	16
5	1077	2482.849678982737	15
5	1078	2484.155784183012	14
5	1079	2485.865923793965	13
5	1080	2488.721984683352	12
5	1082	2489.019590075643	12
5	1086	2491.481527160442	13
6	137	353.42810966541	136.46726645129
6	138	356.548849486116	114.95138590817
6	139	357.788821511808	115.53414343295
6	142	370.697321496998	124.91311228327
6	143	371.743588928807	119.01975409833
6	144	373.501353777798	113.40567413154
6	149	374.907347626667	104.26182976719
6	150	375.582888759778	104.76908822164
6	153	380.788890758169	106.24729391034
6	154	382.232057925975	103.74788937888
6	155	388.869935567333	108.08687450509
6	158	390.869698228649	88.280627629289
6	163	416.244351712645	106.43773607497
6	164	419.86560398535	90.063898510429
6	171	429.995113376319	99.736095240286
6	172	431.833058994437	96.477311898801
6	173	433.456075596124	92.245632469519
6	174	435.927130480978	72.348075595179
6	178	448.909627275934	74.247713090388
6	179	448.998879124186	69.281922035731
6	180	452.033379005369	62.817369653132
6	181	455.215120496256	59.143696737968
6	182	462.225640848154	64.186878231706
6	183	463.112381676083	42.185668926651
6	184	473.930638147897	52.233202671745
6	185	474.793304737482	48.404715419693
6	195	502.59055727059	26.172793452421
6	196	504.867486339956	23.431042815984
6	202	517.738636241275	23.685045676602
6	203	517.94031282338	12.783017919511
6	217	543.331111995481	15.138355845321
6	218	546.608704369191	16.839799626694
6	221	547.817043430886	10.841568902073
6	222	550.565419847982	3.426861784755
6	225	560.591927602979	0.559307745439
6	228	563.597492748877	1.212409589143
6	231	577.078955823832	6.551566156229
6	237	613.506241319655	4.615754034376
6	248	657.882087485901	1.926317369615
6	249	658.074809680717	0.629266199556
6	255	671.48339332504	0.005024802479
6	261	685.011991422008	5.476663669206
6	264	702.845952574189	2.304359073001
6	276	714.398021858856	8.057666671605
6	279	722.062886808945	14.983465150029
6	280	723.58237383202	13.506832701176
6	281	723.878798384694	10.895463011018
6	291	733.43514000577	5.586102624821
6	292	737.911095663867	8.70728570447
6	293	741.10053292814	10.32046155448
6	298	752.336202037181	20.589619088107
6	303	758.158665516508	9.221832646124
6	354	843.804838028901	90.590845947167
6	355	848.912898210851	94.416336522117
6	356	851.115477702454	89.720522093179
6	357	854.562735664512	92.454120793622
6	358	860.489834325285	82.765301764713
6	359	862.282637579828	80.537922679175
6	360	867.447753983498	73.994307209784
6	361	868.038495876562	72.41787831039
6	362	871.920907508602	75.421094141993
6	370	876.014964309072	72.201915320994
6	377	888.108221609468	72.688402156214
6	405	923.989036889255	51.755128202654
6	408	927.253598394255	53.802991790086
6	416	935.995448634265	57.998023367646
6	428	966.686016187919	79.066501123375
6	433	973.87781902684	84.489174912697
6	434	974.512443296779	83.841969980144
6	438	978.288254172414	74.603340581177
6	439	978.29810156109	74.169875801778
6	440	979.073186248263	73.517938330813
6	443	984.627154393768	77.353911846505
6	448	994.554545386032	82.579594947081
6	453	1017.498908032277	99.849745765246
6	454	1018.785243942259	96.460493729021
6	467	1038.978029534268	108.71894493142
6	468	1043.608615768062	112.78105801375
6	469	1049.853733733971	112.87030987707
6	494	1114.93192377251	149.45676457234
6	497	1121.320695272837	154.23404496245
6	498	1121.818530462246	149.4264235182
6	513	1149.188129409709	162.8207002767
6	514	1152.609701630491	164.49250526355
6	543	1225.719691441268	200.93825246401
6	544	1232.914972416653	204.0835988927
6	545	1243.690939197662	212.44169995054
6	548	1256.701785025862	223.56848134451
6	551	1275.242040563122	239.03785845797
6	554	1281.533842593732	224.1580854766
6	555	1281.817167634678	214.4929512088
6	564	1301.245210001817	229.26085932708
6	574	1322.946418900976	236.19271920107
6	577	1329.814940576453	226.59281356045
6	578	1340.751200701664	236.12707513124
6	582	1342.52577846169	216.09124909971
6	583	1343.949706206945	216.90791264044
6	594	1357.7158618719	222.28526560302
6	597	1358.974001051064	220.71051836888
6	598	1359.537781769013	203.41472263192
6	601	1364.923182795935	208.69720519986
6	602	1370.881071683819	213.01852496968
6	603	1385.458320198597	223.27086312332
6	655	1478.532963221282	287.01141489599
6	656	1490.37974571618	296.75637286613
6	657	1494.181434661365	299.70706618394
6	658	1499.822404404077	305.17367955977
6	659	1503.219549558056	290.00447772826
6	662	1504.107215997191	251.40270151407
6	663	1505.650800728159	244.41837971082
6	664	1508.466702078782	230.57293175631
6	667	1515.106267389279	224.35000986101
6	668	1515.730038841198	222.03294601483
6	671	1523.318116325064	220.06782622156
6	672	1525.5840744386	213.84114993218
6	675	1527.087637929921	201.00096828958
6	686	1539.804656754269	198.75328206314
6	687	1544.902930808742	196.48462223603
6	690	1546.046272448047	197.01279406789
6	697	1555.206041860578	206.04443562689
6	698	1565.082368523983	212.11258293635
6	699	1565.594865018503	207.29601510871
6	700	1570.163898967488	208.53665063685
6	706	1585.726712316278	186.77947076045
6	707	1588.484647677523	186.95850687545
6	711	1600.27327797554	194.38908049652
6	712	1604.618150336132	197.38312317592
6	715	1609.251105657335	197.72421827002
6	716	1614.749425910866	195.8724785681
6	717	1615.465357638721	190.79353044866
6	718	1618.00708972189	190.75537122053
6	719	1623.443755764331	194.18884718036
6	722	1630.279608063758	200.98478895766
6	723	1633.421767332518	197.03770711848
6	729	1645.95036006438	204.75722138751
6	735	1663.780882021087	160.0984488003
6	736	1663.898088005346	154.09101052727
6	746	1688.013197906741	161.32211961789
6	747	1703.480757888194	173.77809742899
6	748	1704.123790509252	171.12165218486
6	749	1704.717181481993	168.01871025244
6	754	1708.471971805845	170.23797460242
6	755	1709.316789393006	170.86668005207
6	758	1717.021211864834	171.65485399306
6	759	1720.178468830512	171.48975791524
6	760	1722.436572107983	172.13491102937
6	791	1794.470639632398	222.42571086862
6	798	1816.122652506917	238.47266650466
6	801	1827.274562935002	232.19861073835
6	802	1829.797229412138	222.59407891543
6	803	1830.256187005135	202.34196270946
6	815	1855.130841932225	214.36608621489
6	816	1859.746244400956	208.22446854037
6	825	1871.36161733882	202.17599676777
6	826	1871.708911166785	196.16725332656
6	827	1874.925637089878	193.25820618461
6	828	1878.600611580667	194.53849667069
6	831	1883.284575297814	176.92256980336
6	836	1893.964887264667	186.28713652197
6	839	1899.532199866544	185.06271514159
6	840	1901.989003520359	178.86377962977
6	865	1959.65327293724	213.69126191681
6	870	1975.760556220764	225.87871893266
6	871	1976.708061247635	217.52119846746
6	872	1977.133724575683	207.50342226675
6	873	1977.261410099059	199.894129492
6	878	1980.720017718348	180.49046228795
6	906	2044.556188273914	234.40033022241
6	907	2045.286636869968	222.61562570053
6	911	2058.997867823265	221.03985019529
6	914	2066.25687469291	224.47662397847
6	923	2088.649118471928	233.62757201067
6	942	2130.556157465818	249.53433212142
6	945	2133.555370735062	247.70862436645
6	946	2142.212488080894	251.71318677024
6	947	2143.520174356773	248.7867240057
6	950	2146.981294458163	228.34913348795
6	951	2148.992150232102	227.02196101195
6	952	2153.325385174059	229.13708719319
6	965	2177.487442844283	247.9016059507
6	969	2201.095362378941	255.77050434514
6	980	2218.040242777462	270.66502668844
6	981	2224.218547342901	275.11559066187
6	982	2226.504807648002	256.30944864036
6	983	2231.355805994343	259.28249901133
6	984	2232.669280482926	255.37284306741
6	985	2238.817671277423	260.48129163954
6	991	2253.801027709067	253.15502893933
6	995	2269.561241498511	261.5662154037
6	999	2277.969338653045	253.01878033746
6	1002	2281.672264706131	248.23454527631
6	1003	2283.321828922389	228.21458791201
6	1006	2286.38326637563	223.34640301006
6	1009	2295.485610751471	227.41023790133
6	1015	2309.396823354987	210.77066176914
6	1016	2314.628251248782	212.97605995726
6	1017	2321.593852117998	216.92709726887
6	1018	2325.141073599405	220.41855397506
6	1019	2327.048700809567	212.74841959678
6	1022	2332.101841207798	208.50597060321
6	1023	2334.600605309233	208.12021360398
6	1028	2338.668282260014	210.77886311773
6	1029	2344.220675307051	213.08266652987
6	1032	2352.915750288227	207.60283427055
6	1033	2353.699513907979	198.43376521576
6	1034	2354.211695320275	195.34100237002
6	1035	2355.242434651355	195.50326992682
6	1036	2365.133473411262	197.77946658711
6	1039	2373.693049179295	203.51501453186
6	1042	2380.082977025072	191.95698099079
6	1043	2383.181255320327	180.792343642
6	1044	2383.362083159702	180.15639184853
6	1045	2388.904307752953	185.37975211194
6	1050	2405.097418146211	194.80765822528
6	1051	2407.136659973021	194.33820100025
6	1072	2453.734991552302	202.49160660884
6	1073	2464.676548504849	206.31162250075
6	1074	2464.702678578779	194.83031423206
6	1075	2466.67178600049	185.99547760833
6	1076	2471.606787430749	185.65884542107
6	1077	2482.849678982737	189.67152284954
6	1078	2484.155784183012	186.09228439583
6	1079	2485.865923793965	178.31047339282
6	1080	2488.721984683352	157.31223371325
7	141	363.579054885799	15
7	146	373.543285395769	13
7	148	374.661914185546	14
7	152	379.716957088455	13
7	157	389.216009352237	11
7	160	396.071423758288	11
7	162	398.038762616448	12
7	166	420.926712749432	11
7	168	421.697435476152	12
7	170	426.388589317789	13
7	189	481.436443523972	2
7	191	489.648769882361	3
7	193	494.053590564673	4
7	200	509.899732218342	3
7	210	528.19275615016	2
7	215	536.975474528813	3
7	220	547.138558063227	2
7	224	560.03261985754	1
7	227	562.385083159734	1
7	230	570.527389667603	1
7	236	608.890487285279	1
7	245	655.955770116286	1
7	247	657.445543481161	2
7	254	671.478368522561	1
7	260	679.535327752802	1
7	263	700.541593501188	1
7	266	703.644066229174	1
7	268	706.340355187251	2
7	272	710.075541130844	3
7	275	712.983335373676	4
7	278	717.003022803627	4
7	285	729.203809959397	2
7	288	730.78007137366	3
7	290	731.746582949074	4
7	295	748.936832870384	2
7	297	751.457146462614	3
7	300	753.213992081734	3
7	302	754.496561688734	4
7	305	761.394955609275	4
7	317	777.724532560572	5
7	324	781.744714900653	6
7	332	793.453446773714	7
7	334	795.620617566172	8
7	336	796.499813366609	9
7	338	798.081890598687	10
7	343	803.813048988078	11
7	347	815.419819453254	12
7	349	821.201600532941	13
7	367	873.450606604169	5
7	369	874.646094825207	6
7	372	877.997425266619	6
7	374	879.267984102768	7
7	376	887.619515064544	8
7	379	889.388644114143	8
7	381	890.670473316635	9
7	385	903.684913591237	10
7	387	904.128225759312	11
7	392	905.55524791745	12
7	394	907.273242547263	13
7	399	911.974950438951	14
7	401	917.649162267031	15
7	404	922.324750213238	16
7	407	927.060296398259	16
7	410	929.638454108424	16
7	412	930.259084602846	17
7	421	944.203452993304	17
7	423	954.007412223763	18
7	425	958.784823510326	19
7	427	965.475159200168	20
7	430	967.086650310384	20
7	432	972.392106944048	21
7	442	980.361113631062	17
7	445	986.367429133012	17
7	447	988.117196366938	18
7	450	996.160429757614	18
7	452	1001.525444473856	19
7	459	1028.831373523952	18
7	464	1033.133303681355	19
7	466	1036.204182105157	20
7	473	1067.324216425874	18
7	475	1067.502591081906	19
7	480	1073.514423400888	20
7	482	1085.501379847949	21
7	484	1086.753699699907	22
7	490	1103.222127016005	23
7	496	1116.152725647456	23
7	500	1126.434529361977	22
7	502	1127.04179356651	23
7	506	1134.539054974881	24
7	512	1138.263482682187	25
7	516	1156.12305913709	24
7	520	1157.862546714135	25
7	522	1162.187457075274	26
7	529	1191.521548325295	27
7	531	1193.623372850051	28
7	533	1194.474368477427	29
7	535	1194.648724844303	30
7	539	1213.215071829798	31
7	547	1252.704514483121	29
7	550	1261.23242101734	29
7	553	1277.893770322476	29
7	561	1293.69709282637	28
7	576	1326.086669640338	27
7	587	1349.033478380154	24
7	589	1349.161606233685	25
7	596	1358.298849909792	25
7	600	1361.627248330642	24
7	609	1398.947241555823	22
7	611	1401.526140802077	23
7	613	1405.856838031789	24
7	615	1405.884197479022	25
7	617	1407.235027160216	26
7	620	1411.526887387314	27
7	622	1418.876947342769	28
7	626	1424.671827190064	29
7	628	1427.251718501363	30
7	630	1429.254908583975	31
7	632	1429.294819106096	32
7	639	1436.384060214042	33
7	641	1437.869101253766	34
7	645	1441.193138676873	35
7	652	1473.307013683163	36
7	661	1503.682433220789	32
7	666	1509.807077478072	30
7	670	1516.247836105645	29
7	674	1526.691078288846	28
7	677	1529.702660459206	28
7	679	1533.00213832439	29
7	681	1536.698471229552	30
7	683	1538.233997203426	31
7	685	1538.450109340932	32
7	689	1545.366357871776	31
7	692	1548.688710915277	31
7	694	1550.301661078617	32
7	696	1553.284838352992	33
7	704	1577.649986002257	30
7	714	1607.203150496704	27
7	721	1627.914224295672	23
7	725	1640.74915603755	22
7	731	1651.521775860583	22
7	738	1669.18562057105	21
7	740	1675.541657840223	22
7	744	1684.062114909978	23
7	751	1706.362005494458	20
7	753	1707.677750742697	21
7	757	1714.469484724958	20
7	762	1723.125223890593	18
7	766	1730.020613730931	19
7	770	1737.8779214193	20
7	772	1739.370997966171	21
7	776	1745.962011020429	22
7	779	1749.881837288104	23
7	781	1759.186862780174	24
7	785	1769.630302308937	25
7	789	1777.367280607055	26
7	793	1800.229555430394	26
7	795	1805.994070097871	27
7	797	1810.155858051508	28
7	800	1822.671011169435	28
7	807	1837.958017627977	26
7	809	1841.780250714441	27
7	811	1851.10930861365	28
7	814	1855.021546461255	29
7	822	1863.415816226968	28
7	830	1881.021825344395	25
7	833	1885.846746368614	25
7	835	1890.499301310651	26
7	838	1894.733450351068	26
7	842	1918.63216097021	25
7	846	1924.188297980871	26
7	848	1925.319099956091	27
7	853	1929.585836893588	28
7	859	1945.324858033802	29
7	863	1949.102956681035	30
7	867	1970.195359007643	30
7	869	1972.073306983018	31
7	875	1977.296437415521	28
7	877	1978.336379637879	29
7	890	2000.645998769736	29
7	892	2001.533130344054	30
7	897	2007.995026094809	31
7	899	2024.603376485236	32
7	901	2024.950558315583	33
7	903	2033.437719429817	34
7	913	2063.036863365565	32
7	918	2073.037539468562	32
7	925	2098.626161585843	32
7	927	2101.652191291521	33
7	931	2104.722519624341	34
7	933	2114.300281212789	35
7	935	2123.595870604585	36
7	937	2126.480391705255	37
7	944	2131.138008777177	37
7	949	2145.312916017673	35
7	954	2155.265748692222	33
7	958	2159.739164724532	34
7	963	2170.178034647438	35
7	971	2202.388911678322	34
7	973	2203.205691311175	35
7	975	2203.524555641011	36
7	977	2210.289759920931	37
7	979	2212.79845897277	38
7	987	2247.549440949729	33
7	1001	2280.676308392161	31
7	1005	2285.947942009678	30
7	1008	2293.178156133197	30
7	1011	2298.063499787186	30
7	1021	2331.409750970106	26
7	1025	2335.595798817299	25
7	1027	2337.869263900486	26
7	1031	2345.414111781883	25
7	1038	2367.882882518354	21
7	1041	2375.883843674064	21
7	1047	2396.56508061736	18
7	1049	2402.72537027751	19
7	1058	2418.608898796319	18
7	1060	2420.928476131934	19
7	1068	2440.516677299247	20
7	1070	2448.232179053637	21
7	1082	2489.019590075643	13
7	1086	2491.481527160442	14
8	176	437.655607876823	1
8	187	476.417763818169	1
8	198	505.157294903869	1
8	205	518.497244516544	1
8	207	524.0058841167	2
8	213	529.768904742497	1
8	233	580.600471402607	1
8	239	617.556769837513	1
8	242	627.787029116695	1
8	251	659.958738792625	1
8	257	677.472481062608	1
8	270	707.079421658916	1
8	283	727.849037380949	1
8	307	762.10861487089	1
8	309	766.064582611732	2
8	312	767.243145531648	2
8	315	772.710391185803	2
8	319	780.04016885003	3
8	322	781.156737009427	3
8	326	785.089428818756	4
8	330	791.300089263771	3
8	340	801.447574365974	4
8	351	828.207746898685	2
8	364	872.233908686601	1
8	383	897.458853731429	1
8	389	904.239175991417	2
8	396	908.062744141541	2
8	414	930.827557754315	1
8	418	936.983423856897	1
8	436	975.863125736149	1
8	456	1024.781438977254	1
8	461	1031.249239247124	1
8	471	1057.375757117136	1
8	478	1071.984350674741	1
8	486	1087.347407495617	2
8	492	1104.624125570428	1
8	504	1131.913251019904	1
8	509	1135.430596268884	1
8	518	1156.225977596079	1
8	525	1183.033137147023	1
8	527	1184.399680763421	2
8	537	1202.823700682684	3
8	557	1290.756257528264	1
8	559	1291.773124459133	2
8	566	1303.250290103507	1
8	569	1311.742924506421	1
8	571	1318.834994364708	2
8	580	1341.051374691128	1
8	585	1348.418308572707	1
8	592	1352.969785587635	1
8	605	1392.271716502791	1
8	607	1395.251755794326	2
8	624	1420.79883808038	2
8	634	1432.314240596926	3
8	636	1432.462336685495	4
8	643	1439.522554827319	4
8	647	1453.866869318157	5
8	702	1572.04492876378	1
8	709	1595.075952196652	1
8	727	1640.764755717333	1
8	733	1652.793029395307	1
8	742	1681.66743090527	1
8	764	1726.483585756461	1
8	768	1731.217903927377	2
8	774	1745.062392548567	3
8	783	1761.688329774283	3
8	805	1834.890265730179	1
8	818	1861.258659594882	1
8	820	1862.537144774147	2
8	844	1921.970189220149	1
8	851	1926.174871237724	1
8	856	1939.677308397534	1
8	861	1947.375216089019	1
8	880	1982.883816033365	1
8	882	1983.984816311616	2
8	885	1991.286837472051	2
8	888	1996.754152655681	2
8	894	2002.466128489888	3
8	909	2055.107241010381	1
8	916	2068.075372850136	1
8	920	2075.632832202764	2
8	929	2104.666754849128	1
8	940	2127.889419142281	1
8	956	2158.870692950259	1
8	961	2167.354006824154	1
8	967	2188.12599603428	1
8	989	2251.243384943465	1
8	993	2258.364926004097	1
8	997	2269.872364346719	1
8	1013	2307.555450401146	1
8	1053	2408.063543574337	1
8	1055	2409.514620667025	2
8	1062	2424.407726500811	2
8	1064	2432.363775165864	3
8	1084	2490.842751616098	1
9	176	437.655607876823	10
9	187	476.417763818169	11
9	198	505.157294903869	12
9	205	518.497244516544	13
9	213	529.768904742497	14
9	270	707.079421658916	15
9	283	727.849037380949	16
9	307	762.10861487089	17
9	364	872.233908686601	18
9	383	897.458853731429	19
9	414	930.827557754315	20
9	418	936.983423856897	21
9	436	975.863125736149	22
9	456	1024.781438977254	23
9	461	1031.249239247124	24
9	471	1057.375757117136	25
9	478	1071.984350674741	26
9	492	1104.624125570428	27
9	504	1131.913251019904	28
9	509	1135.430596268884	29
9	518	1156.225977596079	30
9	525	1183.033137147023	31
9	557	1290.756257528264	32
9	566	1303.250290103507	33
9	569	1311.742924506421	34
9	580	1341.051374691128	35
9	585	1348.418308572707	36
9	592	1352.969785587635	37
9	605	1392.271716502791	38
9	702	1572.04492876378	39
9	709	1595.075952196652	40
9	727	1640.764755717333	41
9	733	1652.793029395307	42
9	742	1681.66743090527	43
9	764	1726.483585756461	44
9	805	1834.890265730179	45
9	818	1861.258659594882	46
9	844	1921.970189220149	47
9	851	1926.174871237724	48
9	856	1939.677308397534	49
9	861	1947.375216089019	50
9	880	1982.883816033365	51
9	909	2055.107241010381	52
9	916	2068.075372850136	53
9	929	2104.666754849128	54
9	940	2127.889419142281	55
9	956	2158.870692950259	56
9	961	2167.354006824154	57
9	967	2188.12599603428	58
9	989	2251.243384943465	59
9	993	2258.364926004097	60
9	997	2269.872364346719	61
9	1013	2307.555450401146	62
9	1053	2408.063543574337	63
9	1084	2490.842751616098	64
10	176	437.655607876823	0
10	187	476.417763818169	0
10	198	505.157294903869	0
10	205	518.497244516544	0
10	208	526.655724056329	2.649839939629
10	213	529.768904742497	0
10	233	580.600471402607	0
10	239	617.556769837513	0
10	242	627.787029116695	0
10	251	659.958738792625	0
10	257	677.472481062608	0
10	270	707.079421658916	0
10	283	727.849037380949	0
10	307	762.10861487089	0
10	310	766.476968032142	0.41238542041
10	313	768.516467533904	1.273322002256
10	320	780.714903710573	8.00451252477
10	327	788.459346680532	8.419177830502
10	328	791.09645590799	9.939718898563
10	341	802.498032932788	17.408604114032
10	344	805.139322119772	13.839232856001
10	345	808.33339717265	6.885822806676
10	352	840.063165194446	11.855418295761
10	364	872.233908686601	0
10	383	897.458853731429	0
10	390	905.489191089088	1.250015097671
10	397	910.107801359149	2.045057217608
10	414	930.827557754315	0
10	418	936.983423856897	0
10	436	975.863125736149	0
10	456	1024.781438977254	0
10	461	1031.249239247124	0
10	471	1057.375757117136	0
10	478	1071.984350674741	0
10	487	1096.020785080231	8.673377584614
10	492	1104.624125570428	0
10	504	1131.913251019904	0
10	509	1135.430596268884	0
10	518	1156.225977596079	0
10	525	1183.033137147023	0
10	540	1219.011678109553	34.611997346132
10	541	1220.913527617928	18.089826935244
10	557	1290.756257528264	0
10	562	1296.384878762265	4.611754303132
10	566	1303.250290103507	0
10	569	1311.742924506421	0
10	572	1320.761912468983	1.926918104275
10	580	1341.051374691128	0
10	585	1348.418308572707	0
10	592	1352.969785587635	0
10	605	1392.271716502791	0
10	618	1409.315250037989	14.063494243663
10	637	1435.211727180381	14.412889100001
10	648	1453.993499160686	21.67925856376
10	649	1465.800944179146	33.338607493651
10	650	1472.884447057592	33.361892230273
10	653	1475.072466266883	21.205596948726
10	702	1572.04492876378	0
10	709	1595.075952196652	0
10	727	1640.764755717333	0
10	733	1652.793029395307	0
10	742	1681.66743090527	0
10	764	1726.483585756461	0
10	777	1748.702706650456	17.484802723079
10	786	1773.684387104329	28.621994555762
10	787	1776.408567448565	14.720237674282
10	805	1834.890265730179	0
10	818	1861.258659594882	0
10	823	1866.528058580101	3.990913805954
10	844	1921.970189220149	0
10	851	1926.174871237724	0
10	856	1939.677308397534	0
10	861	1947.375216089019	0
10	880	1982.883816033365	0
10	883	1984.406101197694	0.421284886078
10	886	1995.455044816697	4.168207344646
10	895	2004.350670234359	7.596517578678
10	904	2033.441833009767	30.975704519879
10	909	2055.107241010381	0
10	916	2068.075372850136	0
10	921	2079.982876856313	4.350044653549
10	929	2104.666754849128	0
10	940	2127.889419142281	0
10	956	2158.870692950259	0
10	961	2167.354006824154	0
10	967	2188.12599603428	0
10	989	2251.243384943465	0
10	993	2258.364926004097	0
10	997	2269.872364346719	0
10	1013	2307.555450401146	0
10	1053	2408.063543574337	0
10	1056	2413.998618125214	4.483997458189
10	1065	2432.87022944519	8.462502944379
10	1066	2437.686949454638	5.323174288774
10	1084	2490.842751616098	0
11	1087	2500	0.0972
12	1087	2500	0.0436

