version 2
run experiments_hard_game_mode1-746-20230311-19:41:59-8483
attr configname experiments_hard_game_mode1
attr datetime 20230311-19:41:59
attr experiment experiments_hard_game_mode1
attr inifile omnetpp.ini
attr iterationvars "$0=8.5, $1=5, $2=0"
attr iterationvarsf 8.5,5,0-
attr measurement "$0=8.5, $1=5, $2=0"
attr network Network
attr processid 8483
attr repetition 26
attr replication #26
attr resultdir results
attr runnumber 746
attr seedset 26
param *.boss.arrival_mean 20
param *.boss.service_mean 8.5
param *.minion.arrival_mean 10
param *.minion.service_mean 5
param *.player.recover_rate_x 0
param **.minion.arrival_distribution 0
param **.minion.service_distribution 0
param **.boss.arrival_distribution 0
param **.boss.service_distribution 0

vector 0 Network.player minion_defeated_stat:vector ETV
attr source signal_minion_defeated
vector 1 Network.player minion_jobs_queue_number_stat:vector ETV
attr source signal_minion_jobs_queue_number
vector 2 Network.player minion_response_time_stat:vector ETV
attr source signal_minion_response_time
vector 3 Network.player minion_waiting_time_stat:vector ETV
attr source signal_minion_waiting_time
vector 4 Network.player minion_jobs_number_stat:vector ETV
attr source signal_minion_jobs_number
vector 5 Network.player boss_jobs_number_stat:vector ETV
attr source signal_boss_jobs_number
vector 6 Network.player boss_jobs_queue_number_stat:vector ETV
attr source signal_boss_jobs_queue_number
vector 7 Network.player minion_recovered_stat:vector ETV
attr source signal_minion_recovered
vector 8 Network.player boss_waiting_time_stat:vector ETV
attr source signal_boss_waiting_time
vector 9 Network.player boss_defeated_stat:vector ETV
attr source signal_boss_defeated
vector 10 Network.player boss_response_time_stat:vector ETV
attr source signal_boss_response_time
vector 11 Network.player minion_throughput:vector ETV
attr source signal_minion_throughput
vector 12 Network.player boss_throughput:vector ETV
attr source signal_boss_throughput
0	128	351.677923618104	31
0	129	352.13984203008	32
0	135	362.163158457226	33
0	138	363.932675661571	34
0	145	394.716000927802	35
0	148	399.087055686123	36
0	149	404.071403414523	37
0	150	408.160731252551	38
0	153	413.38650455474	39
0	174	451.69686575979	40
0	175	452.860672029648	41
0	176	453.811404331592	42
0	179	458.006731791072	43
0	180	458.477548822494	44
0	181	459.384783966501	45
0	184	466.387667384348	46
0	185	466.972974655845	47
0	186	471.516024229636	48
0	194	479.703583100645	49
0	195	481.244686087838	50
0	205	518.292447594654	51
0	232	554.608492782218	52
0	237	555.989700416343	53
0	240	557.511448996804	54
0	243	559.498960487063	55
0	244	563.620277107104	56
0	245	564.016928327987	57
0	248	566.446209718675	58
0	255	570.891149088621	59
0	256	573.829533194411	60
0	260	597.03308452354	61
0	286	657.09749230047	62
0	287	658.537357721361	63
0	288	662.996738570634	64
0	289	668.075195157292	65
0	294	676.070104160066	66
0	295	676.854839158177	67
0	310	706.095966922375	68
0	313	707.125094462117	69
0	316	713.792399334348	70
0	319	723.02994802596	71
0	320	728.522720938758	72
0	321	728.726729883477	73
0	325	740.991830495383	74
0	326	744.835008714219	75
0	333	759.351583081993	76
0	334	760.302678392623	77
0	337	764.945540806304	78
0	344	778.078077858659	79
0	347	784.945872828702	80
0	351	791.800023334034	81
0	395	865.978406033857	82
0	407	884.043450205321	83
0	408	886.786551145129	84
0	409	887.420045105299	85
0	410	895.331039556322	86
0	411	899.034403218882	87
0	412	900.428112494883	88
0	428	924.504263968208	89
0	431	933.209129624483	90
0	432	936.440424859315	91
0	433	937.295675029762	92
0	436	943.094915085284	93
0	441	948.469576927994	94
0	442	952.248517001384	95
0	443	952.730719787237	96
0	444	953.624077710073	97
0	447	968.454296635647	98
0	448	968.653820995705	99
0	454	977.053567583602	100
0	455	977.556954855648	101
0	456	982.026159350623	102
0	457	984.831574682099	103
0	465	992.90394825186	104
0	468	997.834829388198	105
0	469	1001.374230533914	106
0	484	1026.72977930961	107
0	495	1040.600427403075	108
0	498	1048.596379362235	109
0	499	1050.024121217687	110
0	503	1053.256067286992	111
0	504	1054.729848755379	112
0	505	1059.578231604156	113
0	506	1059.620826252918	114
0	507	1066.644262958609	115
0	508	1067.139864168638	116
0	514	1077.427009328133	117
0	515	1077.803428804977	118
0	516	1085.875465764644	119
0	521	1103.398849940294	120
0	522	1105.952811000547	121
0	525	1107.787043664646	122
0	528	1108.964629622043	123
0	529	1113.258026996519	124
0	533	1120.604865441499	125
0	534	1121.425760913063	126
0	535	1122.780197138757	127
0	544	1143.33133469308	128
0	548	1154.668669233623	129
0	560	1170.999555339188	130
0	561	1174.866674114185	131
0	567	1217.532245464389	132
0	568	1225.204904326117	133
0	569	1227.957058216906	134
0	570	1230.022384154016	135
0	571	1230.121354988235	136
0	576	1239.644547780567	137
0	577	1240.512360200508	138
0	580	1248.955413378239	139
0	581	1248.979045688684	140
0	582	1249.483659610127	141
0	587	1255.48550394479	142
0	590	1256.007714069799	143
0	593	1261.817175296764	144
0	594	1263.141625369697	145
0	597	1275.689305426225	146
0	600	1284.332830944331	147
0	606	1316.390441183483	148
0	609	1322.996279879756	149
0	612	1358.10048339422	150
0	615	1364.68246253032	151
0	618	1367.436559941444	152
0	621	1381.617994879374	153
0	638	1414.164166750541	154
0	639	1415.819885946423	155
0	756	1681.625086312314	156
0	763	1697.972365763237	157
0	764	1700.864519464021	158
0	767	1710.876698089574	159
0	768	1715.02455278597	160
0	769	1716.921060849356	161
0	778	1740.046662007676	162
0	779	1740.20330528285	163
0	780	1744.182037078866	164
0	821	1832.279815222132	165
0	822	1838.660041901132	166
0	832	1866.499049235775	167
0	833	1869.750983864282	168
0	834	1869.845668547632	169
0	835	1871.592939499928	170
0	840	1879.578801573713	171
0	841	1884.36216436026	172
0	842	1884.403383841383	173
0	843	1888.029348294498	174
0	848	1895.862589188089	175
0	945	2089.509456464202	176
0	946	2092.630559231752	177
0	947	2103.50669440615	178
0	948	2104.849948475627	179
0	949	2105.076681006861	180
0	950	2118.766030060238	181
0	962	2136.590588119871	182
0	963	2139.824962009508	183
0	972	2178.35813294985	184
0	977	2186.407088645071	185
0	978	2188.70579758792	186
0	981	2191.924781669068	187
0	985	2195.461000714407	188
0	986	2203.526345613402	189
0	987	2203.838513333857	190
0	988	2212.918235978639	191
0	993	2219.805561356858	192
0	1001	2229.802605655753	193
0	1002	2230.036817867149	194
0	1007	2243.848331990662	195
0	1008	2248.482728756225	196
0	1009	2251.303058465996	197
0	1010	2255.892481150741	198
0	1013	2268.531530028387	199
0	1019	2297.142869570216	200
0	1020	2298.305671324901	201
0	1024	2309.928488344926	202
0	1025	2310.543490194298	203
0	1026	2311.605136689662	204
0	1037	2338.781820483215	205
0	1038	2339.197859526762	206
0	1039	2342.825642602345	207
0	1040	2343.10685840295	208
0	1043	2350.282564331547	209
0	1044	2350.863263146625	210
0	1048	2355.951351514704	211
0	1049	2356.343361086305	212
0	1052	2358.486553595138	213
0	1055	2367.246813958271	214
0	1056	2374.611233544789	215
0	1057	2378.420175469877	216
0	1058	2379.910903740751	217
0	1061	2381.570378531991	218
0	1062	2383.021206519069	219
0	1063	2385.303469046363	220
0	1066	2398.631337111932	221
0	1067	2405.824096124705	222
0	1068	2407.029213176964	223
0	1071	2409.410455414011	224
0	1072	2410.090071450469	225
0	1082	2428.553516264655	226
0	1087	2453.068119979101	227
0	1088	2454.372621874365	228
0	1106	2490.445151209925	229
0	1107	2494.809165099814	230
1	128	351.677923618104	1
1	129	352.13984203008	0
1	131	353.474320604805	0
1	135	362.163158457226	0
1	137	362.221650059944	0
1	138	363.932675661571	0
1	140	388.918922681755	0
1	142	391.684997140054	1
1	144	393.513447054423	2
1	145	394.716000927802	2
1	147	396.818932124983	2
1	148	399.087055686123	2
1	149	404.071403414523	1
1	150	408.160731252551	0
1	152	411.073237962121	0
1	153	413.38650455474	0
1	155	418.275100492741	0
1	157	419.589888907062	1
1	159	420.361511980791	2
1	161	431.413467444418	3
1	163	433.346302192891	4
1	170	445.432556060841	5
1	172	446.898056891252	6
1	174	451.69686575979	6
1	175	452.860672029648	5
1	176	453.811404331592	4
1	178	457.624761079718	4
1	179	458.006731791072	4
1	180	458.477548822494	3
1	181	459.384783966501	2
1	183	462.992411790454	2
1	184	466.387667384348	2
1	185	466.972974655845	1
1	186	471.516024229636	0
1	191	477.732048514976	0
1	193	479.565660162456	1
1	194	479.703583100645	1
1	195	481.244686087838	0
1	200	506.907177080105	0
1	202	508.184710933496	1
1	204	513.794651262729	2
1	205	518.292447594654	2
1	207	522.6230811356	2
1	209	525.703729907631	3
1	211	526.760700204932	4
1	213	529.153394214765	5
1	218	536.576731663828	6
1	222	538.986210414381	7
1	224	542.139596743865	8
1	227	549.542459884891	9
1	229	551.855074966976	10
1	231	552.96415021486	11
1	232	554.608492782218	11
1	234	555.292798021475	11
1	236	555.530199892277	12
1	237	555.989700416343	12
1	239	557.386578317167	12
1	240	557.511448996804	12
1	242	558.581549090794	12
1	243	559.498960487063	12
1	244	563.620277107104	11
1	245	564.016928327987	10
1	247	564.674090514164	10
1	248	566.446209718675	10
1	250	566.996941240385	10
1	252	567.198732359307	11
1	254	567.806075160641	12
1	255	570.891149088621	12
1	256	573.829533194411	11
1	260	597.03308452354	10
1	264	599.368227092208	10
1	269	609.617173713877	11
1	271	618.765200043476	12
1	273	628.111450699737	13
1	281	643.978860644792	14
1	286	657.09749230047	14
1	287	658.537357721361	13
1	288	662.996738570634	12
1	289	668.075195157292	11
1	291	670.76103880654	11
1	293	673.781192419499	12
1	294	676.070104160066	12
1	295	676.854839158177	11
1	297	677.024116712335	11
1	301	680.55874114572	12
1	305	690.106648260074	13
1	308	695.833009998525	14
1	310	706.095966922375	14
1	312	706.460375203675	14
1	313	707.125094462117	14
1	315	710.189187192976	14
1	316	713.792399334348	14
1	318	714.031277994825	14
1	319	723.02994802596	14
1	320	728.522720938758	13
1	321	728.726729883477	12
1	325	740.991830495383	11
1	326	744.835008714219	10
1	328	746.56073465194	10
1	330	747.335346081218	11
1	332	752.507465201618	12
1	333	759.351583081993	12
1	334	760.302678392623	11
1	336	764.711850508577	11
1	337	764.945540806304	11
1	344	778.078077858659	10
1	346	779.392366829766	10
1	347	784.945872828702	10
1	351	791.800023334034	9
1	358	798.727175529999	9
1	366	805.745986193468	10
1	369	809.376814129608	11
1	371	814.345620529679	12
1	373	816.943428381458	13
1	375	820.20186011876	14
1	378	823.652287563037	15
1	380	823.852341833642	16
1	383	838.965598310374	17
1	387	849.665848546355	18
1	390	855.20014544701	19
1	395	865.978406033857	19
1	399	874.938272861615	19
1	401	875.642170742283	20
1	403	878.916392601563	21
1	405	880.194743129377	22
1	407	884.043450205321	22
1	408	886.786551145129	21
1	409	887.420045105299	20
1	410	895.331039556322	19
1	411	899.034403218882	18
1	412	900.428112494883	17
1	416	908.302664689417	17
1	418	912.880118731235	18
1	420	914.154013521909	19
1	422	918.221453502094	20
1	424	920.466740367527	21
1	426	921.269617257342	22
1	428	924.504263968208	22
1	430	928.270388860147	22
1	431	933.209129624483	22
1	432	936.440424859315	21
1	433	937.295675029762	20
1	435	940.769429665337	20
1	436	943.094915085284	20
1	438	946.937388544451	20
1	440	948.378059082212	21
1	441	948.469576927994	21
1	442	952.248517001384	20
1	443	952.730719787237	19
1	444	953.624077710073	18
1	446	961.276425471982	18
1	447	968.454296635647	18
1	448	968.653820995705	17
1	450	968.857171976466	17
1	454	977.053567583602	17
1	455	977.556954855648	16
1	456	982.026159350623	15
1	457	984.831574682099	14
1	459	985.637922849169	14
1	464	990.293399767415	15
1	465	992.90394825186	15
1	467	994.830844296818	15
1	468	997.834829388198	15
1	469	1001.374230533914	14
1	473	1006.809630873742	14
1	475	1008.576925158246	15
1	481	1025.702611347249	16
1	483	1025.859092540039	17
1	484	1026.72977930961	17
1	488	1032.037129145877	17
1	494	1039.660424487586	18
1	495	1040.600427403075	18
1	497	1044.334527619919	18
1	498	1048.596379362235	18
1	499	1050.024121217687	17
1	503	1053.256067286992	16
1	504	1054.729848755379	15
1	505	1059.578231604156	14
1	506	1059.620826252918	13
1	507	1066.644262958609	12
1	508	1067.139864168638	11
1	512	1069.794077147459	11
1	514	1077.427009328133	11
1	515	1077.803428804977	10
1	516	1085.875465764644	9
1	518	1092.429440543177	9
1	520	1099.606014265835	10
1	521	1103.398849940294	10
1	522	1105.952811000547	9
1	524	1106.988560342246	9
1	525	1107.787043664646	9
1	527	1108.012979850404	9
1	528	1108.964629622043	9
1	529	1113.258026996519	8
1	533	1120.604865441499	7
1	534	1121.425760913063	6
1	535	1122.780197138757	5
1	542	1136.140998633732	5
1	544	1143.33133469308	5
1	548	1154.668669233623	4
1	552	1157.550368266195	4
1	554	1157.611214525958	5
1	557	1162.88480480778	6
1	559	1166.784023230992	7
1	560	1170.999555339188	7
1	561	1174.866674114185	6
1	566	1201.198363559256	6
1	567	1217.532245464389	6
1	568	1225.204904326117	5
1	569	1227.957058216906	4
1	570	1230.022384154016	3
1	571	1230.121354988235	2
1	573	1233.994475151404	2
1	575	1234.638255782988	3
1	576	1239.644547780567	3
1	577	1240.512360200508	2
1	579	1245.207501304281	2
1	580	1248.955413378239	2
1	581	1248.979045688684	1
1	582	1249.483659610127	0
1	584	1252.287471471351	0
1	586	1252.958309372731	1
1	587	1255.48550394479	1
1	589	1255.544300550687	1
1	590	1256.007714069799	1
1	592	1257.702205050436	1
1	593	1261.817175296764	1
1	594	1263.141625369697	0
1	596	1273.575107147716	0
1	597	1275.689305426225	0
1	599	1282.000157476293	0
1	600	1284.332830944331	0
1	605	1308.042757533478	0
1	606	1316.390441183483	0
1	608	1322.442427890273	0
1	609	1322.996279879756	0
1	611	1354.450041299215	0
1	612	1358.10048339422	0
1	614	1359.808667138904	0
1	615	1364.68246253032	0
1	617	1365.567060418044	0
1	618	1367.436559941444	0
1	620	1379.527834508314	0
1	621	1381.617994879374	0
1	623	1388.343387569061	0
1	625	1391.530722183322	1
1	627	1395.987648763864	2
1	634	1405.73259010185	3
1	637	1407.59546398581	4
1	638	1414.164166750541	4
1	639	1415.819885946423	3
1	641	1421.052419772988	3
1	651	1465.665298626496	4
1	660	1483.14063802135	5
1	664	1486.981162243963	6
1	666	1490.211591955959	7
1	668	1492.475700231023	8
1	670	1493.600893495466	9
1	672	1496.620248682547	10
1	675	1499.251009617682	11
1	677	1501.190745310615	12
1	682	1503.555027487292	13
1	684	1503.84271439289	14
1	686	1507.41017972299	15
1	691	1530.291608934717	16
1	693	1530.384925280363	17
1	697	1537.457528739665	18
1	705	1553.162040759077	19
1	709	1570.137080280809	20
1	712	1573.274776966163	21
1	715	1580.777479436213	22
1	728	1617.45004086707	23
1	730	1618.19945656825	24
1	735	1639.564752723533	25
1	742	1659.579680344184	26
1	744	1661.084268464403	27
1	746	1661.820909129658	28
1	748	1664.226597667918	29
1	751	1670.65600116995	30
1	756	1681.625086312314	30
1	758	1692.733021911401	30
1	760	1693.122160938568	31
1	762	1696.792034829513	32
1	763	1697.972365763237	32
1	764	1700.864519464021	31
1	766	1706.576033597084	31
1	767	1710.876698089574	31
1	768	1715.02455278597	30
1	769	1716.921060849356	29
1	777	1737.584751462818	29
1	778	1740.046662007676	29
1	779	1740.20330528285	28
1	780	1744.182037078866	27
1	790	1762.88645240741	27
1	792	1764.52628129551	28
1	794	1771.345773685681	29
1	798	1782.840199138905	30
1	801	1787.099373712175	31
1	803	1790.474069399335	32
1	805	1798.639424257225	33
1	811	1811.071683779677	34
1	814	1815.698051184562	35
1	816	1818.193629922128	36
1	818	1819.927956121786	37
1	821	1832.279815222132	37
1	822	1838.660041901132	36
1	826	1841.53335381805	36
1	828	1848.825722193123	37
1	830	1851.803641447519	38
1	832	1866.499049235775	38
1	833	1869.750983864282	37
1	834	1869.845668547632	36
1	835	1871.592939499928	35
1	837	1871.596090993364	35
1	839	1873.039811236144	36
1	840	1879.578801573713	36
1	841	1884.36216436026	35
1	842	1884.403383841383	34
1	843	1888.029348294498	33
1	845	1888.636690117927	33
1	847	1889.72021430197	34
1	848	1895.862589188089	34
1	856	1908.068432641432	34
1	860	1917.112298752113	35
1	870	1928.548868381647	36
1	872	1943.202172054068	37
1	874	1943.853450068646	38
1	876	1947.491857768771	39
1	879	1952.257540051665	40
1	881	1953.894543985779	41
1	886	1967.391884018465	42
1	888	1968.953078841886	43
1	892	1975.753052079742	44
1	896	1980.675212583733	45
1	898	1984.434920620764	46
1	900	1988.17588147654	47
1	906	1997.039189549181	48
1	909	2006.675050578551	49
1	912	2013.603734137001	50
1	914	2013.712213650688	51
1	919	2016.571851117598	52
1	921	2017.433573627472	53
1	923	2021.377678270243	54
1	927	2031.751956071526	55
1	932	2052.242150349561	56
1	937	2060.513224836688	57
1	939	2061.071047269637	58
1	942	2085.179997703273	59
1	944	2087.200259857916	60
1	945	2089.509456464202	60
1	946	2092.630559231752	59
1	947	2103.50669440615	58
1	948	2104.849948475627	57
1	949	2105.076681006861	56
1	950	2118.766030060238	55
1	957	2124.846046838009	55
1	962	2136.590588119871	55
1	963	2139.824962009508	54
1	965	2147.294971925394	54
1	972	2178.35813294985	54
1	974	2181.080498134622	54
1	976	2182.839138302258	55
1	977	2186.407088645071	55
1	978	2188.70579758792	54
1	980	2191.644797750578	54
1	981	2191.924781669068	54
1	985	2195.461000714407	53
1	986	2203.526345613402	52
1	987	2203.838513333857	51
1	988	2212.918235978639	50
1	990	2213.834378504324	50
1	992	2216.879486632086	51
1	993	2219.805561356858	51
1	997	2221.076484284912	51
1	1000	2225.648999783634	52
1	1001	2229.802605655753	52
1	1002	2230.036817867149	51
1	1004	2236.923596929798	51
1	1006	2243.644770406919	52
1	1007	2243.848331990662	52
1	1008	2248.482728756225	51
1	1009	2251.303058465996	50
1	1010	2255.892481150741	49
1	1012	2265.943846688117	49
1	1013	2268.531530028387	49
1	1017	2278.84125004028	49
1	1019	2297.142869570216	49
1	1020	2298.305671324901	48
1	1024	2309.928488344926	47
1	1025	2310.543490194298	46
1	1026	2311.605136689662	45
1	1034	2325.20156429716	45
1	1036	2335.233532933645	46
1	1037	2338.781820483215	46
1	1038	2339.197859526762	45
1	1039	2342.825642602345	44
1	1040	2343.10685840295	43
1	1042	2345.440787043552	43
1	1043	2350.282564331547	43
1	1044	2350.863263146625	42
1	1048	2355.951351514704	41
1	1049	2356.343361086305	40
1	1051	2357.58083537246	40
1	1052	2358.486553595138	40
1	1054	2362.672863402485	40
1	1055	2367.246813958271	40
1	1056	2374.611233544789	39
1	1057	2378.420175469877	38
1	1058	2379.910903740751	37
1	1060	2380.495826501538	37
1	1061	2381.570378531991	37
1	1062	2383.021206519069	36
1	1063	2385.303469046363	35
1	1065	2387.22080609807	35
1	1066	2398.631337111932	35
1	1067	2405.824096124705	34
1	1068	2407.029213176964	33
1	1070	2408.542308582601	33
1	1071	2409.410455414011	33
1	1072	2410.090071450469	32
1	1074	2410.226325649505	32
1	1079	2413.640233561452	33
1	1081	2421.961824707125	34
1	1082	2428.553516264655	34
1	1084	2439.826725366544	34
1	1086	2448.966925486014	35
1	1087	2453.068119979101	35
1	1088	2454.372621874365	34
1	1092	2457.299839417518	34
1	1094	2461.289238194113	35
1	1101	2473.170198392813	36
1	1104	2481.059061575314	37
1	1106	2490.445151209925	37
1	1107	2494.809165099814	36
2	128	351.677923618104	16.759032644398
2	129	352.13984203008	4.079301852984
2	135	362.163158457226	1.298622629015
2	138	363.932675661571	1.711025601627
2	145	394.716000927802	5.797078246047
2	148	399.087055686123	7.402058546069
2	149	404.071403414523	10.5579563601
2	150	408.160731252551	11.341799127568
2	153	413.38650455474	2.313266592619
2	174	451.69686575979	32.106976852728
2	175	452.860672029648	32.499160048857
2	176	453.811404331592	22.397936887174
2	179	458.006731791072	24.660429598181
2	180	458.477548822494	24.285056828861
2	181	459.384783966501	13.95222790566
2	184	466.387667384348	19.489610493096
2	185	466.972974655845	9.348213576127
2	186	471.516024229636	8.523612439182
2	194	479.703583100645	1.971534585669
2	195	481.244686087838	1.679025925382
2	205	518.292447594654	11.385270514549
2	232	554.608492782218	31.985411646618
2	237	555.989700416343	30.285970508712
2	240	557.511448996804	30.750748791872
2	243	559.498960487063	30.345566272298
2	244	563.620277107104	29.957286386808
2	245	564.016928327987	27.440196664159
2	248	566.446209718675	28.815310864969
2	255	570.891149088621	31.90493867424
2	256	573.829533194411	31.689936450546
2	260	597.03308452354	45.178009556564
2	286	657.09749230047	101.56729240819
2	287	658.537357721361	101.15077940419
2	288	662.996738570634	104.41518947984
2	289	668.075195157292	103.40110464313
2	294	676.070104160066	109.07316291968
2	295	676.854839158177	109.65610679887
2	310	706.095966922375	129.21044675709
2	313	707.125094462117	107.84022467894
2	316	713.792399334348	114.42417224214
2	319	723.02994802596	115.05917637153
2	320	728.522720938758	118.90554722488
2	321	728.726729883477	109.96152984
2	325	740.991830495383	97.012969850591
2	326	744.835008714219	74.073969907679
2	333	759.351583081993	85.570390662494
2	334	760.302678392623	83.278561680288
2	337	764.945540806304	85.205387148501
2	344	778.078077858659	87.971429598585
2	347	784.945872828702	89.112862830177
2	351	791.800023334034	81.610836141058
2	395	865.978406033857	118.64305995264
2	407	884.043450205321	119.33159969674
2	408	886.786551145129	121.33352837124
2	409	887.420045105299	108.02767827553
2	410	895.331039556322	106.35773318593
2	411	899.034403218882	107.10391481565
2	412	900.428112494883	105.27247956849
2	428	924.504263968208	118.75827777474
2	431	933.209129624483	123.83231549488
2	432	936.440424859315	122.09480432964
2	433	937.295675029762	120.3522466483
2	436	943.094915085284	122.89305496652
2	441	948.469576927994	124.81728936496
2	442	952.248517001384	128.39617516774
2	443	952.730719787237	113.76512147686
2	444	953.624077710073	103.95822916372
2	447	968.454296635647	113.25415118864
2	448	968.653820995705	104.9017166678
2	454	977.053567583602	102.11529472199
2	455	977.556954855648	101.91478411337
2	456	982.026159350623	103.10976674906
2	457	984.831574682099	104.63683155272
2	465	992.90394825186	84.601283562443
2	468	997.834829388198	84.954710656963
2	469	1001.374230533914	87.220217012005
2	484	1026.72977930961	106.26303894208
2	495	1040.600427403075	99.830997737738
2	498	1048.596379362235	101.65899081778
2	499	1050.024121217687	101.64606213547
2	503	1053.256067286992	84.398895310526
2	504	1054.729848755379	79.954178742739
2	505	1059.578231604156	73.940308754987
2	506	1059.620826252918	71.583540881529
2	507	1066.644262958609	76.350863191194
2	508	1067.139864168638	72.30901987182
2	514	1077.427009328133	70.617378454391
2	515	1077.803428804977	69.226503646731
2	516	1085.875465764644	60.172854417395
2	521	1103.398849940294	77.539757400255
2	522	1105.952811000547	78.57187030457
2	525	1107.787043664646	75.749914518769
2	528	1108.964629622043	70.7287921527
2	529	1113.258026996519	73.597602508933
2	533	1120.604865441499	68.750210844892
2	534	1121.425760913063	52.968436554021
2	535	1122.780197138757	52.986119991298
2	544	1143.33133469308	36.342774350834
2	548	1154.668669233623	39.55408821122
2	560	1170.999555339188	39.411098582671
2	561	1174.866674114185	38.725675480453
2	567	1217.532245464389	61.876380047413
2	568	1225.204904326117	67.654536059922
2	569	1227.957058216906	70.345843690948
2	570	1230.022384154016	67.137579346236
2	571	1230.121354988235	63.337331757243
2	576	1239.644547780567	60.164389256974
2	577	1240.512360200508	39.313996641252
2	580	1248.955413378239	14.960938226835
2	581	1248.979045688684	14.340789905696
2	582	1249.483659610127	4.276158305846
2	587	1255.48550394479	3.198032473439
2	590	1256.007714069799	3.049404697068
2	593	1261.817175296764	6.272874746077
2	594	1263.141625369697	5.439420319261
2	597	1275.689305426225	2.114198278509
2	600	1284.332830944331	2.332673468038
2	606	1316.390441183483	8.347683650005
2	609	1322.996279879756	0.553851989483
2	612	1358.10048339422	3.650442095005
2	615	1364.68246253032	4.873795391416
2	618	1367.436559941444	1.8694995234
2	621	1381.617994879374	2.09016037106
2	638	1414.164166750541	18.176517986677
2	639	1415.819885946423	18.616071183849
2	756	1681.625086312314	275.89249621046
2	763	1697.972365763237	290.37690177743
2	764	1700.864519464021	279.81209969103
2	767	1710.876698089574	288.7020303584
2	768	1715.02455278597	249.35925415947
2	769	1716.921060849356	233.78042282801
2	778	1740.046662007676	249.83507005172
2	779	1740.20330528285	247.72760505183
2	780	1744.182037078866	250.5811435834
2	821	1832.279815222132	333.02880560445
2	822	1838.660041901132	337.46929659052
2	832	1866.499049235775	362.65633484288
2	833	1869.750983864282	362.34080414129
2	834	1869.845668547632	339.55405961292
2	835	1871.592939499928	341.20801421956
2	840	1879.578801573713	342.12127283405
2	841	1884.36216436026	331.20012360118
2	842	1884.403383841383	314.26630356057
2	843	1888.029348294498	314.75457132833
2	848	1895.862589188089	315.08510975188
2	945	2089.509456464202	429.92977612002
2	946	2092.630559231752	431.54629076735
2	947	2103.50669440615	441.68578527649
2	948	2104.849948475627	440.62335080771
2	949	2105.076681006861	434.42067983691
2	950	2118.766030060238	426.03300814884
2	962	2136.590588119871	439.79855329036
2	963	2139.824962009508	433.24892841242
2	972	2178.35813294985	440.77338148703
2	977	2186.407088645071	439.51237001103
2	978	2188.70579758792	425.81934518051
2	981	2191.924781669068	427.39850037356
2	985	2195.461000714407	412.6208015755
2	986	2203.526345613402	416.42697190123
2	987	2203.838513333857	413.36444393452
2	988	2212.918235978639	414.27881172141
2	993	2219.805561356858	408.73387757718
2	1001	2229.802605655753	411.60897573363
2	1002	2230.036817867149	410.10886174536
2	1007	2243.848331990662	403.61986008162
2	1008	2248.482728756225	406.94937493817
2	1009	2251.303058465996	402.47733627287
2	1010	2255.892481150741	404.08883970322
2	1013	2268.531530028387	396.93543903502
2	1019	2297.142869570216	408.50617945229
2	1020	2298.305671324901	408.58545702293
2	1024	2309.928488344926	401.86005570349
2	1025	2310.543490194298	393.43119144218
2	1026	2311.605136689662	383.05626830801
2	1037	2338.781820483215	391.28996271444
2	1038	2339.197859526762	386.9403194751
2	1039	2342.825642602345	388.93109861657
2	1040	2343.10685840295	377.63383398716
2	1043	2350.282564331547	382.89068031308
2	1044	2350.863263146625	381.91018430474
2	1048	2355.951351514704	375.27613893097
2	1049	2356.343361086305	371.90844046554
2	1052	2358.486553595138	370.3106721186
2	1055	2367.246813958271	370.20762440909
2	1056	2374.611233544789	367.93618296624
2	1057	2378.420175469877	364.81644133288
2	1058	2379.910903740751	366.19869009006
2	1061	2381.570378531991	364.99852741439
2	1062	2383.021206519069	365.5876328916
2	1063	2385.303469046363	363.92579077612
2	1066	2398.631337111932	366.87938104041
2	1067	2405.824096124705	353.58194577514
2	1068	2407.029213176964	350.17660834039
2	1071	2409.410455414011	348.89723057732
2	1072	2410.090071450469	349.01902418083
2	1082	2428.553516264655	341.35325640674
2	1087	2453.068119979101	333.99034008513
2	1088	2454.372621874365	329.52657503636
2	1106	2490.445151209925	309.3646530753
2	1107	2494.809165099814	311.97002679756
3	128	351.677923618104	3.617383441008
3	131	353.474320604805	0
3	134	361.012696986607	0.148161158396
3	137	362.221650059944	0
3	140	388.918922681755	0
3	145	394.716000927802	3.031003787748
3	148	399.087055686123	5.5736086317
3	149	404.071403414523	7.25247128954
3	152	411.073237962121	0
3	155	418.275100492741	0
3	173	447.856342511146	28.266453604084
3	174	451.69686575979	31.335353778999
3	175	452.860672029648	21.44720458523
3	176	453.811404331592	20.465102138701
3	179	458.006731791072	23.814239797439
3	180	458.477548822494	13.044992761653
3	181	459.384783966501	12.486727075249
3	184	466.387667384348	8.76290630463
3	185	466.972974655845	3.980562865391
3	191	477.732048514976	0
3	194	479.703583100645	0.137922938189
3	200	506.907177080105	0
3	205	518.292447594654	10.107736661158
3	216	536.08497787783	22.290326615101
3	225	547.65217779329	25.02909665769
3	232	554.608492782218	28.904762874587
3	237	555.989700416343	29.229000211411
3	240	557.511448996804	28.358054782039
3	243	559.498960487063	25.835969766767
3	244	563.620277107104	27.043545443276
3	245	564.016928327987	26.386029474281
3	248	566.446209718675	27.459999304294
3	255	570.891149088621	28.751552344756
3	256	573.829533194411	24.28707330952
3	259	584.669164929771	32.814089962795
3	260	597.03308452354	44.06893430868
3	265	606.005977212681	50.713179191206
3	285	652.805189124096	97.274989231819
3	286	657.09749230047	99.710913983303
3	287	658.537357721361	99.955808630567
3	288	662.996738570634	98.32264805647
3	289	668.075195157292	101.07825391691
3	294	676.070104160066	108.87137180076
3	295	676.854839158177	109.04876399754
3	309	701.224064661883	124.33854449659
3	310	706.095966922375	106.81109713919
3	313	707.125094462117	107.75686736991
3	316	713.792399334348	105.82162767991
3	319	723.02994802596	113.41277431208
3	320	728.522720938758	109.75752089528
3	321	728.726729883477	100.61527918374
3	324	731.555702310813	87.576841666021
3	325	740.991830495383	70.230791688843
3	326	744.835008714219	71.05381629472
3	333	759.351583081993	82.327466369658
3	334	760.302678392623	80.56252473482
3	337	764.945540806304	84.386799660584
3	343	772.446952520142	82.340304260068
3	344	778.078077858659	82.245067860134
3	347	784.945872828702	78.485497625027
3	350	790.905213588406	80.71602639543
3	351	791.800023334034	77.768745339209
3	354	793.927593412633	64.243342247894
3	391	860.955796364087	114.39506171215
3	394	864.960347774696	117.62500169348
3	395	865.978406033857	113.47094083224
3	406	883.564421005118	118.85257049654
3	407	884.043450205321	118.59042743143
3	408	886.786551145129	107.39418431536
3	409	887.420045105299	98.446738734905
3	410	895.331039556322	103.40055115309
3	411	899.034403218882	103.87877029249
3	412	900.428112494883	101.70093696488
3	427	923.537447732763	117.79146153929
3	428	924.504263968208	115.1274498386
3	431	933.209129624483	118.8635090948
3	432	936.440424859315	119.49699647786
3	433	937.295675029762	117.093814911
3	436	943.094915085284	119.44262752225
3	441	948.469576927994	124.61723509435
3	442	952.248517001384	113.28291869101
3	443	952.730719787237	103.06487124088
3	444	953.624077710073	98.423932263063
3	447	968.454296635647	104.70219230774
3	448	968.653820995705	96.383014627487
3	453	975.120399700322	100.18212683871
3	454	977.053567583602	101.41139684132
3	455	977.556954855648	98.640562254085
3	456	982.026159350623	101.83141622125
3	457	984.831574682099	83.419594630026
3	462	988.833994750667	80.53133006125
3	465	992.90394825186	80.023829520625
3	468	997.834829388198	83.680815866289
3	469	1001.374230533914	83.15277703182
3	479	1021.490014408804	101.02327404128
3	484	1026.72977930961	105.46016205227
3	489	1036.144798672666	107.87440981252
3	492	1038.96015388977	98.190724224433
3	495	1040.600427403075	93.663038858624
3	498	1048.596379362235	100.21832028002
3	499	1050.024121217687	88.747695745705
3	502	1052.741714371661	83.884542395195
3	503	1053.256067286992	78.480397274352
3	504	1054.729848755379	69.09192590621
3	505	1059.578231604156	71.540946232767
3	506	1059.620826252918	69.327426485503
3	507	1066.644262958609	71.813418661791
3	508	1067.139864168638	60.546664173854
3	513	1073.702675229575	66.893044355833
3	514	1077.427009328133	68.850084169887
3	515	1077.803428804977	52.100817457728
3	516	1085.875465764644	60.016373224605
3	521	1103.398849940294	76.017909244317
3	522	1105.952811000547	73.91568185467
3	525	1107.787043664646	69.551206195303
3	528	1108.964629622043	69.304205134457
3	529	1113.258026996519	68.9234993766
3	532	1118.466752612658	66.612098016051
3	533	1120.604865441499	52.147541082457
3	534	1121.425760913063	51.631683765604
3	535	1122.780197138757	30.35075659558
3	538	1129.182550724628	29.576536458793
3	543	1136.439258918903	29.450698576657
3	544	1143.33133469308	35.318354842676
3	547	1151.698534724409	36.583953702006
3	548	1154.668669233623	29.61844506876
3	555	1158.663114247338	27.074657490821
3	560	1170.999555339188	34.858556705456
3	561	1174.866674114185	28.869383921356
3	564	1184.939739576933	29.283874159957
3	567	1217.532245464389	59.981877198194
3	568	1225.204904326117	67.593689800159
3	569	1227.957058216906	65.072253409126
3	570	1230.022384154016	63.238360923024
3	571	1230.121354988235	50.641196464642
3	576	1239.644547780567	38.446184221311
3	577	1240.512360200508	6.517885049104
3	580	1248.955413378239	14.317157595251
3	581	1248.979045688684	3.771544384403
3	584	1252.287471471351	0
3	587	1255.48550394479	2.527194572059
3	590	1256.007714069799	0.463413519112
3	593	1261.817175296764	4.114970246328
3	596	1273.575107147716	0
3	599	1282.000157476293	0
3	605	1308.042757533478	0
3	608	1322.442427890273	0
3	611	1354.450041299215	0
3	614	1359.808667138904	0
3	617	1365.567060418044	0
3	620	1379.527834508314	0
3	623	1388.343387569061	0
3	630	1399.739943015873	8.209220832551
3	635	1406.792784988094	10.80513622423
3	638	1414.164166750541	16.960351987967
3	639	1415.819885946423	12.348098525507
3	755	1678.642789946563	272.91019984471
3	756	1681.625086312314	274.0296223265
3	763	1697.972365763237	276.91994599025
3	764	1700.864519464021	278.68985173284
3	767	1710.876698089574	245.21139946308
3	768	1715.02455278597	231.88391476462
3	769	1716.921060849356	229.93989860539
3	775	1736.9208357741	246.70924381814
3	778	1740.046662007676	247.57096177665
3	779	1740.20330528285	246.60241178738
3	780	1744.182037078866	247.56178839632
3	820	1829.076933269388	329.82592365171
3	821	1832.279815222132	331.08906991152
3	822	1838.660041901132	335.10501441384
3	831	1863.563543246491	359.7208288536
3	832	1866.499049235775	359.08886951278
3	833	1869.750983864282	339.45937492957
3	834	1869.845668547632	339.46074326727
3	835	1871.592939499928	334.13541076026
3	840	1879.578801573713	326.41676081464
3	841	1884.36216436026	314.22508407945
3	842	1884.403383841383	311.12860687522
3	843	1888.029348294498	307.25186885828
3	848	1895.862589188089	278.41254832102
3	882	1961.695810097017	343.49635352877
3	933	2054.092058568815	414.52730584528
3	940	2080.819302821223	421.23962247704
3	945	2089.509456464202	428.4251879998
3	946	2092.630559231752	430.80965010209
3	947	2103.50669440615	439.28009673823
3	948	2104.849948475627	434.19394730568
3	949	2105.076681006861	412.34365909546
3	950	2118.766030060238	425.64386912167
3	961	2133.352888953636	436.56085412412
3	962	2136.590588119871	430.01455452279
3	963	2139.824962009508	414.65139245999
3	971	2172.948045017433	435.36329355461
3	972	2178.35813294985	431.46341431581
3	977	2186.407088645071	423.52063623766
3	978	2188.70579758792	424.17951629241
3	981	2191.924781669068	420.57900798339
3	984	2194.480045707669	411.63984656876
3	985	2195.461000714407	408.36162700223
3	986	2203.526345613402	413.05227621407
3	987	2203.838513333857	405.19908907663
3	988	2212.918235978639	401.84655219896
3	993	2219.805561356858	404.1075101723
3	998	2225.27055557809	407.07692565596
3	1001	2229.802605655753	409.87464953397
3	1002	2230.036817867149	389.8083459581
3	1007	2243.848331990662	402.31497817261
3	1008	2248.482728756225	399.6570065631
3	1009	2251.303058465996	399.49941701848
3	1010	2255.892481150741	384.29639015738
3	1013	2268.531530028387	395.49171879224
3	1018	2283.139816932184	394.50312681426
3	1019	2297.142869570216	407.42265526825
3	1020	2298.305671324901	401.91780004642
3	1023	2302.35636913002	394.28793648859
3	1024	2309.928488344926	392.81618959281
3	1025	2310.543490194298	381.99462181265
3	1026	2311.605136689662	368.40296463559
3	1029	2317.936599153426	374.08314908478
3	1032	2324.75808465677	377.266226888
3	1037	2338.781820483215	386.52428043155
3	1038	2339.197859526762	385.30331554098
3	1039	2342.825642602345	377.35261818655
3	1040	2343.10685840295	375.71497438449
3	1043	2350.282564331547	381.32948548966
3	1044	2350.863263146625	375.11021106688
3	1047	2353.482826487073	372.80761390334
3	1048	2355.951351514704	371.51643089394
3	1049	2356.343361086305	368.16747960976
3	1052	2358.486553595138	361.44736404596
3	1055	2367.246813958271	360.57176337972
3	1056	2374.611233544789	361.00749940779
3	1057	2378.420175469877	364.70796181919
3	1058	2379.910903740751	363.33905262315
3	1061	2381.570378531991	364.13680490452
3	1062	2383.021206519069	361.64352824883
3	1063	2385.303469046363	353.55151297484
3	1066	2398.631337111932	346.38918676237
3	1067	2405.824096124705	348.97149128814
3	1068	2407.029213176964	346.51598834028
3	1071	2409.410455414011	348.33940814437
3	1072	2410.090071450469	324.9100737472
3	1077	2411.721828343842	324.52156848593
3	1082	2428.553516264655	309.47573637069
3	1087	2453.068119979101	328.22207314109
3	1088	2454.372621874365	307.07764994897
3	1095	2461.96886340464	313.88840770774
3	1105	2488.794548696196	307.71405056157
3	1106	2490.445151209925	307.60601290767
3	1107	2494.809165099814	303.16436734924
3	1110	2498.278366203351	304.58920152842
4	131	353.474320604805	1
4	137	362.221650059944	1
4	140	388.918922681755	1
4	142	391.684997140054	2
4	144	393.513447054423	3
4	147	396.818932124983	3
4	152	411.073237962121	1
4	155	418.275100492741	1
4	157	419.589888907062	2
4	159	420.361511980791	3
4	161	431.413467444418	4
4	163	433.346302192891	5
4	170	445.432556060841	6
4	172	446.898056891252	7
4	178	457.624761079718	5
4	183	462.992411790454	3
4	191	477.732048514976	1
4	193	479.565660162456	2
4	200	506.907177080105	1
4	202	508.184710933496	2
4	204	513.794651262729	3
4	207	522.6230811356	3
4	209	525.703729907631	4
4	211	526.760700204932	5
4	213	529.153394214765	6
4	218	536.576731663828	7
4	222	538.986210414381	8
4	224	542.139596743865	9
4	227	549.542459884891	10
4	229	551.855074966976	11
4	231	552.96415021486	12
4	234	555.292798021475	12
4	236	555.530199892277	13
4	239	557.386578317167	13
4	242	558.581549090794	13
4	247	564.674090514164	11
4	250	566.996941240385	11
4	252	567.198732359307	12
4	254	567.806075160641	13
4	264	599.368227092208	11
4	269	609.617173713877	12
4	271	618.765200043476	13
4	273	628.111450699737	14
4	281	643.978860644792	15
4	291	670.76103880654	12
4	293	673.781192419499	13
4	297	677.024116712335	12
4	301	680.55874114572	13
4	305	690.106648260074	14
4	308	695.833009998525	15
4	312	706.460375203675	15
4	315	710.189187192976	15
4	318	714.031277994825	15
4	328	746.56073465194	11
4	330	747.335346081218	12
4	332	752.507465201618	13
4	336	764.711850508577	12
4	346	779.392366829766	11
4	358	798.727175529999	10
4	366	805.745986193468	11
4	369	809.376814129608	12
4	371	814.345620529679	13
4	373	816.943428381458	14
4	375	820.20186011876	15
4	378	823.652287563037	16
4	380	823.852341833642	17
4	383	838.965598310374	18
4	387	849.665848546355	19
4	390	855.20014544701	20
4	399	874.938272861615	20
4	401	875.642170742283	21
4	403	878.916392601563	22
4	405	880.194743129377	23
4	416	908.302664689417	18
4	418	912.880118731235	19
4	420	914.154013521909	20
4	422	918.221453502094	21
4	424	920.466740367527	22
4	426	921.269617257342	23
4	430	928.270388860147	23
4	435	940.769429665337	21
4	438	946.937388544451	21
4	440	948.378059082212	22
4	446	961.276425471982	19
4	450	968.857171976466	18
4	459	985.637922849169	15
4	464	990.293399767415	16
4	467	994.830844296818	16
4	473	1006.809630873742	15
4	475	1008.576925158246	16
4	481	1025.702611347249	17
4	483	1025.859092540039	18
4	488	1032.037129145877	18
4	494	1039.660424487586	19
4	497	1044.334527619919	19
4	512	1069.794077147459	12
4	518	1092.429440543177	10
4	520	1099.606014265835	11
4	524	1106.988560342246	10
4	527	1108.012979850404	10
4	542	1136.140998633732	6
4	552	1157.550368266195	5
4	554	1157.611214525958	6
4	557	1162.88480480778	7
4	559	1166.784023230992	8
4	566	1201.198363559256	7
4	573	1233.994475151404	3
4	575	1234.638255782988	4
4	579	1245.207501304281	3
4	584	1252.287471471351	1
4	586	1252.958309372731	2
4	589	1255.544300550687	2
4	592	1257.702205050436	2
4	596	1273.575107147716	1
4	599	1282.000157476293	1
4	605	1308.042757533478	1
4	608	1322.442427890273	1
4	611	1354.450041299215	1
4	614	1359.808667138904	1
4	617	1365.567060418044	1
4	620	1379.527834508314	1
4	623	1388.343387569061	1
4	625	1391.530722183322	2
4	627	1395.987648763864	3
4	634	1405.73259010185	4
4	637	1407.59546398581	5
4	641	1421.052419772988	4
4	651	1465.665298626496	5
4	660	1483.14063802135	6
4	664	1486.981162243963	7
4	666	1490.211591955959	8
4	668	1492.475700231023	9
4	670	1493.600893495466	10
4	672	1496.620248682547	11
4	675	1499.251009617682	12
4	677	1501.190745310615	13
4	682	1503.555027487292	14
4	684	1503.84271439289	15
4	686	1507.41017972299	16
4	691	1530.291608934717	17
4	693	1530.384925280363	18
4	697	1537.457528739665	19
4	705	1553.162040759077	20
4	709	1570.137080280809	21
4	712	1573.274776966163	22
4	715	1580.777479436213	23
4	728	1617.45004086707	24
4	730	1618.19945656825	25
4	735	1639.564752723533	26
4	742	1659.579680344184	27
4	744	1661.084268464403	28
4	746	1661.820909129658	29
4	748	1664.226597667918	30
4	751	1670.65600116995	31
4	758	1692.733021911401	31
4	760	1693.122160938568	32
4	762	1696.792034829513	33
4	766	1706.576033597084	32
4	777	1737.584751462818	30
4	790	1762.88645240741	28
4	792	1764.52628129551	29
4	794	1771.345773685681	30
4	798	1782.840199138905	31
4	801	1787.099373712175	32
4	803	1790.474069399335	33
4	805	1798.639424257225	34
4	811	1811.071683779677	35
4	814	1815.698051184562	36
4	816	1818.193629922128	37
4	818	1819.927956121786	38
4	826	1841.53335381805	37
4	828	1848.825722193123	38
4	830	1851.803641447519	39
4	837	1871.596090993364	36
4	839	1873.039811236144	37
4	845	1888.636690117927	34
4	847	1889.72021430197	35
4	856	1908.068432641432	35
4	860	1917.112298752113	36
4	870	1928.548868381647	37
4	872	1943.202172054068	38
4	874	1943.853450068646	39
4	876	1947.491857768771	40
4	879	1952.257540051665	41
4	881	1953.894543985779	42
4	886	1967.391884018465	43
4	888	1968.953078841886	44
4	892	1975.753052079742	45
4	896	1980.675212583733	46
4	898	1984.434920620764	47
4	900	1988.17588147654	48
4	906	1997.039189549181	49
4	909	2006.675050578551	50
4	912	2013.603734137001	51
4	914	2013.712213650688	52
4	919	2016.571851117598	53
4	921	2017.433573627472	54
4	923	2021.377678270243	55
4	927	2031.751956071526	56
4	932	2052.242150349561	57
4	937	2060.513224836688	58
4	939	2061.071047269637	59
4	942	2085.179997703273	60
4	944	2087.200259857916	61
4	957	2124.846046838009	56
4	965	2147.294971925394	55
4	974	2181.080498134622	55
4	976	2182.839138302258	56
4	980	2191.644797750578	55
4	990	2213.834378504324	51
4	992	2216.879486632086	52
4	997	2221.076484284912	52
4	1000	2225.648999783634	53
4	1004	2236.923596929798	52
4	1006	2243.644770406919	53
4	1012	2265.943846688117	50
4	1017	2278.84125004028	50
4	1034	2325.20156429716	46
4	1036	2335.233532933645	47
4	1042	2345.440787043552	44
4	1051	2357.58083537246	41
4	1054	2362.672863402485	41
4	1060	2380.495826501538	38
4	1065	2387.22080609807	36
4	1070	2408.542308582601	34
4	1074	2410.226325649505	33
4	1079	2413.640233561452	34
4	1081	2421.961824707125	35
4	1084	2439.826725366544	35
4	1086	2448.966925486014	36
4	1092	2457.299839417518	35
4	1094	2461.289238194113	36
4	1101	2473.170198392813	37
4	1104	2481.059061575314	38
5	133	360.864535828211	1
5	165	434.192491993633	1
5	167	434.455210291892	2
5	188	473.418125660566	1
5	197	494.985859456131	1
5	215	533.662990720296	1
5	220	537.630898853706	1
5	258	576.885520165288	1
5	262	599.284869783182	1
5	267	607.970771654433	1
5	275	634.887930512541	2
5	278	639.653880988209	2
5	283	649.417160232028	2
5	299	679.740153657803	1
5	303	683.74995469966	2
5	323	729.684251164739	1
5	339	765.453022773889	1
5	341	766.43135895336	2
5	349	788.973306370394	1
5	353	791.930488403228	1
5	356	795.155632926391	1
5	360	799.035351057598	2
5	362	800.178837360028	3
5	364	800.927631421423	4
5	385	849.464980582621	2
5	393	863.752104327907	1
5	397	872.270806368218	1
5	414	901.411980052073	1
5	452	974.77567001264	1
5	461	988.037285371389	1
5	471	1006.593199994784	1
5	477	1011.297870756273	2
5	486	1027.380940695977	1
5	491	1038.235837469343	1
5	501	1051.854654596607	1
5	510	1068.457324359042	1
5	531	1115.114581022403	1
5	537	1125.050224164863	1
5	540	1131.588456756517	1
5	546	1145.997290192829	1
5	550	1155.655865416976	1
5	563	1179.480158523593	1
5	602	1287.669619001015	1
5	629	1397.203814762574	1
5	632	1403.471787420916	1
5	643	1422.174667731178	1
5	645	1425.541955577038	2
5	647	1459.809802668981	3
5	649	1463.472783701677	4
5	653	1468.258265090104	5
5	658	1477.030327765908	3
5	662	1483.733119445775	4
5	679	1502.192571971784	4
5	688	1513.824900073327	4
5	695	1535.615523159129	4
5	700	1544.835433568439	4
5	703	1552.405657681915	4
5	707	1554.423249520396	5
5	717	1584.168946148526	4
5	719	1590.380435773746	5
5	721	1596.202799076679	6
5	723	1601.028906960768	7
5	726	1612.419185454763	7
5	738	1646.052593848569	4
5	753	1672.645983898138	2
5	771	1725.173569549517	1
5	773	1734.285532893839	2
5	782	1746.894718634036	1
5	784	1752.682965373174	2
5	786	1753.420297938543	3
5	788	1756.356175216809	4
5	796	1776.492643095432	5
5	809	1805.713256286704	3
5	824	1840.228471909046	1
5	850	1896.387871278477	1
5	852	1902.845844547256	2
5	854	1905.171414237391	3
5	862	1920.059414409871	2
5	865	1923.446138582809	2
5	867	1927.44617853084	3
5	884	1965.473024415792	1
5	890	1974.610237799757	2
5	894	1978.257315432963	3
5	902	1992.92582265826	4
5	904	1995.832788322231	5
5	916	2013.962719486096	4
5	925	2021.902296801776	4
5	935	2056.852604836569	1
5	952	2119.077779893969	1
5	954	2119.880416731758	2
5	959	2127.915740897932	2
5	967	2148.080455696903	1
5	969	2150.521770546261	2
5	983	2193.689164674927	1
5	995	2219.878277341564	1
5	1015	2272.375387945966	1
5	1022	2299.072206357407	1
5	1028	2314.179784942103	1
5	1031	2323.85327808203	1
5	1046	2352.473961820584	1
5	1076	2410.291790491198	1
5	1090	2457.099948359269	1
5	1097	2464.026288258992	1
5	1099	2465.224727782946	2
5	1109	2497.285207450237	1
6	133	360.864535828211	0
6	134	361.012696986607	0
6	165	434.192491993633	0
6	167	434.455210291892	1
6	168	437.791494136481	1
6	173	447.856342511146	0
6	188	473.418125660566	0
6	189	473.77995529478	0
6	197	494.985859456131	0
6	198	498.823556480684	0
6	215	533.662990720296	0
6	216	536.08497787783	0
6	220	537.630898853706	0
6	225	547.65217779329	0
6	258	576.885520165288	0
6	259	584.669164929771	0
6	262	599.284869783182	0
6	265	606.005977212681	0
6	267	607.970771654433	0
6	275	634.887930512541	1
6	276	638.056307113912	1
6	278	639.653880988209	1
6	279	642.031563765102	1
6	283	649.417160232028	1
6	284	652.324012816076	1
6	285	652.805189124096	0
6	299	679.740153657803	0
6	303	683.74995469966	1
6	306	690.558811611436	1
6	309	701.224064661883	0
6	323	729.684251164739	0
6	324	731.555702310813	0
6	339	765.453022773889	0
6	341	766.43135895336	1
6	342	766.626277094813	1
6	343	772.446952520142	0
6	349	788.973306370394	0
6	350	790.905213588406	0
6	353	791.930488403228	0
6	354	793.927593412633	0
6	356	795.155632926391	0
6	360	799.035351057598	1
6	362	800.178837360028	2
6	364	800.927631421423	3
6	367	807.276928357475	3
6	376	820.52940643097	2
6	381	835.258027554387	1
6	385	849.464980582621	1
6	388	849.758058961465	1
6	391	860.955796364087	0
6	393	863.752104327907	0
6	394	864.960347774696	0
6	397	872.270806368218	0
6	406	883.564421005118	0
6	414	901.411980052073	0
6	427	923.537447732763	0
6	452	974.77567001264	0
6	453	975.120399700322	0
6	461	988.037285371389	0
6	462	988.833994750667	0
6	471	1006.593199994784	0
6	477	1011.297870756273	1
6	478	1014.715571329885	1
6	479	1021.490014408804	0
6	486	1027.380940695977	0
6	489	1036.144798672666	0
6	491	1038.235837469343	0
6	492	1038.96015388977	0
6	501	1051.854654596607	0
6	502	1052.741714371661	0
6	510	1068.457324359042	0
6	513	1073.702675229575	0
6	531	1115.114581022403	0
6	532	1118.466752612658	0
6	537	1125.050224164863	0
6	538	1129.182550724628	0
6	540	1131.588456756517	0
6	543	1136.439258918903	0
6	546	1145.997290192829	0
6	547	1151.698534724409	0
6	550	1155.655865416976	0
6	555	1158.663114247338	0
6	563	1179.480158523593	0
6	564	1184.939739576933	0
6	602	1287.669619001015	0
6	603	1290.975440680312	0
6	629	1397.203814762574	0
6	630	1399.739943015873	0
6	632	1403.471787420916	0
6	635	1406.792784988094	0
6	643	1422.174667731178	0
6	645	1425.541955577038	1
6	647	1459.809802668981	2
6	649	1463.472783701677	3
6	653	1468.258265090104	4
6	654	1468.801273976492	4
6	655	1471.587039665653	3
6	656	1475.712197882352	2
6	658	1477.030327765908	2
6	662	1483.733119445775	3
6	673	1497.448156622199	3
6	679	1502.192571971784	3
6	680	1502.234424408505	3
6	688	1513.824900073327	3
6	689	1523.514304311834	3
6	695	1535.615523159129	3
6	698	1544.617717353886	3
6	700	1544.835433568439	3
6	701	1548.757347519205	3
6	703	1552.405657681915	3
6	707	1554.423249520396	4
6	710	1571.756135898531	4
6	713	1577.509179597624	3
6	717	1584.168946148526	3
6	719	1590.380435773746	4
6	721	1596.202799076679	5
6	723	1601.028906960768	6
6	724	1606.089663335026	6
6	726	1612.419185454763	6
6	731	1619.519772068268	6
6	732	1625.851981111645	5
6	733	1626.515658963999	4
6	736	1645.914874010868	3
6	738	1646.052593848569	3
6	739	1651.134778224531	3
6	740	1657.56405332268	2
6	749	1666.201454110349	1
6	753	1672.645983898138	1
6	754	1674.044111570326	1
6	755	1678.642789946563	0
6	771	1725.173569549517	0
6	773	1734.285532893839	1
6	774	1735.723234211378	1
6	775	1736.9208357741	0
6	782	1746.894718634036	0
6	784	1752.682965373174	1
6	786	1753.420297938543	2
6	788	1756.356175216809	3
6	796	1776.492643095432	4
6	799	1783.790920661723	4
6	806	1799.771656351538	3
6	807	1803.141859167579	2
6	809	1805.713256286704	2
6	812	1815.191325825848	2
6	819	1825.078922405524	1
6	820	1829.076933269388	0
6	824	1840.228471909046	0
6	831	1863.563543246491	0
6	850	1896.387871278477	0
6	852	1902.845844547256	1
6	854	1905.171414237391	2
6	857	1911.166412888417	2
6	858	1911.575870747562	1
6	862	1920.059414409871	1
6	863	1921.673627636848	1
6	865	1923.446138582809	1
6	867	1927.44617853084	2
6	868	1928.3657766866	2
6	877	1951.513072144184	1
6	882	1961.695810097017	0
6	884	1965.473024415792	0
6	890	1974.610237799757	1
6	894	1978.257315432963	2
6	902	1992.92582265826	3
6	904	1995.832788322231	4
6	907	2004.183361376577	4
6	910	2006.880780690612	3
6	916	2013.962719486096	3
6	917	2014.365001665306	3
6	925	2021.902296801776	3
6	928	2033.962171438092	3
6	929	2034.319126152401	2
6	930	2038.117499104692	1
6	933	2054.092058568815	0
6	935	2056.852604836569	0
6	940	2080.819302821223	0
6	952	2119.077779893969	0
6	954	2119.880416731758	1
6	955	2122.5937985648	1
6	959	2127.915740897932	1
6	960	2130.784457919011	1
6	961	2133.352888953636	0
6	967	2148.080455696903	0
6	969	2150.521770546261	1
6	970	2157.623795732725	1
6	971	2172.948045017433	0
6	983	2193.689164674927	0
6	984	2194.480045707669	0
6	995	2219.878277341564	0
6	998	2225.27055557809	0
6	1015	2272.375387945966	0
6	1018	2283.139816932184	0
6	1022	2299.072206357407	0
6	1023	2302.35636913002	0
6	1028	2314.179784942103	0
6	1029	2317.936599153426	0
6	1031	2323.85327808203	0
6	1032	2324.75808465677	0
6	1046	2352.473961820584	0
6	1047	2353.482826487073	0
6	1076	2410.291790491198	0
6	1077	2411.721828343842	0
6	1090	2457.099948359269	0
6	1095	2461.96886340464	0
6	1097	2464.026288258992	0
6	1099	2465.224727782946	1
6	1102	2475.287431084017	1
6	1105	2488.794548696196	0
6	1109	2497.285207450237	0
6	1110	2498.278366203351	0
7	133	360.864535828211	7
7	165	434.192491993633	8
7	215	533.662990720296	9
7	220	537.630898853706	10
7	258	576.885520165288	11
7	262	599.284869783182	12
7	267	607.970771654433	13
7	299	679.740153657803	14
7	323	729.684251164739	15
7	339	765.453022773889	16
7	349	788.973306370394	17
7	353	791.930488403228	18
7	356	795.155632926391	19
7	393	863.752104327907	20
7	397	872.270806368218	21
7	414	901.411980052073	22
7	452	974.77567001264	23
7	461	988.037285371389	24
7	471	1006.593199994784	25
7	486	1027.380940695977	26
7	491	1038.235837469343	27
7	501	1051.854654596607	28
7	510	1068.457324359042	29
7	531	1115.114581022403	30
7	537	1125.050224164863	31
7	540	1131.588456756517	32
7	546	1145.997290192829	33
7	550	1155.655865416976	34
7	563	1179.480158523593	35
7	629	1397.203814762574	36
7	632	1403.471787420916	37
7	643	1422.174667731178	38
7	771	1725.173569549517	39
7	782	1746.894718634036	40
7	824	1840.228471909046	41
7	850	1896.387871278477	42
7	884	1965.473024415792	43
7	935	2056.852604836569	44
7	952	2119.077779893969	45
7	967	2148.080455696903	46
7	983	2193.689164674927	47
7	995	2219.878277341564	48
7	1015	2272.375387945966	49
7	1022	2299.072206357407	50
7	1028	2314.179784942103	51
7	1031	2323.85327808203	52
7	1046	2352.473961820584	53
7	1076	2410.291790491198	54
7	1090	2457.099948359269	55
7	1097	2464.026288258992	56
7	1109	2497.285207450237	57
8	133	360.864535828211	0
8	165	434.192491993633	0
8	168	437.791494136481	3.336283844589
8	188	473.418125660566	0
8	197	494.985859456131	0
8	215	533.662990720296	0
8	220	537.630898853706	0
8	258	576.885520165288	0
8	262	599.284869783182	0
8	267	607.970771654433	0
8	276	638.056307113912	3.168376601371
8	279	642.031563765102	2.377682776893
8	284	652.324012816076	2.906852584048
8	299	679.740153657803	0
8	306	690.558811611436	6.808856911776
8	323	729.684251164739	0
8	339	765.453022773889	0
8	342	766.626277094813	0.194918141453
8	349	788.973306370394	0
8	353	791.930488403228	0
8	356	795.155632926391	0
8	367	807.276928357475	8.241577299877
8	376	820.52940643097	20.350569070942
8	381	835.258027554387	34.330396132964
8	388	849.758058961465	0.293078378844
8	393	863.752104327907	0
8	397	872.270806368218	0
8	414	901.411980052073	0
8	452	974.77567001264	0
8	461	988.037285371389	0
8	471	1006.593199994784	0
8	478	1014.715571329885	3.417700573612
8	486	1027.380940695977	0
8	491	1038.235837469343	0
8	501	1051.854654596607	0
8	510	1068.457324359042	0
8	531	1115.114581022403	0
8	537	1125.050224164863	0
8	540	1131.588456756517	0
8	546	1145.997290192829	0
8	550	1155.655865416976	0
8	563	1179.480158523593	0
8	602	1287.669619001015	0
8	629	1397.203814762574	0
8	632	1403.471787420916	0
8	643	1422.174667731178	0
8	654	1468.801273976492	43.259318399454
8	655	1471.587039665653	11.777236996672
8	656	1475.712197882352	12.239414180675
8	673	1497.448156622199	29.189891532095
8	680	1502.234424408505	25.204096642597
8	689	1523.514304311834	39.781184866059
8	698	1544.617717353886	42.425145382102
8	701	1548.757347519205	34.932447445878
8	710	1571.756135898531	36.140612739402
8	713	1577.509179597624	32.673746029185
8	724	1606.089663335026	53.684005653111
8	731	1619.519772068268	65.096522547872
8	732	1625.851981111645	41.683034963119
8	733	1626.515658963999	36.135223190253
8	736	1645.914874010868	49.712074934189
8	739	1651.134778224531	50.105871263763
8	740	1657.56405332268	45.144867867917
8	749	1666.201454110349	20.14886026178
8	754	1674.044111570326	1.398127672188
8	771	1725.173569549517	0
8	774	1735.723234211378	1.437701317539
8	782	1746.894718634036	0
8	799	1783.790920661723	31.107955288549
8	806	1799.771656351538	46.351358412995
8	807	1803.141859167579	46.78568395077
8	812	1815.191325825848	38.698682730416
8	819	1825.078922405524	19.36566611882
8	824	1840.228471909046	0
8	850	1896.387871278477	0
8	857	1911.166412888417	8.320568341161
8	858	1911.575870747562	6.404456510171
8	863	1921.673627636848	1.614213226977
8	868	1928.3657766866	4.919638103791
8	877	1951.513072144184	24.066893613344
8	884	1965.473024415792	0
8	907	2004.183361376577	29.57312357682
8	910	2006.880780690612	28.623465257649
8	917	2014.365001665306	21.439179007046
8	928	2033.962171438092	38.129383115861
8	929	2034.319126152401	20.356406666305
8	930	2038.117499104692	16.215202302916
8	935	2056.852604836569	0
8	952	2119.077779893969	0
8	955	2122.5937985648	2.713381833042
8	960	2130.784457919011	2.868717021079
8	967	2148.080455696903	0
8	970	2157.623795732725	7.102025186464
8	983	2193.689164674927	0
8	995	2219.878277341564	0
8	1015	2272.375387945966	0
8	1022	2299.072206357407	0
8	1028	2314.179784942103	0
8	1031	2323.85327808203	0
8	1046	2352.473961820584	0
8	1076	2410.291790491198	0
8	1090	2457.099948359269	0
8	1097	2464.026288258992	0
8	1102	2475.287431084017	10.062703301071
8	1109	2497.285207450237	0
9	134	361.012696986607	12
9	168	437.791494136481	13
9	173	447.856342511146	14
9	189	473.77995529478	15
9	198	498.823556480684	16
9	216	536.08497787783	17
9	225	547.65217779329	18
9	259	584.669164929771	19
9	265	606.005977212681	20
9	276	638.056307113912	21
9	279	642.031563765102	22
9	284	652.324012816076	23
9	285	652.805189124096	24
9	306	690.558811611436	25
9	309	701.224064661883	26
9	324	731.555702310813	27
9	342	766.626277094813	28
9	343	772.446952520142	29
9	350	790.905213588406	30
9	354	793.927593412633	31
9	367	807.276928357475	32
9	376	820.52940643097	33
9	381	835.258027554387	34
9	388	849.758058961465	35
9	391	860.955796364087	36
9	394	864.960347774696	37
9	406	883.564421005118	38
9	427	923.537447732763	39
9	453	975.120399700322	40
9	462	988.833994750667	41
9	478	1014.715571329885	42
9	479	1021.490014408804	43
9	489	1036.144798672666	44
9	492	1038.96015388977	45
9	502	1052.741714371661	46
9	513	1073.702675229575	47
9	532	1118.466752612658	48
9	538	1129.182550724628	49
9	543	1136.439258918903	50
9	547	1151.698534724409	51
9	555	1158.663114247338	52
9	564	1184.939739576933	53
9	603	1290.975440680312	54
9	630	1399.739943015873	55
9	635	1406.792784988094	56
9	654	1468.801273976492	57
9	655	1471.587039665653	58
9	656	1475.712197882352	59
9	673	1497.448156622199	60
9	680	1502.234424408505	61
9	689	1523.514304311834	62
9	698	1544.617717353886	63
9	701	1548.757347519205	64
9	710	1571.756135898531	65
9	713	1577.509179597624	66
9	724	1606.089663335026	67
9	731	1619.519772068268	68
9	732	1625.851981111645	69
9	733	1626.515658963999	70
9	736	1645.914874010868	71
9	739	1651.134778224531	72
9	740	1657.56405332268	73
9	749	1666.201454110349	74
9	754	1674.044111570326	75
9	755	1678.642789946563	76
9	774	1735.723234211378	77
9	775	1736.9208357741	78
9	799	1783.790920661723	79
9	806	1799.771656351538	80
9	807	1803.141859167579	81
9	812	1815.191325825848	82
9	819	1825.078922405524	83
9	820	1829.076933269388	84
9	831	1863.563543246491	85
9	857	1911.166412888417	86
9	858	1911.575870747562	87
9	863	1921.673627636848	88
9	868	1928.3657766866	89
9	877	1951.513072144184	90
9	882	1961.695810097017	91
9	907	2004.183361376577	92
9	910	2006.880780690612	93
9	917	2014.365001665306	94
9	928	2033.962171438092	95
9	929	2034.319126152401	96
9	930	2038.117499104692	97
9	933	2054.092058568815	98
9	940	2080.819302821223	99
9	955	2122.5937985648	100
9	960	2130.784457919011	101
9	961	2133.352888953636	102
9	970	2157.623795732725	103
9	971	2172.948045017433	104
9	984	2194.480045707669	105
9	998	2225.27055557809	106
9	1018	2283.139816932184	107
9	1023	2302.35636913002	108
9	1029	2317.936599153426	109
9	1032	2324.75808465677	110
9	1047	2353.482826487073	111
9	1077	2411.721828343842	112
9	1095	2461.96886340464	113
9	1102	2475.287431084017	114
9	1105	2488.794548696196	115
9	1110	2498.278366203351	116
10	134	361.012696986607	0.148161158396
10	168	437.791494136481	3.599002142848
10	173	447.856342511146	13.401132219254
10	189	473.77995529478	0.361829634214
10	198	498.823556480684	3.837697024553
10	216	536.08497787783	2.421987157534
10	225	547.65217779329	10.021278939584
10	259	584.669164929771	7.783644764483
10	265	606.005977212681	6.721107429499
10	276	638.056307113912	30.085535459479
10	279	642.031563765102	7.143633252561
10	284	652.324012816076	12.670131827867
10	285	652.805189124096	3.388028892068
10	306	690.558811611436	10.818657953633
10	309	701.224064661883	17.474109962223
10	324	731.555702310813	1.871451146074
10	342	766.626277094813	1.173254320924
10	343	772.446952520142	6.015593566782
10	350	790.905213588406	1.931907218012
10	354	793.927593412633	1.997105009405
10	367	807.276928357475	12.121295431084
10	376	820.52940643097	21.494055373372
10	381	835.258027554387	35.079190194359
10	388	849.758058961465	48.830427540042
10	391	860.955796364087	11.490815781466
10	394	864.960347774696	1.208243446789
10	406	883.564421005118	11.2936146369
10	427	923.537447732763	22.12546768069
10	453	975.120399700322	0.344729687682
10	462	988.833994750667	0.796709379278
10	478	1014.715571329885	8.122371335101
10	479	1021.490014408804	10.192143652531
10	489	1036.144798672666	8.763857976689
10	492	1038.96015388977	0.724316420427
10	502	1052.741714371661	0.887059775054
10	513	1073.702675229575	5.245350870533
10	532	1118.466752612658	3.352171590255
10	538	1129.182550724628	4.132326559765
10	543	1136.439258918903	4.850802162386
10	547	1151.698534724409	5.70124453158
10	555	1158.663114247338	3.007248830362
10	564	1184.939739576933	5.45958105334
10	603	1290.975440680312	3.305821679297
10	630	1399.739943015873	2.536128253299
10	635	1406.792784988094	3.320997567178
10	654	1468.801273976492	46.626606245314
10	655	1471.587039665653	46.045084088615
10	656	1475.712197882352	15.902395213371
10	673	1497.448156622199	33.975372920522
10	680	1502.234424408505	33.976159318401
10	689	1523.514304311834	46.483976545926
10	698	1544.617717353886	60.884597908111
10	701	1548.757347519205	46.564775547421
10	710	1571.756135898531	57.931235825204
10	713	1577.509179597624	41.893656438495
10	724	1606.089663335026	61.254229766587
10	731	1619.519772068268	67.114114386353
10	732	1625.851981111645	71.428731591249
10	733	1626.515658963999	42.346712815473
10	736	1645.914874010868	55.534438237122
10	739	1651.134778224531	54.931979147852
10	740	1657.56405332268	56.535146361912
10	749	1666.201454110349	53.782268655586
10	754	1674.044111570326	27.991517721757
10	755	1678.642789946563	5.996806048425
10	774	1735.723234211378	10.549664661861
10	775	1736.9208357741	2.635302880261
10	799	1783.790920661723	36.896202027687
10	806	1799.771656351538	47.088690978364
10	807	1803.141859167579	49.721561229036
10	812	1815.191325825848	58.835150609039
10	819	1825.078922405524	48.586279310092
10	820	1829.076933269388	23.363676982684
10	831	1863.563543246491	23.335071337445
10	857	1911.166412888417	14.77854160994
10	858	1911.575870747562	8.730026200306
10	863	1921.673627636848	16.502213399457
10	868	1928.3657766866	8.306362276729
10	877	1951.513072144184	28.066933561375
10	882	1961.695810097017	34.249631566177
10	907	2004.183361376577	38.710336960785
10	910	2006.880780690612	32.270542890855
10	917	2014.365001665306	36.107686232343
10	928	2033.962171438092	41.036348779832
10	929	2034.319126152401	38.48633783017
10	930	2038.117499104692	24.154779618596
10	933	2054.092058568815	32.189761767039
10	940	2080.819302821223	23.966697984654
10	955	2122.5937985648	3.516018670831
10	960	2130.784457919011	10.904041187253
10	961	2133.352888953636	5.437148055704
10	970	2157.623795732725	9.543340035822
10	971	2172.948045017433	22.426274471172
10	984	2194.480045707669	0.790881032742
10	998	2225.27055557809	5.392278236526
10	1018	2283.139816932184	10.764428986218
10	1023	2302.35636913002	3.284162772613
10	1029	2317.936599153426	3.756814211323
10	1032	2324.75808465677	0.90480657474
10	1047	2353.482826487073	1.008864666489
10	1077	2411.721828343842	1.430037852644
10	1095	2461.96886340464	4.868915045371
10	1102	2475.287431084017	11.261142825025
10	1105	2488.794548696196	23.56982091325
10	1110	2498.278366203351	0.993158753114
11	1111	2500	0.092
12	1111	2500	0.0464

