version 2
run experiments_hard_game_mode1-173-20230311-19:40:00-5432
attr configname experiments_hard_game_mode1
attr datetime 20230311-19:40:00
attr experiment experiments_hard_game_mode1
attr inifile omnetpp.ini
attr iterationvars "$0=7.5, $1=5, $2=100"
attr iterationvarsf 7.5,5,100-
attr measurement "$0=7.5, $1=5, $2=100"
attr network Network
attr processid 5432
attr repetition 23
attr replication #23
attr resultdir results
attr runnumber 173
attr seedset 23
param *.boss.arrival_mean 20
param *.boss.service_mean 7.5
param *.minion.arrival_mean 10
param *.minion.service_mean 5
param *.player.recover_rate_x 100
param **.minion.arrival_distribution 0
param **.minion.service_distribution 0
param **.boss.arrival_distribution 0
param **.boss.service_distribution 0

vector 0 Network.player minion_jobs_number_stat:vector ETV
attr source signal_minion_jobs_number
vector 1 Network.player minion_jobs_queue_number_stat:vector ETV
attr source signal_minion_jobs_queue_number
vector 2 Network.player boss_defeated_stat:vector ETV
attr source signal_boss_defeated
vector 3 Network.player boss_jobs_queue_number_stat:vector ETV
attr source signal_boss_jobs_queue_number
vector 4 Network.player boss_response_time_stat:vector ETV
attr source signal_boss_response_time
vector 5 Network.player minion_waiting_time_stat:vector ETV
attr source signal_minion_waiting_time
vector 6 Network.player minion_defeated_stat:vector ETV
attr source signal_minion_defeated
vector 7 Network.player minion_response_time_stat:vector ETV
attr source signal_minion_response_time
vector 8 Network.player boss_jobs_number_stat:vector ETV
attr source signal_boss_jobs_number
vector 9 Network.player minion_recovered_stat:vector ETV
attr source signal_minion_recovered
vector 10 Network.player boss_waiting_time_stat:vector ETV
attr source signal_boss_waiting_time
vector 11 Network.player minion_throughput:vector ETV
attr source signal_minion_throughput
vector 12 Network.player boss_throughput:vector ETV
attr source signal_boss_throughput
0	151	351.409402957577	13
0	158	370.777473116595	12
0	161	378.488229332204	13
0	164	391.078058889789	13
0	169	397.97888353961	11
0	176	413.278209427464	7
0	179	414.494555353125	7
0	188	434.906945211122	3
0	191	437.0912865596	4
0	193	438.966175237987	5
0	202	474.26066636912	1
0	206	480.065795011029	1
0	210	497.231086362742	2
0	216	512.07678505048	2
0	219	518.945557114013	3
0	226	544.217495540561	1
0	251	623.258149908015	1
0	253	627.605220061232	2
0	255	628.739338523454	3
0	257	630.00688768246	4
0	262	647.708836715768	5
0	264	652.384505225663	6
0	269	664.273518268876	7
0	272	666.288154121382	7
0	275	674.347348270964	7
0	277	674.425555408986	8
0	279	675.899256176373	9
0	284	700.760062923818	7
0	294	710.865589497593	7
0	297	724.828608809006	8
0	299	730.709122944328	9
0	301	731.848271043627	10
0	308	749.208050082966	7
0	312	760.492420943954	8
0	314	765.748292279184	9
0	322	773.490385942751	10
0	324	780.212356192121	11
0	326	787.654960188613	12
0	328	788.323488024282	13
0	332	797.85556685412	14
0	334	798.413781185913	15
0	336	811.294243343722	16
0	338	813.120722125919	17
0	340	813.826106259941	18
0	342	816.68276717622	19
0	346	822.977483888458	20
0	348	824.741693647157	21
0	352	830.931395268176	22
0	354	834.658069146762	23
0	365	852.005555808404	24
0	376	869.703654029265	17
0	381	874.30463029789	15
0	388	900.13962826778	11
0	390	904.889434806243	12
0	394	918.145831209117	11
0	396	918.838667467392	12
0	398	930.432183228779	13
0	401	934.017006555342	13
0	403	934.29913745827	14
0	408	954.82279783654	15
0	413	961.626707293467	16
0	418	968.280150071091	14
0	421	971.793722177781	14
0	423	974.151422278521	15
0	425	976.9459914137	16
0	427	978.394934346698	17
0	430	986.421336995351	17
0	432	987.326568608815	18
0	436	1001.036176797824	19
0	442	1016.748146059837	20
0	447	1020.510218106742	18
0	454	1033.999585119216	19
0	457	1043.756563453189	20
0	461	1051.620915736899	19
0	478	1088.408374112451	17
0	480	1090.63607194241	18
0	482	1095.507883561552	19
0	488	1108.151485015426	16
0	492	1119.147686660366	15
0	494	1119.446801457123	16
0	499	1123.425782964743	16
0	502	1126.517568189753	17
0	505	1131.053028010706	17
0	509	1151.019326435675	16
0	511	1152.885612349416	17
0	518	1169.793818019991	16
0	520	1172.430706127412	17
0	524	1176.785421987816	18
0	527	1183.600650372988	19
0	533	1198.630166700021	20
0	542	1232.03765163287	19
0	548	1249.526440271864	20
0	554	1254.309630554597	21
0	558	1263.305969080765	22
0	562	1267.464390136375	23
0	567	1282.299306329868	24
0	572	1287.698133590899	25
0	576	1293.601948324288	26
0	584	1323.21393942098	27
0	587	1329.212402018474	28
0	603	1363.610044111697	28
0	609	1369.946213549631	29
0	614	1382.460755315621	30
0	617	1384.501614716769	31
0	619	1387.20796223363	32
0	621	1387.325471994752	33
0	623	1393.722248568077	34
0	632	1425.17509749129	34
0	634	1425.196467057224	35
0	642	1453.829994229033	30
0	653	1490.750988451092	22
0	655	1491.240197052635	23
0	658	1496.543116832561	23
0	666	1525.251530865329	23
0	668	1526.464473774889	24
0	674	1534.15076374501	24
0	676	1538.820365119803	25
0	678	1540.897024957448	26
0	683	1561.95395168398	25
0	686	1565.233562054768	25
0	688	1566.62855413384	26
0	692	1575.187227612997	25
0	700	1588.772610919627	23
0	704	1595.274226142937	24
0	709	1601.208194458292	23
0	716	1622.917714708643	19
0	718	1623.024578515748	20
0	721	1625.660580289895	20
0	725	1633.273764316155	19
0	745	1678.424632632454	11
0	758	1697.969204775388	8
0	763	1707.218097800071	8
0	765	1712.437322052799	9
0	772	1734.191289418866	10
0	775	1740.94459471947	11
0	781	1746.967370311295	11
0	786	1757.017947266365	12
0	788	1768.826021958188	13
0	790	1771.13144291321	14
0	798	1800.299456396917	11
0	800	1802.158581269757	12
0	802	1805.623758910247	13
0	804	1806.711460360698	14
0	810	1817.133171535299	15
0	812	1825.812863346784	16
0	816	1827.864274009818	17
0	820	1833.258109085254	17
0	824	1838.116738802052	18
0	826	1848.699091873847	19
0	828	1848.942959488875	20
0	831	1855.407628382954	21
0	834	1863.515189732285	21
0	836	1867.17014373062	22
0	842	1883.03084663504	19
0	856	1918.146279260694	11
0	860	1924.655666632118	10
0	862	1925.505450703021	11
0	864	1925.829975339095	12
0	866	1935.226545363888	13
0	868	1935.58879072287	14
0	870	1935.70359640184	15
0	881	1977.715694456812	10
0	888	1999.230398836984	6
0	895	2011.407925776068	5
0	902	2034.806196267955	1
0	907	2055.555497537374	1
0	914	2089.775272916261	1
0	918	2090.88877186885	2
0	920	2095.110096941955	3
0	924	2102.439649176249	3
0	926	2106.021876466934	4
0	929	2109.291786164653	4
0	931	2114.395459772272	5
0	933	2115.168904883532	6
0	935	2116.267823271359	7
0	939	2122.901772868527	8
0	941	2123.062148492924	9
0	951	2148.457985402315	10
0	953	2151.828213339695	11
0	957	2160.367110380213	12
0	961	2162.102240589715	13
0	963	2162.187808588662	14
0	965	2166.088356402654	15
0	970	2189.531676080038	14
0	975	2194.994834075687	15
0	979	2197.694611454535	14
0	985	2209.48532261622	14
0	987	2211.311621876526	15
0	993	2221.220665968171	12
0	999	2243.478928328736	11
0	1001	2246.199873964957	12
0	1003	2250.397060634754	13
0	1009	2260.291567120752	14
0	1014	2273.128379691331	12
0	1016	2278.94146497112	13
0	1019	2283.518189796709	13
0	1023	2292.05464674669	12
0	1031	2322.682949916442	7
0	1043	2365.592731081332	1
0	1046	2367.633303705858	1
0	1055	2394.973432391493	1
0	1060	2396.233325765036	1
0	1062	2396.432639650882	2
0	1068	2406.724507506172	3
0	1070	2415.544886743746	4
0	1072	2427.390809023039	5
0	1074	2432.409733102057	6
0	1086	2460.200756621562	7
0	1088	2460.798367668201	8
0	1093	2463.437583920972	9
0	1098	2468.036643076955	10
0	1100	2468.171923063472	11
0	1102	2469.518480614558	12
0	1104	2483.984285460263	13
0	1106	2485.431446660174	14
0	1112	2495.212845808239	15
1	151	351.409402957577	12
1	153	366.189451379343	12
1	154	369.692294820465	11
1	158	370.777473116595	11
1	161	378.488229332204	12
1	162	380.413785617751	12
1	164	391.078058889789	12
1	165	391.157501705398	12
1	166	397.064958533642	11
1	167	397.852012733526	10
1	169	397.97888353961	10
1	170	406.800130256781	10
1	171	407.823968489372	9
1	172	408.206592067099	8
1	173	412.70889126232	7
1	174	413.0624783673	6
1	176	413.278209427464	6
1	177	413.938584865787	6
1	179	414.494555353125	6
1	180	417.048651483767	6
1	181	421.916820939357	5
1	182	422.476396937653	4
1	183	427.070596458452	3
1	184	427.372825140582	2
1	188	434.906945211122	2
1	191	437.0912865596	3
1	193	438.966175237987	4
1	194	440.699366741764	4
1	195	449.04322020921	3
1	196	449.313631246004	2
1	197	458.392494804647	1
1	198	462.601479692133	0
1	202	474.26066636912	0
1	204	478.189558525595	0
1	206	480.065795011029	0
1	210	497.231086362742	1
1	212	507.173043087669	1
1	216	512.07678505048	1
1	219	518.945557114013	2
1	220	519.118302012846	2
1	221	527.228729226394	1
1	222	527.482531255071	0
1	226	544.217495540561	0
1	234	563.179976594309	0
1	251	623.258149908015	0
1	253	627.605220061232	1
1	255	628.739338523454	2
1	257	630.00688768246	3
1	262	647.708836715768	4
1	264	652.384505225663	5
1	269	664.273518268876	6
1	270	665.218028666139	6
1	272	666.288154121382	6
1	273	672.759497655653	6
1	275	674.347348270964	6
1	277	674.425555408986	7
1	279	675.899256176373	8
1	280	677.890603060997	8
1	281	678.376106075447	7
1	282	688.429287403406	6
1	284	700.760062923818	6
1	285	704.422125611581	6
1	294	710.865589497593	6
1	297	724.828608809006	7
1	299	730.709122944328	8
1	301	731.848271043627	9
1	303	744.970695238601	9
1	304	746.137447954309	8
1	305	747.722488809103	7
1	306	748.336900960622	6
1	308	749.208050082966	6
1	312	760.492420943954	7
1	314	765.748292279184	8
1	322	773.490385942751	9
1	324	780.212356192121	10
1	326	787.654960188613	11
1	328	788.323488024282	12
1	332	797.85556685412	13
1	334	798.413781185913	14
1	336	811.294243343722	15
1	338	813.120722125919	16
1	340	813.826106259941	17
1	342	816.68276717622	18
1	346	822.977483888458	19
1	348	824.741693647157	20
1	352	830.931395268176	21
1	354	834.658069146762	22
1	365	852.005555808404	23
1	367	852.63431310318	23
1	368	855.880437434973	22
1	369	858.274252028755	21
1	370	863.593351884991	20
1	371	864.550079051778	19
1	372	864.653238403784	18
1	373	865.775526991122	17
1	374	868.938501400888	16
1	376	869.703654029265	16
1	377	871.289982645409	16
1	378	872.068777588891	15
1	379	873.701646009472	14
1	381	874.30463029789	14
1	382	880.07056977633	14
1	383	882.034118506223	13
1	384	890.391660021937	12
1	385	894.485513869399	11
1	386	895.277800253554	10
1	388	900.13962826778	10
1	390	904.889434806243	11
1	391	905.122832943067	11
1	392	916.929968579857	10
1	394	918.145831209117	10
1	396	918.838667467392	11
1	398	930.432183228779	12
1	399	931.707385313157	12
1	401	934.017006555342	12
1	403	934.29913745827	13
1	408	954.82279783654	14
1	413	961.626707293467	15
1	414	963.297481853116	15
1	415	963.3163670838	14
1	416	966.450463735458	13
1	418	968.280150071091	13
1	419	971.592749039892	13
1	421	971.793722177781	13
1	423	974.151422278521	14
1	425	976.9459914137	15
1	427	978.394934346698	16
1	428	984.68630815888	16
1	430	986.421336995351	16
1	432	987.326568608815	17
1	436	1001.036176797824	18
1	442	1016.748146059837	19
1	443	1017.218115197747	19
1	444	1017.892757997316	18
1	445	1018.863491055497	17
1	447	1020.510218106742	17
1	454	1033.999585119216	18
1	457	1043.756563453189	19
1	458	1045.890882198101	19
1	459	1046.51077171892	18
1	461	1051.620915736899	18
1	462	1052.066091244723	18
1	472	1076.012297953277	17
1	476	1087.43633434987	16
1	478	1088.408374112451	16
1	480	1090.63607194241	17
1	482	1095.507883561552	18
1	483	1096.957201299162	18
1	484	1096.964569889275	17
1	485	1098.955799264302	16
1	486	1099.166946340471	15
1	488	1108.151485015426	15
1	489	1112.680143079613	15
1	490	1115.421615559093	14
1	492	1119.147686660366	14
1	494	1119.446801457123	15
1	495	1120.054686896504	15
1	499	1123.425782964743	15
1	502	1126.517568189753	16
1	503	1130.163316298234	16
1	505	1131.053028010706	16
1	506	1134.907459614343	16
1	507	1146.62416436447	15
1	509	1151.019326435675	15
1	511	1152.885612349416	16
1	512	1154.653779175828	16
1	516	1167.824496774829	15
1	518	1169.793818019991	15
1	520	1172.430706127412	16
1	524	1176.785421987816	17
1	527	1183.600650372988	18
1	533	1198.630166700021	19
1	539	1230.918929018345	19
1	540	1231.404580132582	18
1	542	1232.03765163287	18
1	548	1249.526440271864	19
1	554	1254.309630554597	20
1	558	1263.305969080765	21
1	562	1267.464390136375	22
1	567	1282.299306329868	23
1	572	1287.698133590899	24
1	576	1293.601948324288	25
1	584	1323.21393942098	26
1	587	1329.212402018474	27
1	591	1334.595025848525	27
1	603	1363.610044111697	27
1	609	1369.946213549631	28
1	614	1382.460755315621	29
1	617	1384.501614716769	30
1	619	1387.20796223363	31
1	621	1387.325471994752	32
1	623	1393.722248568077	33
1	630	1424.486195092686	33
1	632	1425.17509749129	33
1	634	1425.196467057224	34
1	635	1427.151156085082	34
1	636	1427.215850224583	33
1	637	1433.283456233108	32
1	638	1445.933247093006	31
1	639	1447.123855812132	30
1	640	1448.044221345766	29
1	642	1453.829994229033	29
1	643	1458.482162147716	29
1	644	1458.636447803298	28
1	645	1466.187370524854	27
1	646	1476.977987615434	26
1	647	1477.153642040673	25
1	648	1478.14083638319	24
1	649	1483.327585577209	23
1	650	1484.772899646106	22
1	651	1487.686820714581	21
1	653	1490.750988451092	21
1	655	1491.240197052635	22
1	656	1495.500221506098	22
1	658	1496.543116832561	22
1	659	1496.69635206264	22
1	666	1525.251530865329	22
1	668	1526.464473774889	23
1	670	1530.645654367099	23
1	674	1534.15076374501	23
1	676	1538.820365119803	24
1	678	1540.897024957448	25
1	680	1560.365920232631	25
1	681	1561.598796321845	24
1	683	1561.95395168398	24
1	684	1562.73983918902	24
1	686	1565.233562054768	24
1	688	1566.62855413384	25
1	689	1571.525771744321	25
1	690	1574.349935856347	24
1	692	1575.187227612997	24
1	693	1577.086109021988	24
1	694	1578.03562506233	23
1	695	1580.507487594099	22
1	700	1588.772610919627	22
1	704	1595.274226142937	23
1	706	1596.983525145056	23
1	707	1598.77256415148	22
1	709	1601.208194458292	22
1	710	1605.743388875933	22
1	711	1606.95931081114	21
1	712	1614.709075588168	20
1	713	1616.333334741735	19
1	714	1619.229447019192	18
1	716	1622.917714708643	18
1	718	1623.024578515748	19
1	719	1623.236735182865	19
1	721	1625.660580289895	19
1	722	1630.56608423168	19
1	723	1631.604214261153	18
1	725	1633.273764316155	18
1	726	1633.37523887686	18
1	730	1642.473548979274	17
1	731	1644.292814953463	16
1	732	1648.991813398356	15
1	733	1653.180062955545	14
1	737	1662.093281017126	13
1	738	1662.298662067241	12
1	739	1662.406382014358	11
1	743	1669.033271495175	10
1	745	1678.424632632454	10
1	749	1680.66901440568	10
1	750	1690.313649758373	9
1	751	1690.39068116356	8
1	752	1691.035003383468	7
1	758	1697.969204775388	7
1	761	1700.745309129658	7
1	763	1707.218097800071	7
1	765	1712.437322052799	8
1	772	1734.191289418866	9
1	775	1740.94459471947	10
1	776	1742.088767549938	10
1	781	1746.967370311295	10
1	786	1757.017947266365	11
1	788	1768.826021958188	12
1	790	1771.13144291321	13
1	791	1776.697154542646	13
1	792	1789.169191701433	12
1	793	1792.126723608073	11
1	794	1792.266156303228	10
1	798	1800.299456396917	10
1	800	1802.158581269757	11
1	802	1805.623758910247	12
1	804	1806.711460360698	13
1	810	1817.133171535299	14
1	812	1825.812863346784	15
1	816	1827.864274009818	16
1	818	1833.131965871539	16
1	820	1833.258109085254	16
1	824	1838.116738802052	17
1	826	1848.699091873847	18
1	828	1848.942959488875	19
1	831	1855.407628382954	20
1	832	1859.902455919998	20
1	834	1863.515189732285	20
1	836	1867.17014373062	21
1	837	1873.32041877025	21
1	838	1873.326202373347	20
1	839	1878.711681616849	19
1	840	1881.00849876829	18
1	842	1883.03084663504	18
1	846	1892.690122450985	18
1	847	1902.047241342073	17
1	848	1902.604429135326	16
1	849	1903.115940597558	15
1	850	1906.993000971007	14
1	851	1911.360867924575	13
1	852	1911.836405079303	12
1	853	1913.33356821032	11
1	854	1914.32512291314	10
1	856	1918.146279260694	10
1	857	1918.274176312802	10
1	858	1919.529774398337	9
1	860	1924.655666632118	9
1	862	1925.505450703021	10
1	864	1925.829975339095	11
1	866	1935.226545363888	12
1	868	1935.58879072287	13
1	870	1935.70359640184	14
1	871	1945.052373538664	14
1	875	1960.077513178707	13
1	876	1960.254300033518	12
1	877	1961.780785888615	11
1	878	1969.810940265325	10
1	879	1972.85799903167	9
1	881	1977.715694456812	9
1	882	1978.390501520936	9
1	883	1980.72613883513	8
1	884	1985.030964662563	7
1	885	1991.792499232992	6
1	886	1993.00960675641	5
1	888	1999.230398836984	5
1	889	1999.545518901511	5
1	890	2001.007842535719	4
1	895	2011.407925776068	4
1	896	2013.721746144308	4
1	897	2018.384537565035	3
1	898	2024.297491818194	2
1	899	2029.968479960046	1
1	900	2030.07711776891	0
1	902	2034.806196267955	0
1	903	2034.873939068185	0
1	907	2055.555497537374	0
1	909	2065.060819971694	0
1	914	2089.775272916261	0
1	918	2090.88877186885	1
1	920	2095.110096941955	2
1	922	2102.236732081801	2
1	924	2102.439649176249	2
1	926	2106.021876466934	3
1	927	2106.76076166446	3
1	929	2109.291786164653	3
1	931	2114.395459772272	4
1	933	2115.168904883532	5
1	935	2116.267823271359	6
1	939	2122.901772868527	7
1	941	2123.062148492924	8
1	951	2148.457985402315	9
1	953	2151.828213339695	10
1	957	2160.367110380213	11
1	961	2162.102240589715	12
1	963	2162.187808588662	13
1	965	2166.088356402654	14
1	967	2186.554165826216	14
1	968	2186.816910514419	13
1	970	2189.531676080038	13
1	975	2194.994834075687	14
1	976	2195.60927137182	14
1	977	2196.299843566661	13
1	979	2197.694611454535	13
1	983	2206.647783327268	13
1	985	2209.48532261622	13
1	987	2211.311621876526	14
1	988	2214.70150791926	14
1	989	2218.006777085324	13
1	990	2219.472990708318	12
1	991	2219.610060047978	11
1	993	2221.220665968171	11
1	994	2221.712630250324	11
1	995	2236.592455187124	10
1	999	2243.478928328736	10
1	1001	2246.199873964957	11
1	1003	2250.397060634754	12
1	1009	2260.291567120752	13
1	1010	2262.677797151948	13
1	1011	2267.696507211904	12
1	1012	2272.670980201334	11
1	1014	2273.128379691331	11
1	1016	2278.94146497112	12
1	1017	2280.620093409482	12
1	1019	2283.518189796709	12
1	1020	2283.715025817281	12
1	1021	2288.735470653154	11
1	1023	2292.05464674669	11
1	1024	2297.859539144336	11
1	1025	2309.200133144559	10
1	1026	2309.83931696045	9
1	1027	2321.112999927611	8
1	1028	2321.591659304186	7
1	1029	2322.12463103366	6
1	1031	2322.682949916442	6
1	1032	2324.239044622182	6
1	1033	2325.487945908327	5
1	1034	2336.184170102029	4
1	1035	2339.593287146998	3
1	1036	2341.878773528668	2
1	1037	2343.33213223683	1
1	1038	2347.814062332459	0
1	1043	2365.592731081332	0
1	1044	2366.619925412216	0
1	1046	2367.633303705858	0
1	1047	2368.398127830235	0
1	1055	2394.973432391493	0
1	1056	2395.115081198251	0
1	1060	2396.233325765036	0
1	1062	2396.432639650882	1
1	1068	2406.724507506172	2
1	1070	2415.544886743746	3
1	1072	2427.390809023039	4
1	1074	2432.409733102057	5
1	1086	2460.200756621562	6
1	1088	2460.798367668201	7
1	1093	2463.437583920972	8
1	1098	2468.036643076955	9
1	1100	2468.171923063472	10
1	1102	2469.518480614558	11
1	1104	2483.984285460263	12
1	1106	2485.431446660174	13
1	1112	2495.212845808239	14
2	152	363.588044244919	19
2	159	374.885342243114	20
2	189	437.02112510291	21
2	203	476.286639676186	22
2	211	505.344593510225	23
2	217	518.332872888665	24
2	227	545.054108380203	25
2	230	553.392106752728	26
2	233	563.134391840077	27
2	237	573.480962566131	28
2	240	578.320353567084	29
2	243	588.0448745387	30
2	260	636.702881163065	31
2	265	652.442943383049	32
2	266	654.661692126444	33
2	267	664.265621033098	34
2	292	709.510594262068	35
2	295	722.415166445742	36
2	302	735.682403885716	37
2	317	768.878115308594	38
2	320	772.530056056814	39
2	343	819.238380162337	40
2	344	821.215279521979	41
2	359	841.299874747	42
2	362	846.994072086175	43
2	363	849.412468623886	44
2	366	852.236495800782	45
2	406	947.786575235742	46
2	411	960.264913737633	47
2	439	1013.828010642505	48
2	440	1016.535850066396	49
2	452	1030.669268406992	50
2	455	1042.737348329643	51
2	469	1062.472160903302	52
2	470	1064.770907837586	53
2	471	1065.433025955972	54
2	475	1083.112980989402	55
2	500	1123.788082321393	56
2	515	1162.676417915338	57
2	525	1183.289614395909	58
2	534	1218.809539899134	59
2	537	1222.006252241705	60
2	538	1225.232197336847	61
2	563	1268.183060287214	62
2	568	1285.912056596331	63
2	579	1298.943165459507	64
2	580	1302.372419731525	65
2	581	1314.033727226224	66
2	582	1317.316650802625	67
2	585	1325.277665317313	68
2	588	1329.810772018341	69
2	589	1331.519388162418	70
2	590	1331.558506728256	71
2	610	1371.455668052975	72
2	611	1378.045914808633	73
2	612	1382.138504158333	74
2	615	1382.64226584377	75
2	624	1395.299262700268	76
2	625	1396.462851588733	77
2	628	1420.51952083777	78
2	629	1423.3368360878	79
2	662	1507.185038757095	80
2	669	1528.981013910818	81
2	679	1553.51332528238	82
2	698	1588.000343075161	83
2	705	1596.131886818339	84
2	729	1638.912267011398	85
2	736	1659.366141431841	86
2	742	1668.137087310601	87
2	748	1680.610631655482	88
2	759	1699.546065955363	89
2	760	1700.513813724929	90
2	770	1734.147431103509	91
2	773	1735.891935610585	92
2	779	1746.681327588371	93
2	784	1751.328037043908	94
2	805	1807.130027505372	95
2	808	1810.123583787886	96
2	817	1830.287467366668	97
2	829	1855.098315127563	98
2	845	1889.935523133103	99
2	874	1953.209151346311	100
2	893	2011.396244965823	101
2	908	2063.642635577983	102
2	912	2074.758131406737	103
2	921	2098.488219632306	104
2	946	2143.372901226021	105
2	949	2148.024701862951	106
2	954	2156.900198198265	107
2	955	2158.335219562411	108
2	966	2177.772159926796	109
2	973	2193.187438013844	110
2	982	2205.618468045813	111
2	1004	2251.233163492881	112
2	1007	2259.429605360793	113
2	1041	2358.136454469361	114
2	1050	2370.174921670373	115
2	1053	2389.543426026063	116
2	1081	2438.855542825815	117
2	1082	2448.368750652806	118
2	1083	2449.201865417503	119
2	1084	2457.747444786712	120
2	1091	2462.875135793082	121
2	1094	2465.475492434377	122
2	1107	2491.63573122382	123
2	1108	2491.847464733178	124
3	152	363.588044244919	0
3	156	370.280462470171	0
3	159	374.885342243114	0
3	186	431.695952669617	0
3	189	437.02112510291	0
3	200	474.147170758762	0
3	203	476.286639676186	0
3	208	481.480691986513	0
3	211	505.344593510225	0
3	214	510.24761767968	0
3	217	518.332872888665	0
3	224	539.94106415391	0
3	227	545.054108380203	0
3	229	550.161117734889	0
3	230	553.392106752728	0
3	232	557.673753371508	0
3	233	563.134391840077	0
3	236	567.956109043973	0
3	237	573.480962566131	0
3	239	575.15768250753	0
3	240	578.320353567084	0
3	242	580.804250949928	0
3	243	588.0448745387	0
3	245	610.465880879532	0
3	247	612.633669047796	1
3	249	621.078268320571	2
3	259	631.86060202898	3
3	260	636.702881163065	3
3	265	652.442943383049	2
3	266	654.661692126444	1
3	267	664.265621033098	0
3	287	705.638349697495	0
3	289	706.665987554936	1
3	291	707.236119425818	2
3	292	709.510594262068	2
3	295	722.415166445742	1
3	302	735.682403885716	0
3	310	751.530606146162	0
3	316	766.408258009834	1
3	317	768.878115308594	1
3	319	771.611960097243	1
3	320	772.530056056814	1
3	330	795.70823994459	1
3	343	819.238380162337	1
3	344	821.215279521979	0
3	350	828.587694700615	0
3	356	835.695198389493	1
3	358	841.24604760731	2
3	359	841.299874747	2
3	361	842.50405940262	2
3	362	846.994072086175	2
3	363	849.412468623886	1
3	366	852.236495800782	0
3	405	940.112090574546	0
3	406	947.786575235742	0
3	410	959.878403606532	0
3	411	960.264913737633	0
3	434	995.112056211267	0
3	438	1009.65256758039	1
3	439	1013.828010642505	1
3	440	1016.535850066396	0
3	449	1021.842623488271	0
3	451	1022.186221008682	1
3	452	1030.669268406992	1
3	455	1042.737348329643	0
3	464	1054.979966281205	0
3	466	1058.081305622748	1
3	468	1061.030308005097	2
3	469	1062.472160903302	2
3	470	1064.770907837586	1
3	471	1065.433025955972	0
3	474	1081.310136359704	0
3	475	1083.112980989402	0
3	497	1121.105252247653	0
3	500	1123.788082321393	0
3	514	1158.332650760421	0
3	515	1162.676417915338	0
3	522	1174.615342786981	0
3	525	1183.289614395909	0
3	529	1185.093400042341	0
3	531	1195.169701464507	1
3	534	1218.809539899134	1
3	536	1221.399061453619	1
3	537	1222.006252241705	1
3	538	1225.232197336847	0
3	544	1238.355828248703	0
3	546	1242.986426439704	1
3	550	1252.324057016316	2
3	552	1252.81041227046	3
3	556	1262.62134059803	4
3	560	1265.720375963125	5
3	563	1268.183060287214	5
3	565	1274.056234699699	5
3	568	1285.912056596331	5
3	570	1287.083915815885	5
3	574	1290.607169038882	6
3	578	1295.126534913334	7
3	579	1298.943165459507	7
3	580	1302.372419731525	6
3	581	1314.033727226224	5
3	582	1317.316650802625	4
3	585	1325.277665317313	3
3	588	1329.810772018341	2
3	589	1331.519388162418	1
3	590	1331.558506728256	0
3	593	1338.251262635238	0
3	595	1344.542083468712	1
3	597	1356.591721693122	2
3	599	1356.936211215667	3
3	601	1362.588580326634	4
3	605	1368.062489851398	5
3	607	1369.039045075951	6
3	610	1371.455668052975	6
3	611	1378.045914808633	5
3	612	1382.138504158333	4
3	615	1382.64226584377	3
3	624	1395.299262700268	2
3	625	1396.462851588733	1
3	627	1410.890176308349	1
3	628	1420.51952083777	1
3	629	1423.3368360878	0
3	661	1503.835474818698	0
3	662	1507.185038757095	0
3	664	1510.056245344328	0
3	669	1528.981013910818	0
3	672	1533.178873992729	0
3	679	1553.51332528238	0
3	697	1585.545449449645	0
3	698	1588.000343075161	0
3	702	1589.129463026233	0
3	705	1596.131886818339	0
3	728	1636.874992284231	0
3	729	1638.912267011398	0
3	735	1656.129627720702	0
3	736	1659.366141431841	0
3	741	1663.277407136755	0
3	742	1668.137087310601	0
3	747	1680.310452974527	0
3	748	1680.610631655482	0
3	754	1691.970041177819	0
3	756	1696.58688266278	1
3	759	1699.546065955363	1
3	760	1700.513813724929	0
3	767	1719.818776411279	0
3	769	1727.169572722012	1
3	770	1734.147431103509	1
3	773	1735.891935610585	0
3	778	1742.98295227048	0
3	779	1746.681327588371	0
3	783	1747.946618758475	0
3	784	1751.328037043908	0
3	796	1794.976383704355	0
3	805	1807.130027505372	0
3	807	1807.995699510076	0
3	808	1810.123583787886	0
3	814	1827.469922869166	0
3	817	1830.287467366668	0
3	822	1835.994284715025	0
3	829	1855.098315127563	0
3	844	1889.088743691529	0
3	845	1889.935523133103	0
3	873	1946.729588832254	0
3	874	1953.209151346311	0
3	892	2004.62429793366	0
3	893	2011.396244965823	0
3	905	2054.459779923515	0
3	908	2063.642635577983	0
3	911	2074.413488317576	0
3	912	2074.758131406737	0
3	916	2090.254935787689	0
3	921	2098.488219632306	0
3	937	2118.376201383707	0
3	943	2123.529966614318	1
3	945	2128.125391186792	2
3	946	2143.372901226021	2
3	948	2147.792189658182	2
3	949	2148.024701862951	2
3	954	2156.900198198265	1
3	955	2158.335219562411	0
3	959	2160.434193921626	0
3	966	2177.772159926796	0
3	972	2192.585280357836	0
3	973	2193.187438013844	0
3	981	2205.482816027784	0
3	982	2205.618468045813	0
3	997	2242.158972086936	0
3	1004	2251.233163492881	0
3	1006	2252.357253508174	0
3	1007	2259.429605360793	0
3	1040	2349.783810657802	0
3	1041	2358.136454469361	0
3	1049	2369.802429443491	0
3	1050	2370.174921670373	0
3	1052	2381.692791746694	0
3	1053	2389.543426026063	0
3	1058	2395.775553395185	0
3	1064	2397.022295827693	1
3	1066	2397.996189404248	2
3	1076	2433.487883053021	3
3	1078	2433.832617070752	4
3	1080	2437.057922805673	5
3	1081	2438.855542825815	5
3	1082	2448.368750652806	4
3	1083	2449.201865417503	3
3	1084	2457.747444786712	2
3	1090	2461.518468346402	2
3	1091	2462.875135793082	2
3	1094	2465.475492434377	1
3	1096	2465.729271570205	1
3	1107	2491.63573122382	1
3	1108	2491.847464733178	0
3	1110	2493.276094709187	0
4	152	363.588044244919	27.588997463981
4	159	374.885342243114	4.604879772943
4	189	437.02112510291	5.325172433293
4	203	476.286639676186	2.139468917424
4	211	505.344593510225	23.863901523712
4	217	518.332872888665	8.085255208985
4	227	545.054108380203	5.113044226293
4	230	553.392106752728	3.230989017839
4	233	563.134391840077	5.460638468569
4	237	573.480962566131	5.524853522158
4	240	578.320353567084	3.162671059554
4	243	588.0448745387	7.240623588772
4	260	636.702881163065	26.237000283533
4	265	652.442943383049	39.809274335253
4	266	654.661692126444	33.583423805873
4	267	664.265621033098	32.405019004118
4	292	709.510594262068	3.872244564573
4	295	722.415166445742	15.749178890806
4	302	735.682403885716	28.446284459898
4	317	768.878115308594	17.347509162432
4	320	772.530056056814	6.12179804698
4	343	819.238380162337	47.626420065094
4	344	821.215279521979	25.507039577389
4	359	841.299874747	12.712180046385
4	362	846.994072086175	11.298873696682
4	363	849.412468623886	8.166421016576
4	366	852.236495800782	9.732436398162
4	406	947.786575235742	7.674484661196
4	411	960.264913737633	0.386510131101
4	439	1013.828010642505	18.715954431238
4	440	1016.535850066396	6.883282486006
4	452	1030.669268406992	8.826644918721
4	455	1042.737348329643	20.551127320961
4	469	1062.472160903302	7.492194622097
4	470	1064.770907837586	6.689602214838
4	471	1065.433025955972	4.402717950875
4	475	1083.112980989402	1.802844629698
4	500	1123.788082321393	2.68283007374
4	515	1162.676417915338	4.343767154917
4	525	1183.289614395909	8.674271608928
4	534	1218.809539899134	33.716139856793
4	537	1222.006252241705	26.836550777198
4	538	1225.232197336847	3.833135883228
4	563	1268.183060287214	29.827232038511
4	568	1285.912056596331	42.925630156627
4	579	1298.943165459507	46.619108443191
4	580	1302.372419731525	49.562007461065
4	581	1314.033727226224	51.412386628194
4	582	1317.316650802625	51.5962748395
4	585	1325.277665317313	51.221430617614
4	588	1329.810772018341	42.726856202456
4	589	1331.519388162418	40.912219123536
4	590	1331.558506728256	36.431971814922
4	610	1371.455668052975	33.204405417737
4	611	1378.045914808633	33.503831339921
4	612	1382.138504158333	25.546782465211
4	615	1382.64226584377	25.706054628103
4	624	1395.299262700268	32.710682373634
4	625	1396.462851588733	28.400361737335
4	628	1420.51952083777	51.480475761819
4	629	1423.3368360878	12.446659779451
4	662	1507.185038757095	3.349563938397
4	669	1528.981013910818	18.92476856649
4	679	1553.51332528238	20.334451289651
4	698	1588.000343075161	2.454893625516
4	705	1596.131886818339	7.002423792106
4	729	1638.912267011398	2.037274727167
4	736	1659.366141431841	3.236513711139
4	742	1668.137087310601	4.859680173846
4	748	1680.610631655482	0.300178680955
4	759	1699.546065955363	7.576024777544
4	760	1700.513813724929	3.926931062149
4	770	1734.147431103509	14.32865469223
4	773	1735.891935610585	8.722362888573
4	779	1746.681327588371	3.698375317891
4	784	1751.328037043908	3.381418285433
4	805	1807.130027505372	12.153643801017
4	808	1810.123583787886	2.12788427781
4	817	1830.287467366668	2.817544497502
4	829	1855.098315127563	19.104030412538
4	845	1889.935523133103	0.846779441574
4	874	1953.209151346311	6.479562514057
4	893	2011.396244965823	6.771947032163
4	908	2063.642635577983	9.182855654468
4	912	2074.758131406737	0.344643089161
4	921	2098.488219632306	8.233283844617
4	946	2143.372901226021	24.996699842314
4	949	2148.024701862951	24.494735248633
4	954	2156.900198198265	28.774807011473
4	955	2158.335219562411	10.543029904229
4	966	2177.772159926796	17.33796600517
4	973	2193.187438013844	0.602157656008
4	982	2205.618468045813	0.135652018029
4	1004	2251.233163492881	9.074191405945
4	1007	2259.429605360793	7.072351852619
4	1041	2358.136454469361	8.352643811559
4	1050	2370.174921670373	0.372492226882
4	1053	2389.543426026063	7.850634279369
4	1081	2438.855542825815	43.07998943063
4	1082	2448.368750652806	51.346454825113
4	1083	2449.201865417503	51.205676013255
4	1084	2457.747444786712	24.259561733691
4	1091	2462.875135793082	29.04251872233
4	1094	2465.475492434377	28.417569628704
4	1107	2491.63573122382	30.117262877418
4	1108	2491.847464733178	26.118193162973
5	152	363.588044244919	77.099970811775
5	153	366.189451379343	66.268997237588
5	154	369.692294820465	63.839961110508
5	159	374.885342243114	66.168361855497
5	162	380.413785617751	70.520690930576
5	165	391.157501705398	79.025750358914
5	166	397.064958533642	76.817295456153
5	167	397.852012733526	75.509489254924
5	170	406.800130256781	81.387700697809
5	171	407.823968489372	78.47910524811
5	172	408.206592067099	72.207545286161
5	173	412.70889126232	67.305144788786
5	174	413.0624783673	61.653075409723
5	177	413.938584865787	43.658122395616
5	180	417.048651483767	46.271178367172
5	181	421.916820939357	43.428591607153
5	182	422.476396937653	31.398338047864
5	183	427.070596458452	29.091712918842
5	184	427.372825140582	14.094615713118
5	189	437.02112510291	22.526569749785
5	194	440.699366741764	9.003414072147
5	195	449.04322020921	14.136274998088
5	196	449.313631246004	12.222344686404
5	197	458.392494804647	19.42631956666
5	203	476.286639676186	2.025973307066
5	206	480.065795011029	0
5	211	505.344593510225	23.863901523712
5	212	507.173043087669	9.941956724927
5	217	518.332872888665	8.085255208985
5	220	519.118302012846	7.041516962366
5	221	527.228729226394	8.283172112381
5	227	545.054108380203	0.836612839642
5	230	553.392106752728	3.230989017839
5	233	563.134391840077	5.460638468569
5	267	664.265621033098	41.007471125083
5	270	665.218028666139	37.612808604907
5	273	672.759497655653	44.020159132199
5	280	677.890603060997	47.883715378537
5	281	678.376106075447	30.667269359679
5	282	688.429287403406	36.044782177743
5	285	704.422125611581	40.148607342705
5	302	735.682403885716	69.394249764334
5	303	744.970695238601	70.623346967637
5	304	746.137447954309	71.711892545323
5	305	747.722488809103	71.82323263273
5	306	748.336900960622	47.576838036804
5	344	821.215279521979	115.57692982448
5	366	852.236495800782	141.37090630319
5	367	852.63431310318	127.80570429417
5	368	855.880437434973	125.17131449065
5	369	858.274252028755	126.42598098513
5	370	863.593351884991	114.38530180202
5	371	864.550079051778	113.01947290562
5	372	864.653238403784	104.16081745983
5	373	865.775526991122	100.02723471194
5	374	868.938501400888	95.448115458137
5	377	871.289982645409	91.077626453288
5	378	872.068777588891	84.413817400278
5	379	873.701646009472	85.37815798519
5	382	880.07056977633	82.21500292221
5	383	882.034118506223	83.62033732031
5	384	890.391660021937	79.097416678215
5	385	894.485513869399	81.36479174348
5	386	895.277800253554	81.451693993613
5	391	905.122832943067	88.440065766847
5	392	916.929968579857	93.952484691399
5	399	931.707385313157	106.965691666
5	406	947.786575235742	119.19888053513
5	411	960.264913737633	129.33351846946
5	414	963.297481853116	128.63941270635
5	415	963.3163670838	111.3108112754
5	416	966.450463735458	96.746809706193
5	419	971.592749039892	97.288118742002
5	428	984.68630815888	84.5466798911
5	440	1016.535850066396	111.64641526015
5	443	1017.218115197747	99.07228398863
5	444	1017.892757997316	99.054090529924
5	445	1018.863491055497	88.431307826718
5	455	1042.737348329643	108.7203417743
5	458	1045.890882198101	111.59174473983
5	459	1046.51077171892	106.39868114437
5	462	1052.066091244723	97.243293408183
5	471	1065.433025955972	105.55462234944
5	472	1076.012297953277	114.38559065981
5	475	1083.112980989402	114.83283091831
5	476	1087.43633434987	115.64261217209
5	483	1096.957201299162	122.80577902064
5	484	1096.964569889275	120.01857847557
5	485	1098.955799264302	120.5608649176
5	486	1099.166946340471	112.74560934512
5	489	1112.680143079613	125.3535744708
5	490	1115.421615559093	120.30955934783
5	495	1120.054686896504	119.01851009868
5	500	1123.788082321393	107.03993626156
5	503	1130.163316298234	109.65309819149
5	506	1134.907459614343	113.06483612607
5	507	1146.62416436447	112.62457924525
5	512	1154.653779175828	110.89721572264
5	515	1162.676417915338	111.05550217844
5	516	1167.824496774829	112.84453049362
5	525	1183.289614395909	101.9794780362
5	538	1225.232197336847	136.8238232244
5	539	1230.918929018345	140.28285707593
5	540	1231.404580132582	135.89669657103
5	590	1331.558506728256	223.40702171283
5	591	1334.595025848525	215.44733918816
5	629	1423.3368360878	303.89003463068
5	630	1424.486195092686	303.38094284503
5	635	1427.151156085082	303.72537312034
5	636	1427.215850224583	300.69828203483
5	637	1433.283456233108	302.2304282224
5	638	1445.933247093006	294.91392065733
5	639	1447.123855812132	294.23824346272
5	640	1448.044221345766	289.71157058534
5	643	1458.482162147716	288.68834412772
5	644	1458.636447803298	286.20574167589
5	645	1466.187370524854	291.57202773787
5	646	1476.977987615434	300.19256562762
5	647	1477.153642040673	293.55299166768
5	648	1478.14083638319	293.04743634085
5	649	1483.327585577209	284.69741887719
5	650	1484.772899646106	252.73524801324
5	651	1487.686820714581	249.33099246588
5	656	1495.500221506098	245.97378123423
5	659	1496.69635206264	242.38672150804
5	662	1507.185038757095	243.87906967633
5	669	1528.981013910818	261.51662377444
5	670	1530.645654367099	248.34634803723
5	679	1553.51332528238	265.81519169148
5	680	1560.365920232631	266.76397190834
5	681	1561.598796321845	238.38485690087
5	684	1562.73983918902	233.52743717055
5	689	1571.525771744321	233.27450910908
5	690	1574.349935856347	210.73989174465
5	693	1577.086109021988	207.13989547236
5	694	1578.03562506233	195.57486974671
5	695	1580.507487594099	196.00587287733
5	698	1588.000343075161	200.79238084153
5	705	1596.131886818339	208.80641482359
5	706	1596.983525145056	203.26127657698
5	707	1598.77256415148	173.59746666019
5	710	1605.743388875933	180.54692181871
5	711	1606.95931081114	153.12931658211
5	712	1614.709075588168	123.95808713708
5	713	1616.333334741735	125.0931376891
5	714	1619.229447019192	122.68633018663
5	719	1623.236735182865	119.40126036417
5	722	1630.56608423168	120.50983888735
5	723	1631.604214261153	106.35268339582
5	726	1633.37523887686	106.91076510197
5	729	1638.912267011398	105.73339301867
5	730	1642.473548979274	108.32278523426
5	731	1644.292814953463	105.47244983366
5	732	1648.991813398356	108.09478844091
5	733	1653.180062955545	91.226111271565
5	736	1659.366141431841	94.132579377073
5	737	1662.093281017126	95.464726883286
5	738	1662.298662067241	87.111434454244
5	739	1662.406382014358	76.860932564713
5	742	1668.137087310601	79.364476390974
5	743	1669.033271495175	79.903808468942
5	748	1680.610631655482	85.336405512545
5	749	1680.66901440568	79.460819947388
5	750	1690.313649758373	67.39593504973
5	751	1690.39068116356	67.366102647812
5	752	1691.035003383468	65.374423093573
5	760	1700.513813724929	67.240049408774
5	761	1700.745309129658	63.870316845427
5	773	1735.891935610585	79.762307889883
5	776	1742.088767549938	78.811360413183
5	779	1746.681327588371	68.256694955917
5	784	1751.328037043908	71.017584069381
5	791	1776.697154542646	84.727113364827
5	792	1789.169191701433	91.199986926045
5	793	1792.126723608073	84.908625808002
5	794	1792.266156303228	79.828834250429
5	805	1807.130027505372	87.311251094093
5	808	1810.123583787886	75.93229436902
5	817	1830.287467366668	89.342872647198
5	818	1833.131965871539	90.149013601059
5	829	1855.098315127563	108.13094481627
5	832	1859.902455919998	111.95583716152
5	837	1873.32041877025	116.30247150389
5	838	1873.326202373347	104.50018041516
5	839	1878.711681616849	107.58023870364
5	840	1881.00849876829	86.032115063935
5	845	1889.935523133103	89.636066736186
5	846	1892.690122450985	90.531541181228
5	847	1902.047241342073	96.423482431826
5	848	1902.604429135326	95.892968774628
5	849	1903.115940597558	95.120241087482
5	850	1906.993000971007	89.859829435708
5	851	1911.360867924575	85.548004577791
5	852	1911.836405079303	84.366482210137
5	853	1913.33356821032	85.469294200502
5	854	1914.32512291314	81.067013827886
5	857	1918.274176312802	82.279891597777
5	858	1919.529774398337	81.413035596285
5	871	1945.052373538664	96.353281664817
5	874	1953.209151346311	104.26619185744
5	875	1960.077513178707	104.66988479575
5	876	1960.254300033518	96.739110301233
5	877	1961.780785888615	94.610642157995
5	878	1969.810940265325	86.780093630285
5	879	1972.85799903167	83.769255340141
5	882	1978.390501520936	60.244222260242
5	883	1980.72613883513	56.070472203012
5	884	1985.030964662563	59.525513959542
5	885	1991.792499232992	65.962523893897
5	886	1993.00960675641	57.783061392522
5	889	1999.545518901511	63.956728178641
5	890	2001.007842535719	65.304246133879
5	893	2011.396244965823	64.666656133569
5	896	2013.721746144308	36.006051687496
5	897	2018.384537565035	19.154138728051
5	898	2024.297491818194	19.673193884534
5	899	2029.968479960046	18.560554183978
5	902	2034.806196267955	0
5	908	2063.642635577983	8.087138040609
5	914	2089.775272916261	0
5	921	2098.488219632306	8.233283844617
5	922	2102.236732081801	11.347960212951
5	927	2106.76076166446	11.650664722505
5	955	2158.335219562411	55.895570386162
5	966	2177.772159926796	71.750283459862
5	967	2186.554165826216	77.262379661563
5	968	2186.816910514419	72.421450742147
5	973	2193.187438013844	78.018533130312
5	976	2195.60927137182	79.341448100461
5	977	2196.299843566661	77.923642182954
5	982	2205.618468045813	82.716695177286
5	983	2206.647783327268	83.585634834344
5	988	2214.70150791926	66.243522516945
5	989	2218.006777085324	66.178563745629
5	990	2219.472990708318	59.105880328105
5	991	2219.610060047978	59.175866126352
5	994	2221.712630250324	59.610389660609
5	995	2236.592455187124	74.404646598462
5	1004	2251.233163492881	85.144807090227
5	1007	2259.429605360793	69.897929280755
5	1010	2262.677797151948	70.092516794112
5	1011	2267.696507211904	72.701673136217
5	1012	2272.670980201334	74.976368746799
5	1017	2280.620093409482	75.137277381698
5	1020	2283.715025817281	74.229703201061
5	1021	2288.735470653154	77.423848776628
5	1024	2297.859539144336	76.638873176165
5	1025	2309.200133144559	67.041161057623
5	1026	2309.83931696045	66.360388631714
5	1027	2321.112999927611	74.913125962654
5	1028	2321.591659304186	71.194598669432
5	1029	2322.12463103366	69.767377525486
5	1032	2324.239044622182	63.94747750143
5	1033	2325.487945908327	52.359566216996
5	1034	2336.184170102029	57.242705130909
5	1035	2339.593287146998	56.075097350289
5	1036	2341.878773528668	49.824126781978
5	1037	2343.33213223683	20.649182320388
5	1043	2365.592731081332	0
5	1046	2367.633303705858	0
5	1055	2394.973432391493	0
5	1108	2491.847464733178	95.614138968142
6	153	366.189451379343	24
6	154	369.692294820465	25
6	162	380.413785617751	26
6	165	391.157501705398	27
6	166	397.064958533642	28
6	167	397.852012733526	29
6	170	406.800130256781	30
6	171	407.823968489372	31
6	172	408.206592067099	32
6	173	412.70889126232	33
6	174	413.0624783673	34
6	177	413.938584865787	35
6	180	417.048651483767	36
6	181	421.916820939357	37
6	182	422.476396937653	38
6	183	427.070596458452	39
6	184	427.372825140582	40
6	194	440.699366741764	41
6	195	449.04322020921	42
6	196	449.313631246004	43
6	197	458.392494804647	44
6	198	462.601479692133	45
6	204	478.189558525595	46
6	212	507.173043087669	47
6	220	519.118302012846	48
6	221	527.228729226394	49
6	222	527.482531255071	50
6	234	563.179976594309	51
6	270	665.218028666139	52
6	273	672.759497655653	53
6	280	677.890603060997	54
6	281	678.376106075447	55
6	282	688.429287403406	56
6	285	704.422125611581	57
6	303	744.970695238601	58
6	304	746.137447954309	59
6	305	747.722488809103	60
6	306	748.336900960622	61
6	367	852.63431310318	62
6	368	855.880437434973	63
6	369	858.274252028755	64
6	370	863.593351884991	65
6	371	864.550079051778	66
6	372	864.653238403784	67
6	373	865.775526991122	68
6	374	868.938501400888	69
6	377	871.289982645409	70
6	378	872.068777588891	71
6	379	873.701646009472	72
6	382	880.07056977633	73
6	383	882.034118506223	74
6	384	890.391660021937	75
6	385	894.485513869399	76
6	386	895.277800253554	77
6	391	905.122832943067	78
6	392	916.929968579857	79
6	399	931.707385313157	80
6	414	963.297481853116	81
6	415	963.3163670838	82
6	416	966.450463735458	83
6	419	971.592749039892	84
6	428	984.68630815888	85
6	443	1017.218115197747	86
6	444	1017.892757997316	87
6	445	1018.863491055497	88
6	458	1045.890882198101	89
6	459	1046.51077171892	90
6	462	1052.066091244723	91
6	472	1076.012297953277	92
6	476	1087.43633434987	93
6	483	1096.957201299162	94
6	484	1096.964569889275	95
6	485	1098.955799264302	96
6	486	1099.166946340471	97
6	489	1112.680143079613	98
6	490	1115.421615559093	99
6	495	1120.054686896504	100
6	503	1130.163316298234	101
6	506	1134.907459614343	102
6	507	1146.62416436447	103
6	512	1154.653779175828	104
6	516	1167.824496774829	105
6	539	1230.918929018345	106
6	540	1231.404580132582	107
6	591	1334.595025848525	108
6	630	1424.486195092686	109
6	635	1427.151156085082	110
6	636	1427.215850224583	111
6	637	1433.283456233108	112
6	638	1445.933247093006	113
6	639	1447.123855812132	114
6	640	1448.044221345766	115
6	643	1458.482162147716	116
6	644	1458.636447803298	117
6	645	1466.187370524854	118
6	646	1476.977987615434	119
6	647	1477.153642040673	120
6	648	1478.14083638319	121
6	649	1483.327585577209	122
6	650	1484.772899646106	123
6	651	1487.686820714581	124
6	656	1495.500221506098	125
6	659	1496.69635206264	126
6	670	1530.645654367099	127
6	680	1560.365920232631	128
6	681	1561.598796321845	129
6	684	1562.73983918902	130
6	689	1571.525771744321	131
6	690	1574.349935856347	132
6	693	1577.086109021988	133
6	694	1578.03562506233	134
6	695	1580.507487594099	135
6	706	1596.983525145056	136
6	707	1598.77256415148	137
6	710	1605.743388875933	138
6	711	1606.95931081114	139
6	712	1614.709075588168	140
6	713	1616.333334741735	141
6	714	1619.229447019192	142
6	719	1623.236735182865	143
6	722	1630.56608423168	144
6	723	1631.604214261153	145
6	726	1633.37523887686	146
6	730	1642.473548979274	147
6	731	1644.292814953463	148
6	732	1648.991813398356	149
6	733	1653.180062955545	150
6	737	1662.093281017126	151
6	738	1662.298662067241	152
6	739	1662.406382014358	153
6	743	1669.033271495175	154
6	749	1680.66901440568	155
6	750	1690.313649758373	156
6	751	1690.39068116356	157
6	752	1691.035003383468	158
6	761	1700.745309129658	159
6	776	1742.088767549938	160
6	791	1776.697154542646	161
6	792	1789.169191701433	162
6	793	1792.126723608073	163
6	794	1792.266156303228	164
6	818	1833.131965871539	165
6	832	1859.902455919998	166
6	837	1873.32041877025	167
6	838	1873.326202373347	168
6	839	1878.711681616849	169
6	840	1881.00849876829	170
6	846	1892.690122450985	171
6	847	1902.047241342073	172
6	848	1902.604429135326	173
6	849	1903.115940597558	174
6	850	1906.993000971007	175
6	851	1911.360867924575	176
6	852	1911.836405079303	177
6	853	1913.33356821032	178
6	854	1914.32512291314	179
6	857	1918.274176312802	180
6	858	1919.529774398337	181
6	871	1945.052373538664	182
6	875	1960.077513178707	183
6	876	1960.254300033518	184
6	877	1961.780785888615	185
6	878	1969.810940265325	186
6	879	1972.85799903167	187
6	882	1978.390501520936	188
6	883	1980.72613883513	189
6	884	1985.030964662563	190
6	885	1991.792499232992	191
6	886	1993.00960675641	192
6	889	1999.545518901511	193
6	890	2001.007842535719	194
6	896	2013.721746144308	195
6	897	2018.384537565035	196
6	898	2024.297491818194	197
6	899	2029.968479960046	198
6	900	2030.07711776891	199
6	903	2034.873939068185	200
6	909	2065.060819971694	201
6	922	2102.236732081801	202
6	927	2106.76076166446	203
6	967	2186.554165826216	204
6	968	2186.816910514419	205
6	976	2195.60927137182	206
6	977	2196.299843566661	207
6	983	2206.647783327268	208
6	988	2214.70150791926	209
6	989	2218.006777085324	210
6	990	2219.472990708318	211
6	991	2219.610060047978	212
6	994	2221.712630250324	213
6	995	2236.592455187124	214
6	1010	2262.677797151948	215
6	1011	2267.696507211904	216
6	1012	2272.670980201334	217
6	1017	2280.620093409482	218
6	1020	2283.715025817281	219
6	1021	2288.735470653154	220
6	1024	2297.859539144336	221
6	1025	2309.200133144559	222
6	1026	2309.83931696045	223
6	1027	2321.112999927611	224
6	1028	2321.591659304186	225
6	1029	2322.12463103366	226
6	1032	2324.239044622182	227
6	1033	2325.487945908327	228
6	1034	2336.184170102029	229
6	1035	2339.593287146998	230
6	1036	2341.878773528668	231
6	1037	2343.33213223683	232
6	1038	2347.814062332459	233
6	1044	2366.619925412216	234
6	1047	2368.398127830235	235
6	1056	2395.115081198251	236
7	153	366.189451379343	79.701377946199
7	154	369.692294820465	69.77184067871
7	162	380.413785617751	71.696805230134
7	165	391.157501705398	81.264407018223
7	166	397.064958533642	84.933207187158
7	167	397.852012733526	77.604349656037
7	170	406.800130256781	84.457606778179
7	171	407.823968489372	82.4115389304
7	172	408.206592067099	78.861728825837
7	173	412.70889126232	76.709844481382
7	174	413.0624783673	67.658731893766
7	177	413.938584865787	62.52918190821
7	180	417.048651483767	46.768189013596
7	181	421.916820939357	51.139347822762
7	182	422.476396937653	43.988167605449
7	183	427.070596458452	35.992537568663
7	184	427.372825140582	29.393941600972
7	194	440.699366741764	26.204811388639
7	195	449.04322020921	17.347267539593
7	196	449.313631246004	14.406686034882
7	197	458.392494804647	21.301208245047
7	198	462.601479692133	23.635304454146
7	204	478.189558525595	3.928892156475
7	212	507.173043087669	25.692351101156
7	220	519.118302012846	8.870684333166
7	221	527.228729226394	15.151944175914
7	222	527.482531255071	8.536974141058
7	234	563.179976594309	5.506223222801
7	270	665.218028666139	41.959878758124
7	273	672.759497655653	45.154277594421
7	280	677.890603060997	49.151264537543
7	281	678.376106075447	48.369218392987
7	282	688.429287403406	40.720450687638
7	285	704.422125611581	52.037620385918
7	303	744.970695238601	78.682541117219
7	304	746.137447954309	71.790099683345
7	305	747.722488809103	73.296933400117
7	306	748.336900960622	72.437644784249
7	367	852.63431310318	141.76872360559
7	368	855.880437434973	131.05182862597
7	369	858.274252028755	127.56512908443
7	370	863.593351884991	131.74508084136
7	371	864.550079051778	115.34202896881
7	372	864.653238403784	113.12263225762
7	373	865.775526991122	105.28310604717
7	374	868.938501400888	103.1902091217
7	377	871.289982645409	97.799596702658
7	378	872.068777588891	91.85642139677
7	379	873.701646009472	86.046685820859
7	382	880.07056977633	91.747081752048
7	383	882.034118506223	84.178551652103
7	384	890.391660021937	91.977878836024
7	385	894.485513869399	83.191270525677
7	386	895.277800253554	82.157078127635
7	391	905.122832943067	91.296726683126
7	392	916.929968579857	100.24720140364
7	399	931.707385313157	108.7299014247
7	414	963.297481853116	132.36608658494
7	415	963.3163670838	128.65829793704
7	416	966.450463735458	114.44490792705
7	419	971.592749039892	101.88909501063
7	428	984.68630815888	110.38167786099
7	443	1017.218115197747	112.3286803915
7	444	1017.892757997316	99.746926788199
7	445	1018.863491055497	100.0248235881
7	458	1045.890882198101	111.87387564276
7	459	1046.51077171892	112.21163426065
7	462	1052.066091244723	111.95400067018
7	472	1076.012297953277	116.13389434674
7	476	1087.43633434987	119.15618427878
7	483	1096.957201299162	125.16347912138
7	484	1096.964569889275	122.81314761075
7	485	1098.955799264302	122.0098078506
7	486	1099.166946340471	120.77201199377
7	489	1112.680143079613	126.25880608426
7	490	1115.421615559093	128.09504695028
7	495	1120.054686896504	124.94263068524
7	503	1130.163316298234	113.4151702384
7	506	1134.907459614343	114.3972415076
7	507	1146.62416436447	124.7815408762
7	512	1154.653779175828	120.65419405661
7	516	1167.824496774829	116.20358103793
7	539	1230.918929018345	142.51055490589
7	540	1231.404580132582	140.76850819017
7	591	1334.595025848525	226.4435408331
7	630	1424.486195092686	305.03939363556
7	635	1427.151156085082	306.04590383743
7	636	1427.215850224583	303.79006725984
7	637	1433.283456233108	306.76588804336
7	638	1445.933247093006	314.8802190823
7	639	1447.123855812132	296.10452937646
7	640	1448.044221345766	295.15860899635
7	643	1458.482162147716	300.14951138729
7	644	1458.636447803298	288.84262978331
7	645	1466.187370524854	293.75666439744
7	646	1476.977987615434	302.36264482845
7	647	1477.153642040673	300.36822005286
7	648	1478.14083638319	294.5401860102
7	649	1483.327585577209	298.23418553487
7	650	1484.772899646106	286.14273294609
7	651	1487.686820714581	255.64916908171
7	656	1495.500221506098	257.14439325739
7	659	1496.69635206264	247.16991179078
7	670	1530.645654367099	263.18126423072
7	680	1560.365920232631	272.66778664173
7	681	1561.598796321845	267.99684799756
7	684	1562.73983918902	239.52589976804
7	689	1571.525771744321	242.31336972585
7	690	1574.349935856347	236.09867322111
7	693	1577.086109021988	213.47606491029
7	694	1578.03562506233	208.0894115127
7	695	1580.507487594099	198.04673227848
7	706	1596.983525145056	209.6580531503
7	707	1598.77256415148	205.0503155834
7	710	1605.743388875933	180.56829138464
7	711	1606.95931081114	181.76284375392
7	712	1614.709075588168	160.87908135914
7	713	1616.333334741735	125.58234629064
7	714	1619.229447019192	127.98924996656
7	719	1623.236735182865	126.6936183503
7	722	1630.56608423168	126.73060941298
7	723	1631.604214261153	121.54796891682
7	726	1633.37523887686	108.12370801153
7	730	1642.473548979274	109.29467498655
7	731	1644.292814953463	110.14205120845
7	732	1648.991813398356	110.17144827855
7	733	1653.180062955545	112.2830379981
7	737	1662.093281017126	96.859718962358
7	738	1662.298662067241	95.670107933401
7	739	1662.406382014358	87.219154401361
7	743	1669.033271495175	80.260660575548
7	749	1680.66901440568	85.394788262743
7	750	1690.313649758373	89.105455300081
7	751	1690.39068116356	67.472966454917
7	752	1691.035003383468	68.01042486772
7	761	1700.745309129658	67.471544813503
7	776	1742.088767549938	85.959139829236
7	791	1776.697154542646	96.386701568119
7	792	1789.169191701433	97.199150523614
7	793	1792.126723608073	94.157518832685
7	794	1792.266156303228	85.048058503157
7	818	1833.131965871539	92.187371152069
7	832	1859.902455919998	112.9350856087
7	837	1873.32041877025	125.37380001178
7	838	1873.326202373347	116.30825510698
7	839	1878.711681616849	109.88565965866
7	840	1881.00849876829	109.87705585508
7	846	1892.690122450985	92.390666054068
7	847	1902.047241342073	99.888660072316
7	848	1902.604429135326	96.980670225079
7	849	1903.115940597558	96.40448023686
7	850	1906.993000971007	98.997301460931
7	851	1911.360867924575	94.227696389276
7	852	1911.836405079303	86.023541732519
7	853	1913.33356821032	85.863645341154
7	854	1914.32512291314	86.460848903322
7	857	1918.274176312802	85.016067227548
7	858	1919.529774398337	83.535489683312
7	871	1945.052373538664	106.93563473661
7	875	1960.077513178707	111.13455368983
7	876	1960.254300033518	104.84667165056
7	877	1961.780785888615	98.26559615633
7	878	1969.810940265325	102.64079653471
7	879	1972.85799903167	89.82715239663
7	882	1978.390501520936	89.301757829407
7	883	1980.72613883513	62.579859574436
7	884	1985.030964662563	60.375298030445
7	885	1991.792499232992	66.287048529971
7	886	1993.00960675641	67.179631417315
7	889	1999.545518901511	64.318973537623
7	890	2001.007842535719	65.419051812849
7	896	2013.721746144308	66.992157312054
7	897	2018.384537565035	40.668843108223
7	898	2024.297491818194	25.06709298121
7	899	2029.968479960046	25.344182026386
7	900	2030.07711776891	18.669191992842
7	903	2034.873939068185	0.06774280023
7	909	2065.060819971694	9.50532243432
7	922	2102.236732081801	11.981796294112
7	927	2106.76076166446	15.87198979561
7	967	2186.554165826216	80.532289359282
7	968	2186.816910514419	77.525124349766
7	976	2195.60927137182	80.440366488288
7	977	2196.299843566661	80.032020295302
7	983	2206.647783327268	83.746010458741
7	988	2214.70150791926	91.639359426336
7	989	2218.006777085324	69.548791683009
7	990	2219.472990708318	67.644777368623
7	991	2219.610060047978	59.242949667765
7	994	2221.712630250324	61.278436328698
7	995	2236.592455187124	74.490214597409
7	1010	2262.677797151948	73.14612107191
7	1011	2267.696507211904	75.111226854068
7	1012	2272.670980201334	77.676146125647
7	1017	2280.620093409482	82.925481954947
7	1020	2283.715025817281	78.232209789497
7	1021	2288.735470653154	79.250148036934
7	1024	2297.859539144336	86.54791726781
7	1025	2309.200133144559	87.979467176388
7	1026	2309.83931696045	67.680344873514
7	1027	2321.112999927611	77.634071598875
7	1028	2321.591659304186	75.391785339229
7	1029	2322.12463103366	71.727570398906
7	1032	2324.239044622182	71.881791114008
7	1033	2325.487945908327	65.196378787575
7	1034	2336.184170102029	63.055790410698
7	1035	2339.593287146998	60.651822175878
7	1036	2341.878773528668	58.360583731959
7	1037	2343.33213223683	51.27748549014
7	1038	2347.814062332459	25.131112416017
7	1044	2366.619925412216	1.027194330884
7	1047	2368.398127830235	0.764824124377
7	1056	2395.115081198251	0.141648806758
8	156	370.280462470171	1
8	186	431.695952669617	1
8	200	474.147170758762	1
8	208	481.480691986513	1
8	214	510.24761767968	1
8	224	539.94106415391	1
8	229	550.161117734889	1
8	232	557.673753371508	1
8	236	567.956109043973	1
8	239	575.15768250753	1
8	242	580.804250949928	1
8	245	610.465880879532	1
8	247	612.633669047796	2
8	249	621.078268320571	3
8	259	631.86060202898	4
8	287	705.638349697495	1
8	289	706.665987554936	2
8	291	707.236119425818	3
8	310	751.530606146162	1
8	316	766.408258009834	2
8	319	771.611960097243	2
8	330	795.70823994459	2
8	350	828.587694700615	1
8	356	835.695198389493	2
8	358	841.24604760731	3
8	361	842.50405940262	3
8	405	940.112090574546	1
8	410	959.878403606532	1
8	434	995.112056211267	1
8	438	1009.65256758039	2
8	449	1021.842623488271	1
8	451	1022.186221008682	2
8	464	1054.979966281205	1
8	466	1058.081305622748	2
8	468	1061.030308005097	3
8	474	1081.310136359704	1
8	497	1121.105252247653	1
8	514	1158.332650760421	1
8	522	1174.615342786981	1
8	529	1185.093400042341	1
8	531	1195.169701464507	2
8	536	1221.399061453619	2
8	544	1238.355828248703	1
8	546	1242.986426439704	2
8	550	1252.324057016316	3
8	552	1252.81041227046	4
8	556	1262.62134059803	5
8	560	1265.720375963125	6
8	565	1274.056234699699	6
8	570	1287.083915815885	6
8	574	1290.607169038882	7
8	578	1295.126534913334	8
8	593	1338.251262635238	1
8	595	1344.542083468712	2
8	597	1356.591721693122	3
8	599	1356.936211215667	4
8	601	1362.588580326634	5
8	605	1368.062489851398	6
8	607	1369.039045075951	7
8	627	1410.890176308349	2
8	661	1503.835474818698	1
8	664	1510.056245344328	1
8	672	1533.178873992729	1
8	697	1585.545449449645	1
8	702	1589.129463026233	1
8	728	1636.874992284231	1
8	735	1656.129627720702	1
8	741	1663.277407136755	1
8	747	1680.310452974527	1
8	754	1691.970041177819	1
8	756	1696.58688266278	2
8	767	1719.818776411279	1
8	769	1727.169572722012	2
8	778	1742.98295227048	1
8	783	1747.946618758475	1
8	796	1794.976383704355	1
8	807	1807.995699510076	1
8	814	1827.469922869166	1
8	822	1835.994284715025	1
8	844	1889.088743691529	1
8	873	1946.729588832254	1
8	892	2004.62429793366	1
8	905	2054.459779923515	1
8	911	2074.413488317576	1
8	916	2090.254935787689	1
8	937	2118.376201383707	1
8	943	2123.529966614318	2
8	945	2128.125391186792	3
8	948	2147.792189658182	3
8	959	2160.434193921626	1
8	972	2192.585280357836	1
8	981	2205.482816027784	1
8	997	2242.158972086936	1
8	1006	2252.357253508174	1
8	1040	2349.783810657802	1
8	1049	2369.802429443491	1
8	1052	2381.692791746694	1
8	1058	2395.775553395185	1
8	1064	2397.022295827693	2
8	1066	2397.996189404248	3
8	1076	2433.487883053021	4
8	1078	2433.832617070752	5
8	1080	2437.057922805673	6
8	1090	2461.518468346402	3
8	1096	2465.729271570205	2
8	1110	2493.276094709187	1
9	156	370.280462470171	11
9	186	431.695952669617	12
9	208	481.480691986513	13
9	214	510.24761767968	14
9	229	550.161117734889	15
9	232	557.673753371508	16
9	287	705.638349697495	17
9	310	751.530606146162	18
9	350	828.587694700615	19
9	405	940.112090574546	20
9	410	959.878403606532	21
9	434	995.112056211267	22
9	449	1021.842623488271	23
9	464	1054.979966281205	24
9	474	1081.310136359704	25
9	497	1121.105252247653	26
9	514	1158.332650760421	27
9	522	1174.615342786981	28
9	529	1185.093400042341	29
9	544	1238.355828248703	30
9	593	1338.251262635238	31
9	661	1503.835474818698	32
9	664	1510.056245344328	33
9	672	1533.178873992729	34
9	697	1585.545449449645	35
9	702	1589.129463026233	36
9	728	1636.874992284231	37
9	735	1656.129627720702	38
9	741	1663.277407136755	39
9	747	1680.310452974527	40
9	754	1691.970041177819	41
9	767	1719.818776411279	42
9	778	1742.98295227048	43
9	783	1747.946618758475	44
9	796	1794.976383704355	45
9	807	1807.995699510076	46
9	814	1827.469922869166	47
9	822	1835.994284715025	48
9	844	1889.088743691529	49
9	873	1946.729588832254	50
9	892	2004.62429793366	51
9	916	2090.254935787689	52
9	937	2118.376201383707	53
9	959	2160.434193921626	54
9	972	2192.585280357836	55
9	981	2205.482816027784	56
9	997	2242.158972086936	57
9	1006	2252.357253508174	58
9	1110	2493.276094709187	59
10	156	370.280462470171	0
10	186	431.695952669617	0
10	200	474.147170758762	0
10	208	481.480691986513	0
10	214	510.24761767968	0
10	224	539.94106415391	0
10	229	550.161117734889	0
10	232	557.673753371508	0
10	236	567.956109043973	0
10	239	575.15768250753	0
10	242	580.804250949928	0
10	245	610.465880879532	0
10	260	636.702881163065	24.069212115269
10	265	652.442943383049	31.364675062478
10	266	654.661692126444	22.801090097464
10	287	705.638349697495	0
10	292	709.510594262068	2.844606707132
10	295	722.415166445742	15.179047019924
10	310	751.530606146162	0
10	317	768.878115308594	2.46985729876
10	320	772.530056056814	0.918095959571
10	343	819.238380162337	23.530140217747
10	350	828.587694700615	0
10	359	841.299874747	5.604676357507
10	362	846.994072086175	5.748024478865
10	363	849.412468623886	6.908409221266
10	405	940.112090574546	0
10	410	959.878403606532	0
10	434	995.112056211267	0
10	439	1013.828010642505	4.175443062115
10	449	1021.842623488271	0
10	452	1030.669268406992	8.48304739831
10	464	1054.979966281205	0
10	469	1062.472160903302	4.390855280554
10	470	1064.770907837586	3.740599832489
10	474	1081.310136359704	0
10	497	1121.105252247653	0
10	514	1158.332650760421	0
10	522	1174.615342786981	0
10	529	1185.093400042341	0
10	534	1218.809539899134	23.639838434627
10	537	1222.006252241705	0.607190788086
10	544	1238.355828248703	0
10	563	1268.183060287214	25.19663384751
10	568	1285.912056596331	33.587999580015
10	579	1298.943165459507	46.132753189047
10	580	1302.372419731525	39.751079133495
10	581	1314.033727226224	48.313351263099
10	582	1317.316650802625	43.260416102926
10	585	1325.277665317313	38.193749501428
10	588	1329.810772018341	39.203602979459
10	589	1331.519388162418	36.392853249084
10	593	1338.251262635238	0
10	610	1371.455668052975	26.913584584263
10	611	1378.045914808633	21.454193115511
10	612	1382.138504158333	25.202292942666
10	615	1382.64226584377	20.053685517136
10	624	1395.299262700268	27.23677284887
10	625	1396.462851588733	27.423806512782
10	628	1420.51952083777	9.629344529421
10	661	1503.835474818698	0
10	664	1510.056245344328	0
10	672	1533.178873992729	0
10	697	1585.545449449645	0
10	702	1589.129463026233	0
10	728	1636.874992284231	0
10	735	1656.129627720702	0
10	741	1663.277407136755	0
10	747	1680.310452974527	0
10	754	1691.970041177819	0
10	759	1699.546065955363	2.959183292583
10	767	1719.818776411279	0
10	770	1734.147431103509	6.977858381497
10	778	1742.98295227048	0
10	783	1747.946618758475	0
10	796	1794.976383704355	0
10	807	1807.995699510076	0
10	814	1827.469922869166	0
10	822	1835.994284715025	0
10	844	1889.088743691529	0
10	873	1946.729588832254	0
10	892	2004.62429793366	0
10	905	2054.459779923515	0
10	911	2074.413488317576	0
10	916	2090.254935787689	0
10	937	2118.376201383707	0
10	946	2143.372901226021	19.842934611703
10	949	2148.024701862951	19.899310676159
10	954	2156.900198198265	9.108008540083
10	959	2160.434193921626	0
10	972	2192.585280357836	0
10	981	2205.482816027784	0
10	997	2242.158972086936	0
10	1006	2252.357253508174	0
10	1040	2349.783810657802	0
10	1049	2369.802429443491	0
10	1052	2381.692791746694	0
10	1058	2395.775553395185	0
10	1081	2438.855542825815	41.833246998122
10	1082	2448.368750652806	50.372561248558
10	1083	2449.201865417503	15.713982364482
10	1084	2457.747444786712	23.91482771596
10	1091	2462.875135793082	25.817212987409
10	1094	2465.475492434377	3.957024087975
10	1107	2491.63573122382	25.906459653615
10	1110	2493.276094709187	0
11	1113	2500	0.0944
12	1113	2500	0.0496

