file 58628 1678560284                                           
version 2
run experiments_hard_game_mode1-1464-20230311-19:44:44-12374
attr configname experiments_hard_game_mode1
attr datetime 20230311-19:44:44
attr experiment experiments_hard_game_mode1
attr inifile omnetpp.ini
attr iterationvars "$0=9.5, $1=7, $2=0"
attr iterationvarsf 9.5,7,0-
attr measurement "$0=9.5, $1=7, $2=0"
attr network Network
attr processid 12374
attr repetition 24
attr replication #24
attr resultdir results
attr runnumber 1464
attr seedset 24
param *.boss.arrival_mean 20
param *.boss.service_mean 9.5
param *.minion.arrival_mean 10
param *.minion.service_mean 7
param *.player.recover_rate_x 0
param **.minion.arrival_distribution 0
param **.minion.service_distribution 0
param **.boss.arrival_distribution 0
param **.boss.service_distribution 0

vector 0 Network.player minion_jobs_number_stat:vector ETV
attr source signal_minion_jobs_number
vector 1 Network.player minion_jobs_queue_number_stat:vector ETV
attr source signal_minion_jobs_queue_number
vector 2 Network.player minion_defeated_stat:vector ETV
attr source signal_minion_defeated
vector 3 Network.player minion_response_time_stat:vector ETV
attr source signal_minion_response_time
vector 4 Network.player minion_waiting_time_stat:vector ETV
attr source signal_minion_waiting_time
vector 5 Network.player boss_jobs_number_stat:vector ETV
attr source signal_boss_jobs_number
vector 6 Network.player boss_jobs_queue_number_stat:vector ETV
attr source signal_boss_jobs_queue_number
vector 7 Network.player minion_recovered_stat:vector ETV
attr source signal_minion_recovered
vector 8 Network.player boss_waiting_time_stat:vector ETV
attr source signal_boss_waiting_time
vector 9 Network.player boss_defeated_stat:vector ETV
attr source signal_boss_defeated
vector 10 Network.player boss_response_time_stat:vector ETV
attr source signal_boss_response_time
vector 11 Network.player minion_throughput:vector ETV
attr source signal_minion_throughput
vector 12 Network.player boss_throughput:vector ETV
attr source signal_boss_throughput
0	2015 5315 153 1029 356.789216703952 2499.167734483319 204 1 27 1824 22550
1	7330 10812 153 1029 356.789216703952 2499.167734483319 416 0 26 3412 41952
2	18142 5756 154 1015 361.731554173844 2454.831808735486 212 13 224 25122 3770950
3	23898 8335 154 1015 361.731554173844 2454.831808735486 212 0.092567854653 223.99740873187 16259.219549751 1887109.0562313
4	32233 10187 154 1015 361.731554173844 2454.831808735486 264 0 220.07702751721 18750.813117449 2102230.4554249
5	42420 2236 159 1023 372.134798287112 2491.203118857694 87 1 7 150 430
6	44656 4394 159 1023 372.134798287112 2491.203118857694 171 0 6 123 429
7	49050 1405 159 1017 372.134798287112 2455.475700995089 53 5 57 1643 63335
8	50455 2525 159 1017 372.134798287112 2455.475700995089 85 0 80.554451657521 727.48508219562 36181.517420619
9	52980 2248 160 1009 375.175357149108 2430.277227214121 84 22 105 5334 388094
10	55228 3360 160 1009 375.175357149108 2430.277227214121 84 0.0624584054 86.518603783401 1423.9914287272 60466.685758596
11	58588 20 1030 1030 2500 2500 1 0.0896 0.0896 0.0896 0.00802816
12	58608 19 1030 1030 2500 2500 1 0.042 0.042 0.042 0.001764

