version 2
run experiments_hard_game_mode1-1715-20230311-19:45:50-13650
attr configname experiments_hard_game_mode1
attr datetime 20230311-19:45:50
attr experiment experiments_hard_game_mode1
attr inifile omnetpp.ini
attr iterationvars "$0=10, $1=6, $2=100"
attr iterationvarsf 10,6,100-
attr measurement "$0=10, $1=6, $2=100"
attr network Network
attr processid 13650
attr repetition 5
attr replication #5
attr resultdir results
attr runnumber 1715
attr seedset 5
param *.boss.arrival_mean 20
param *.boss.service_mean 10
param *.minion.arrival_mean 10
param *.minion.service_mean 6
param *.player.recover_rate_x 100
param **.minion.arrival_distribution 0
param **.minion.service_distribution 0
param **.boss.arrival_distribution 0
param **.boss.service_distribution 0

vector 0 Network.player minion_jobs_number_stat:vector ETV
attr source signal_minion_jobs_number
vector 1 Network.player minion_jobs_queue_number_stat:vector ETV
attr source signal_minion_jobs_queue_number
vector 2 Network.player boss_defeated_stat:vector ETV
attr source signal_boss_defeated
vector 3 Network.player boss_jobs_queue_number_stat:vector ETV
attr source signal_boss_jobs_queue_number
vector 4 Network.player boss_response_time_stat:vector ETV
attr source signal_boss_response_time
vector 5 Network.player minion_waiting_time_stat:vector ETV
attr source signal_minion_waiting_time
vector 6 Network.player minion_defeated_stat:vector ETV
attr source signal_minion_defeated
vector 7 Network.player minion_response_time_stat:vector ETV
attr source signal_minion_response_time
vector 8 Network.player boss_jobs_number_stat:vector ETV
attr source signal_boss_jobs_number
vector 9 Network.player boss_waiting_time_stat:vector ETV
attr source signal_boss_waiting_time
vector 10 Network.player minion_recovered_stat:vector ETV
attr source signal_minion_recovered
vector 11 Network.player minion_throughput:vector ETV
attr source signal_minion_throughput
vector 12 Network.player boss_throughput:vector ETV
attr source signal_boss_throughput
0	130	354.172507827807	4
0	137	373.165573927013	1
0	148	393.279838510632	1
0	155	408.207277351423	2
0	157	411.99829745011	3
0	159	412.37183081957	4
0	162	436.073400872944	5
0	164	437.314233815506	6
0	166	437.327952946813	7
0	172	451.242256151972	8
0	174	459.810452974783	9
0	176	462.544540123058	10
0	180	468.979055047066	11
0	182	471.920162134502	12
0	184	475.095408618298	13
0	187	494.588354537745	14
0	189	497.713550616588	15
0	204	527.626775085374	16
0	213	571.143215401286	17
0	215	579.391432256081	18
0	218	605.943574795199	19
0	220	607.913223543641	20
0	223	609.957947543076	21
0	225	624.665666816139	22
0	230	630.706851864441	23
0	232	637.487093734645	24
0	238	643.417267897842	25
0	241	653.393714807935	26
0	244	656.310268947339	26
0	256	674.6047529137	26
0	259	695.335114389194	26
0	261	701.516242444663	27
0	264	704.925125838561	27
0	267	711.815483747498	27
0	271	715.664169776615	28
0	275	727.040126940911	28
0	278	735.618888755847	28
0	284	746.139589939481	27
0	288	762.644089716245	27
0	290	765.774707186922	28
0	293	768.538631314541	28
0	296	769.235612506848	28
0	299	787.248359323836	28
0	305	802.008149240264	27
0	308	815.757023724541	28
0	311	822.315232027055	28
0	315	828.136835226231	29
0	317	832.129773314188	30
0	320	833.062464632352	31
0	322	840.209054935251	32
0	324	845.043579502083	33
0	327	848.103789288935	33
0	330	853.51756743213	33
0	332	857.235620783026	34
0	338	871.716141047027	31
0	343	881.573981200952	31
0	345	883.796395950465	32
0	353	891.948409974863	33
0	355	892.451265341315	34
0	357	896.287023108023	35
0	362	907.496880138223	34
0	370	912.519557305623	34
0	372	912.719751269411	35
0	374	915.703469079402	36
0	379	931.627609079209	37
0	381	940.35611761368	38
0	383	952.926673196333	39
0	385	954.689615315032	40
0	388	958.18994317615	41
0	396	967.306304503991	39
0	399	971.293520383222	39
0	408	988.770386098451	36
0	410	991.89196686214	37
0	414	993.592636988663	38
0	417	995.06088645478	39
0	420	1008.314780315635	39
0	423	1012.966214610902	39
0	427	1018.219575777321	40
0	429	1018.378246406112	41
0	432	1033.460060157527	42
0	434	1037.687100701228	43
0	438	1053.982005230281	42
0	448	1087.119359711866	39
0	451	1102.540491660609	40
0	454	1104.720238786165	41
0	459	1113.692156924454	42
0	468	1148.073931961739	36
0	473	1158.994943503307	36
0	475	1159.869971217089	37
0	477	1170.270592856227	38
0	479	1172.886145916887	39
0	481	1178.431073673036	40
0	484	1180.180260533885	41
0	486	1187.386849011417	42
0	492	1213.938108252133	42
0	495	1220.894768537029	42
0	501	1246.89843674697	39
0	503	1247.276325723585	40
0	506	1266.056222790817	40
0	510	1278.370214318002	39
0	514	1284.448987743469	40
0	517	1294.136166031973	41
0	521	1301.96258254879	40
0	524	1317.004740683419	40
0	527	1321.089472312076	40
0	529	1327.240403897141	41
0	535	1339.31192988468	41
0	537	1344.089152158986	42
0	541	1354.139097917223	41
0	545	1357.590687385923	42
0	547	1362.401640317386	43
0	549	1370.548662839093	44
0	558	1393.477834516225	39
0	560	1394.357009853883	40
0	562	1399.467597341814	41
0	568	1409.444819982285	38
0	572	1413.916469106427	39
0	583	1442.842899766702	34
0	590	1460.245386861678	35
0	601	1482.431277285998	34
0	603	1482.922469037112	35
0	609	1504.007678257348	35
0	613	1516.603279450633	35
0	615	1520.830688733209	36
0	617	1521.897440116271	37
0	623	1534.041056993256	34
0	633	1567.933072131845	33
0	638	1575.426811134132	34
0	641	1577.614321941095	34
0	645	1588.382349111459	33
0	652	1604.98445020996	29
0	654	1608.10816906207	30
0	656	1611.611585584382	31
0	660	1620.970579796187	30
0	665	1629.016241169596	30
0	667	1629.509796788956	31
0	673	1645.107593448206	31
0	679	1656.998456245854	32
0	682	1667.385312246145	33
0	684	1670.941665386543	34
0	686	1677.340756018396	35
0	690	1679.151605878875	36
0	700	1698.499432454028	37
0	702	1702.537875751213	38
0	706	1710.023199632792	39
0	708	1711.831678986269	40
0	711	1715.794270075167	41
0	720	1740.402810295447	38
0	725	1754.371851842985	39
0	728	1757.712952114246	40
0	736	1803.563631578393	39
0	738	1804.702121163114	40
0	742	1813.945618333506	41
0	744	1815.189939142241	42
0	749	1830.000877789753	43
0	751	1844.087242559274	44
0	758	1865.352465476735	45
0	769	1883.609421275364	46
0	771	1885.977274496929	47
0	773	1886.339112843074	48
0	787	1925.322903074237	44
0	789	1926.617656675168	45
0	793	1946.452518246029	46
0	799	1968.617331088617	46
0	807	1983.774184273965	47
0	811	1991.012150132266	47
0	813	1995.96333466045	48
0	825	2021.788839862228	45
0	827	2027.965610252793	46
0	831	2036.670246191136	45
0	833	2038.612038391061	46
0	841	2053.451391923639	46
0	843	2059.720372977221	47
0	845	2065.213904978399	48
0	847	2070.960011779213	49
0	857	2088.416297189241	50
0	859	2094.55514914724	51
0	861	2099.423059657969	52
0	864	2109.526301819064	53
0	866	2113.901216392289	54
0	882	2152.7373224416	50
0	884	2158.324858173646	51
0	887	2170.032935115697	52
0	891	2175.059280819876	53
0	893	2175.89386075536	54
0	900	2194.513301538501	55
0	902	2197.181186761374	56
0	906	2201.862421686758	57
0	908	2205.989717082358	58
0	912	2210.635198036061	57
0	915	2215.605995918517	57
0	917	2220.983562150837	58
0	921	2237.146804838887	57
0	925	2242.672738216294	56
0	927	2243.211192938679	57
0	930	2254.082127145278	57
0	932	2255.276179260871	58
0	934	2257.380623580054	59
0	939	2265.712071714624	59
0	942	2278.530645851194	60
0	944	2279.373335041389	61
0	946	2282.299088262717	62
0	950	2288.557943251978	61
0	962	2321.438632138943	58
0	967	2332.743083346899	56
0	969	2334.166339972331	57
0	971	2334.24183420918	58
0	977	2350.681956625492	55
0	980	2362.032617962155	55
0	985	2366.417596998391	55
0	992	2382.613350806866	56
0	996	2383.497710697982	57
0	1000	2419.292970577924	58
0	1005	2432.429685492346	59
0	1009	2452.103637946343	60
1	130	354.172507827807	3
1	132	355.43110851229	3
1	133	356.289071032285	2
1	134	356.791637058396	1
1	135	365.649210105172	0
1	137	373.165573927013	0
1	138	374.342573227751	0
1	148	393.279838510632	0
1	155	408.207277351423	1
1	157	411.99829745011	2
1	159	412.37183081957	3
1	162	436.073400872944	4
1	164	437.314233815506	5
1	166	437.327952946813	6
1	172	451.242256151972	7
1	174	459.810452974783	8
1	176	462.544540123058	9
1	180	468.979055047066	10
1	182	471.920162134502	11
1	184	475.095408618298	12
1	187	494.588354537745	13
1	189	497.713550616588	14
1	204	527.626775085374	15
1	213	571.143215401286	16
1	215	579.391432256081	17
1	218	605.943574795199	18
1	220	607.913223543641	19
1	223	609.957947543076	20
1	225	624.665666816139	21
1	230	630.706851864441	22
1	232	637.487093734645	23
1	238	643.417267897842	24
1	241	653.393714807935	25
1	242	655.249755756516	25
1	244	656.310268947339	25
1	245	658.5776834445	25
1	256	674.6047529137	25
1	257	694.813432658875	25
1	259	695.335114389194	25
1	261	701.516242444663	26
1	262	703.349784695509	26
1	264	704.925125838561	26
1	265	705.337847502063	26
1	267	711.815483747498	26
1	271	715.664169776615	27
1	273	723.808202201565	27
1	275	727.040126940911	27
1	276	732.353489377355	27
1	278	735.618888755847	27
1	279	736.506099422305	27
1	280	739.415585179368	26
1	284	746.139589939481	26
1	286	761.699658928515	26
1	288	762.644089716245	26
1	290	765.774707186922	27
1	291	766.761990640242	27
1	293	768.538631314541	27
1	294	768.772222959803	27
1	296	769.235612506848	27
1	297	776.269401025443	27
1	299	787.248359323836	27
1	300	788.782766853025	27
1	301	790.676538813323	26
1	305	802.008149240264	26
1	308	815.757023724541	27
1	309	816.058754335854	27
1	311	822.315232027055	27
1	315	828.136835226231	28
1	317	832.129773314188	29
1	320	833.062464632352	30
1	322	840.209054935251	31
1	324	845.043579502083	32
1	325	847.362576147482	32
1	327	848.103789288935	32
1	328	849.440867008738	32
1	330	853.51756743213	32
1	332	857.235620783026	33
1	333	858.022496816537	33
1	334	859.610926023746	32
1	335	863.973241622744	31
1	336	865.836652397843	30
1	338	871.716141047027	30
1	339	876.55187795088	30
1	343	881.573981200952	30
1	345	883.796395950465	31
1	353	891.948409974863	32
1	355	892.451265341315	33
1	357	896.287023108023	34
1	359	904.360716423071	34
1	360	906.48956759664	33
1	362	907.496880138223	33
1	366	909.597702177503	33
1	370	912.519557305623	33
1	372	912.719751269411	34
1	374	915.703469079402	35
1	379	931.627609079209	36
1	381	940.35611761368	37
1	383	952.926673196333	38
1	385	954.689615315032	39
1	388	958.18994317615	40
1	389	958.975972343926	40
1	390	961.353927542453	39
1	394	966.577159851036	38
1	396	967.306304503991	38
1	397	970.275836182507	38
1	399	971.293520383222	38
1	400	971.342383205869	38
1	401	976.058806776958	37
1	402	979.138693432266	36
1	403	980.609501478715	35
1	408	988.770386098451	35
1	410	991.89196686214	36
1	414	993.592636988663	37
1	417	995.06088645478	38
1	418	1004.030888432242	38
1	420	1008.314780315635	38
1	421	1008.7019507123	38
1	423	1012.966214610902	38
1	427	1018.219575777321	39
1	429	1018.378246406112	40
1	432	1033.460060157527	41
1	434	1037.687100701228	42
1	435	1038.146051304708	42
1	436	1046.646874157193	41
1	438	1053.982005230281	41
1	439	1058.001369086884	41
1	440	1061.049589362908	40
1	441	1062.917519606499	39
1	442	1072.618281130712	38
1	448	1087.119359711866	38
1	451	1102.540491660609	39
1	454	1104.720238786165	40
1	459	1113.692156924454	41
1	460	1119.600136960153	41
1	461	1120.115438419374	40
1	462	1120.325217669554	39
1	463	1123.259763257796	38
1	464	1140.402420740912	37
1	465	1143.571820051246	36
1	466	1148.017657244557	35
1	468	1148.073931961739	35
1	469	1157.987021879833	35
1	473	1158.994943503307	35
1	475	1159.869971217089	36
1	477	1170.270592856227	37
1	479	1172.886145916887	38
1	481	1178.431073673036	39
1	484	1180.180260533885	40
1	486	1187.386849011417	41
1	487	1187.513015468561	41
1	492	1213.938108252133	41
1	493	1215.381034599725	41
1	495	1220.894768537029	41
1	496	1223.959232878933	41
1	497	1237.675981381556	40
1	498	1239.13290980731	39
1	499	1243.17335624731	38
1	501	1246.89843674697	38
1	503	1247.276325723585	39
1	504	1256.575287215326	39
1	506	1266.056222790817	39
1	507	1267.147959747939	39
1	508	1275.89529360385	38
1	510	1278.370214318002	38
1	514	1284.448987743469	39
1	517	1294.136166031973	40
1	518	1296.334158548862	40
1	519	1299.636991532806	39
1	521	1301.96258254879	39
1	522	1309.274418837639	39
1	524	1317.004740683419	39
1	525	1318.594044384016	39
1	527	1321.089472312076	39
1	529	1327.240403897141	40
1	530	1329.301835480779	40
1	535	1339.31192988468	40
1	537	1344.089152158986	41
1	538	1351.176412504516	41
1	539	1351.351733924528	40
1	541	1354.139097917223	40
1	545	1357.590687385923	41
1	547	1362.401640317386	42
1	549	1370.548662839093	43
1	551	1373.956439500212	43
1	552	1374.419530356953	42
1	553	1378.054638746362	41
1	554	1385.538758973354	40
1	555	1387.729725515366	39
1	556	1390.585428742206	38
1	558	1393.477834516225	38
1	560	1394.357009853883	39
1	562	1399.467597341814	40
1	563	1400.877033436179	40
1	564	1401.674936564595	39
1	565	1407.133656873881	38
1	566	1408.036255025035	37
1	568	1409.444819982285	37
1	572	1413.916469106427	38
1	574	1423.726456268061	38
1	575	1426.804389044306	37
1	576	1428.779026909443	36
1	577	1434.348766251108	35
1	578	1435.926408893641	34
1	579	1441.3780159874	33
1	583	1442.842899766702	33
1	590	1460.245386861678	34
1	596	1475.651824532006	34
1	597	1478.034499335485	33
1	601	1482.431277285998	33
1	603	1482.922469037112	34
1	605	1493.733007068159	34
1	609	1504.007678257348	34
1	611	1513.905930051434	34
1	613	1516.603279450633	34
1	615	1520.830688733209	35
1	617	1521.897440116271	36
1	618	1523.486625263662	36
1	619	1525.631315710228	35
1	620	1532.205500492585	34
1	621	1533.934469366871	33
1	623	1534.041056993256	33
1	630	1557.17674129922	33
1	631	1567.444111501487	32
1	633	1567.933072131845	32
1	638	1575.426811134132	33
1	639	1575.749459799961	33
1	641	1577.614321941095	33
1	642	1577.766986885057	33
1	643	1580.752877758606	32
1	645	1588.382349111459	32
1	646	1588.814786977087	32
1	647	1589.320144668785	31
1	648	1595.292295514242	30
1	649	1598.996599628803	29
1	650	1601.957213890686	28
1	652	1604.98445020996	28
1	654	1608.10816906207	29
1	656	1611.611585584382	30
1	657	1613.931600735165	30
1	658	1614.59626219134	29
1	660	1620.970579796187	29
1	661	1621.863541748377	29
1	665	1629.016241169596	29
1	667	1629.509796788956	30
1	669	1638.170626865547	30
1	673	1645.107593448206	30
1	679	1656.998456245854	31
1	682	1667.385312246145	32
1	684	1670.941665386543	33
1	686	1677.340756018396	34
1	690	1679.151605878875	35
1	700	1698.499432454028	36
1	702	1702.537875751213	37
1	706	1710.023199632792	38
1	708	1711.831678986269	39
1	711	1715.794270075167	40
1	713	1726.858869973756	40
1	714	1728.044064531708	39
1	715	1729.780121597155	38
1	716	1732.598926204592	37
1	720	1740.402810295447	37
1	725	1754.371851842985	38
1	728	1757.712952114246	39
1	729	1774.134952416413	39
1	730	1785.513874545781	38
1	736	1803.563631578393	38
1	738	1804.702121163114	39
1	742	1813.945618333506	40
1	744	1815.189939142241	41
1	749	1830.000877789753	42
1	751	1844.087242559274	43
1	758	1865.352465476735	44
1	769	1883.609421275364	45
1	771	1885.977274496929	46
1	773	1886.339112843074	47
1	778	1901.896744516805	47
1	779	1904.622586898753	46
1	783	1911.802513832511	45
1	784	1919.02417400672	44
1	785	1919.276657535212	43
1	787	1925.322903074237	43
1	789	1926.617656675168	44
1	793	1946.452518246029	45
1	795	1960.671441511372	45
1	799	1968.617331088617	45
1	807	1983.774184273965	46
1	809	1990.136246542069	46
1	811	1991.012150132266	46
1	813	1995.96333466045	47
1	814	1999.91955235865	47
1	815	2000.101017335519	46
1	822	2017.155506028203	45
1	823	2018.455221476885	44
1	825	2021.788839862228	44
1	827	2027.965610252793	45
1	828	2035.712601177101	45
1	829	2036.495833027355	44
1	831	2036.670246191136	44
1	833	2038.612038391061	45
1	837	2052.684746093853	45
1	841	2053.451391923639	45
1	843	2059.720372977221	46
1	845	2065.213904978399	47
1	847	2070.960011779213	48
1	857	2088.416297189241	49
1	859	2094.55514914724	50
1	861	2099.423059657969	51
1	864	2109.526301819064	52
1	866	2113.901216392289	53
1	874	2138.189942015745	53
1	875	2141.059622286633	52
1	876	2143.865463377622	51
1	877	2145.363261735794	50
1	878	2148.253569701019	49
1	882	2152.7373224416	49
1	884	2158.324858173646	50
1	887	2170.032935115697	51
1	891	2175.059280819876	52
1	893	2175.89386075536	53
1	900	2194.513301538501	54
1	902	2197.181186761374	55
1	906	2201.862421686758	56
1	908	2205.989717082358	57
1	909	2206.454653649839	57
1	910	2209.034124112242	56
1	912	2210.635198036061	56
1	913	2213.32815851788	56
1	915	2215.605995918517	56
1	917	2220.983562150837	57
1	918	2222.736137322139	57
1	919	2235.564782962741	56
1	921	2237.146804838887	56
1	922	2240.083150995601	56
1	923	2242.360290333439	55
1	925	2242.672738216294	55
1	927	2243.211192938679	56
1	928	2246.804273310882	56
1	930	2254.082127145278	56
1	932	2255.276179260871	57
1	934	2257.380623580054	58
1	935	2259.162978793621	58
1	939	2265.712071714624	58
1	942	2278.530645851194	59
1	944	2279.373335041389	60
1	946	2282.299088262717	61
1	947	2282.614574158485	61
1	948	2287.463532377076	60
1	950	2288.557943251978	60
1	951	2289.162294590869	60
1	955	2297.963971409529	59
1	956	2299.619218654715	58
1	957	2309.77712683097	57
1	962	2321.438632138943	57
1	963	2322.140410298725	57
1	964	2322.270336479738	56
1	965	2328.482183043545	55
1	967	2332.743083346899	55
1	969	2334.166339972331	56
1	971	2334.24183420918	57
1	972	2335.233012110184	57
1	973	2343.282645203473	56
1	974	2344.748950747102	55
1	975	2346.561414290207	54
1	977	2350.681956625492	54
1	978	2361.996610430731	54
1	980	2362.032617962155	54
1	981	2363.409336190264	54
1	985	2366.417596998391	54
1	992	2382.613350806866	55
1	996	2383.497710697982	56
1	1000	2419.292970577924	57
1	1005	2432.429685492346	58
1	1009	2452.103637946343	59
1	1015	2467.064399552661	59
2	131	354.808506492671	19
2	145	387.475109944316	20
2	146	387.499789153849	21
2	149	401.547340664761	22
2	160	423.477423664014	23
2	185	481.130457259341	24
2	190	502.754128168234	25
2	191	502.754959140401	26
2	192	506.327562947711	27
2	205	545.056568052921	28
2	206	553.962356042216	29
2	209	559.394488000357	30
2	216	597.757577415619	31
2	221	609.200708763501	32
2	228	627.850065180825	33
2	235	641.818750516254	34
2	236	642.491644901685	35
2	239	651.139520287913	36
2	250	665.923557816786	37
2	253	670.947850548425	38
2	254	674.343703446674	39
2	272	718.572274158877	40
2	285	758.546882263772	41
2	306	804.509633426046	42
2	318	832.700174369093	43
2	350	888.544804549493	44
2	351	889.715511680163	45
2	358	903.82660027498	46
2	365	907.593728747715	47
2	377	927.553314710284	48
2	386	956.055140046491	49
2	393	966.163119811562	50
2	406	983.35449987968	51
2	415	994.378209796019	52
2	430	1021.724460052693	53
2	449	1098.700308533605	54
2	452	1102.954274366285	55
2	457	1113.253770249347	56
2	482	1179.319499488741	57
2	490	1209.87774870213	58
2	515	1284.584887605992	59
2	533	1338.059304156862	60
2	550	1371.972981640953	61
2	573	1414.292315717147	62
2	584	1455.055039622002	63
2	591	1472.844665828056	64
2	592	1474.114215834996	65
2	595	1474.78147804466	66
2	604	1487.664855943599	67
2	610	1510.627754598338	68
2	626	1542.317218686628	69
2	629	1550.216276429876	70
2	636	1571.967285262078	71
2	668	1637.06726962962	72
2	680	1658.991447333643	73
2	691	1684.302249583781	74
2	692	1690.545657721914	75
2	695	1691.957630410834	76
2	696	1693.725151053097	77
2	709	1713.758080824493	78
2	712	1721.698265172357	79
2	723	1746.376797001642	80
2	726	1755.255915002939	81
2	747	1829.638276815111	82
2	752	1844.493377842467	83
2	759	1867.950906476509	84
2	764	1878.617551273539	85
2	765	1882.082053505444	86
2	774	1890.239875301144	87
2	775	1891.834949950003	88
2	776	1893.798107403275	89
2	777	1895.320939994545	90
2	782	1908.924273198082	91
2	794	1960.365481639218	92
2	800	1974.397267701478	93
2	803	1979.686304797969	94
2	808	1987.411596759647	95
2	820	2007.221621584388	96
2	821	2013.819813081888	97
2	836	2046.958997884311	98
2	852	2084.239711963553	99
2	853	2084.543658400954	100
2	862	2107.731025333821	101
2	869	2128.803231563505	102
2	872	2135.850558345311	103
2	873	2137.023118833735	104
2	885	2166.536719024546	105
2	898	2183.519953260058	106
2	903	2201.106059238188	107
2	904	2201.381826196788	108
2	940	2266.495882593451	109
2	954	2296.562511803971	110
2	960	2319.967123111976	111
2	988	2378.846990194908	112
2	997	2385.1161459232	113
2	998	2400.196307918987	114
2	1003	2421.313956049676	115
2	1010	2456.713329076885	116
2	1011	2458.30918567574	117
2	1014	2466.629172709198	118
2	1020	2471.460111626829	119
2	1021	2487.34731899223	120
3	131	354.808506492671	0
3	140	381.910508285344	0
3	142	382.12216177113	1
3	144	385.458599038288	2
3	145	387.475109944316	2
3	146	387.499789153849	1
3	149	401.547340664761	0
3	151	401.932998597983	0
3	153	404.293112790177	1
3	160	423.477423664014	1
3	168	437.903864460807	1
3	170	439.767450543379	2
3	178	467.105152708054	3
3	185	481.130457259341	3
3	190	502.754128168234	2
3	191	502.754959140401	1
3	192	506.327562947711	0
3	194	507.778352471988	0
3	196	511.970843354015	1
3	198	523.641403692857	2
3	200	523.764599663184	3
3	202	526.525142992614	4
3	205	545.056568052921	4
3	206	553.962356042216	3
3	208	556.097184880185	3
3	209	559.394488000357	3
3	211	564.45633319999	3
3	216	597.757577415619	3
3	221	609.200708763501	2
3	227	627.778284939314	2
3	228	627.850065180825	2
3	234	638.222539276565	2
3	235	641.818750516254	2
3	236	642.491644901685	1
3	239	651.139520287913	0
3	247	662.431607004495	0
3	249	662.436923341715	1
3	250	665.923557816786	1
3	252	669.501349085891	1
3	253	670.947850548425	1
3	254	674.343703446674	0
3	269	712.041199677948	0
3	272	718.572274158877	0
3	282	741.260931673624	0
3	285	758.546882263772	0
3	303	799.551242766425	0
3	306	804.509633426046	0
3	313	822.860284331871	0
3	318	832.700174369093	0
3	341	877.543810870645	0
3	347	887.337605029767	1
3	349	888.487505027603	2
3	350	888.544804549493	2
3	351	889.715511680163	1
3	358	903.82660027498	0
3	364	907.588439234243	0
3	365	907.593728747715	0
3	368	909.614822051967	0
3	376	920.771602651114	1
3	377	927.553314710284	1
3	386	956.055140046491	0
3	392	964.27347470108	0
3	393	966.163119811562	0
3	405	981.828805080065	0
3	406	983.35449987968	0
3	412	991.993690733228	0
3	415	994.378209796019	0
3	425	1016.249624094874	0
3	430	1021.724460052693	0
3	444	1077.928705248913	0
3	446	1080.302015026252	1
3	449	1098.700308533605	1
3	452	1102.954274366285	0
3	456	1107.584578418003	0
3	457	1113.253770249347	0
3	471	1158.933809594803	0
3	482	1179.319499488741	0
3	489	1188.996723057024	0
3	490	1209.87774870213	0
3	512	1278.988197943606	0
3	515	1284.584887605992	0
3	532	1331.699076905576	0
3	533	1338.059304156862	0
3	543	1354.3265869964	0
3	550	1371.972981640953	0
3	570	1410.690821772367	0
3	573	1414.292315717147	0
3	581	1442.401810080516	0
3	584	1455.055039622002	0
3	586	1458.263650676793	0
3	588	1458.853799594753	1
3	591	1472.844665828056	1
3	592	1474.114215834996	0
3	594	1474.67750170795	0
3	595	1474.78147804466	0
3	599	1478.591938273987	0
3	604	1487.664855943599	0
3	607	1499.350124495382	0
3	610	1510.627754598338	0
3	625	1540.927398831871	0
3	626	1542.317218686628	0
3	628	1543.83572861612	0
3	629	1550.216276429876	0
3	635	1571.160236717777	0
3	636	1571.967285262078	0
3	663	1627.011532211296	0
3	668	1637.06726962962	0
3	671	1641.200728983196	0
3	675	1649.139788179428	1
3	677	1651.886764969815	2
3	680	1658.991447333643	2
3	688	1677.97722850772	2
3	691	1684.302249583781	2
3	692	1690.545657721914	1
3	694	1691.221218932796	1
3	695	1691.957630410834	1
3	696	1693.725151053097	0
3	698	1695.469903337416	0
3	704	1709.973952942435	1
3	709	1713.758080824493	1
3	712	1721.698265172357	0
3	718	1734.173751778239	0
3	722	1741.631715878164	1
3	723	1746.376797001642	1
3	726	1755.255915002939	0
3	732	1795.251777029999	0
3	734	1796.186514870931	1
3	740	1810.233699922377	2
3	746	1821.747407345427	3
3	747	1829.638276815111	3
3	752	1844.493377842467	2
3	754	1852.560548192826	2
3	756	1854.576513861016	3
3	759	1867.950906476509	3
3	761	1868.175832967458	3
3	763	1869.101112407136	4
3	764	1878.617551273539	4
3	765	1882.082053505444	3
3	767	1883.079443135498	3
3	774	1890.239875301144	3
3	775	1891.834949950003	2
3	776	1893.798107403275	1
3	777	1895.320939994545	0
3	781	1906.172223784969	0
3	782	1908.924273198082	0
3	791	1929.509174591028	0
3	794	1960.365481639218	0
3	797	1967.343964080476	0
3	800	1974.397267701478	0
3	802	1979.682068380707	0
3	803	1979.686304797969	0
3	805	1982.357432335051	0
3	808	1987.411596759647	0
3	817	2003.786686497585	0
3	819	2006.5504223079	1
3	820	2007.221621584388	1
3	821	2013.819813081888	0
3	835	2040.249635521158	0
3	836	2046.958997884311	0
3	839	2053.063007369747	0
3	849	2076.247451695774	1
3	851	2080.649378436169	2
3	852	2084.239711963553	2
3	853	2084.543658400954	1
3	855	2086.329528345313	1
3	862	2107.731025333821	1
3	868	2116.760152658708	1
3	869	2128.803231563505	1
3	871	2130.649701280081	1
3	872	2135.850558345311	1
3	873	2137.023118833735	0
3	880	2149.349687489204	0
3	885	2166.536719024546	0
3	889	2171.319197265902	0
3	895	2183.040962897326	1
3	897	2183.478361293144	2
3	898	2183.519953260058	2
3	903	2201.106059238188	1
3	904	2201.381826196788	0
3	937	2263.858396856056	0
3	940	2266.495882593451	0
3	953	2294.457992447564	0
3	954	2296.562511803971	0
3	959	2319.143568197383	0
3	960	2319.967123111976	0
3	983	2364.097716176362	0
3	987	2369.034416376807	1
3	988	2378.846990194908	1
3	990	2379.332298766566	1
3	994	2382.99845866801	2
3	997	2385.1161459232	2
3	998	2400.196307918987	1
3	1002	2420.064793868789	1
3	1003	2421.313956049676	1
3	1007	2435.541766541786	1
3	1010	2456.713329076885	1
3	1011	2458.30918567574	0
3	1013	2461.309526535168	0
3	1014	2466.629172709198	0
3	1017	2468.83020005602	0
3	1019	2471.034788360199	1
3	1020	2471.460111626829	1
3	1021	2487.34731899223	0
4	131	354.808506492671	5.30909453179
4	145	387.475109944316	5.564601658972
4	146	387.499789153849	5.377627382719
4	149	401.547340664761	16.088741626473
4	160	423.477423664014	21.544425066031
4	185	481.130457259341	76.837344469164
4	190	502.754128168234	64.850263707427
4	191	502.754959140401	62.987508597022
4	192	506.327562947711	39.222410239657
4	205	545.056568052921	37.278215580933
4	206	553.962356042216	41.991512688201
4	209	559.394488000357	35.7530843075
4	216	597.757577415619	73.992977752435
4	221	609.200708763501	82.675565770887
4	228	627.850065180825	71.75288030064
4	235	641.818750516254	77.362417316264
4	236	642.491644901685	14.713359962371
4	239	651.139520287913	12.916981011348
4	250	665.923557816786	3.491950812291
4	253	670.947850548425	8.51092720671
4	254	674.343703446674	4.842354360783
4	272	718.572274158877	6.531074480929
4	285	758.546882263772	17.285950590148
4	306	804.509633426046	4.958390659621
4	318	832.700174369093	9.839890037222
4	350	888.544804549493	11.000993678848
4	351	889.715511680163	2.377906650396
4	358	903.82660027498	15.339095247377
4	365	907.593728747715	0.005289513472
4	377	927.553314710284	17.938492658317
4	386	956.055140046491	35.283537395377
4	393	966.163119811562	1.889645110482
4	406	983.35449987968	1.525694799615
4	415	994.378209796019	2.384519062791
4	430	1021.724460052693	5.474835957819
4	449	1098.700308533605	20.771603284692
4	452	1102.954274366285	22.652259340033
4	457	1113.253770249347	5.669191831344
4	482	1179.319499488741	20.385689893938
4	490	1209.87774870213	20.881025645106
4	515	1284.584887605992	5.596689662386
4	533	1338.059304156862	6.360227251286
4	550	1371.972981640953	17.646394644553
4	573	1414.292315717147	3.60149394478
4	584	1455.055039622002	12.653229541486
4	591	1472.844665828056	14.581015151263
4	592	1474.114215834996	15.260416240243
4	595	1474.78147804466	0.10397633671
4	604	1487.664855943599	9.072917669612
4	610	1510.627754598338	11.277630102956
4	626	1542.317218686628	1.389819854757
4	629	1550.216276429876	6.380547813756
4	636	1571.967285262078	0.807048544301
4	668	1637.06726962962	10.055737418324
4	680	1658.991447333643	17.790718350447
4	691	1684.302249583781	35.162461404353
4	692	1690.545657721914	38.658892752099
4	695	1691.957630410834	13.980401903114
4	696	1693.725151053097	2.503932120301
4	709	1713.758080824493	18.288177487077
4	712	1721.698265172357	11.724312229922
4	723	1746.376797001642	12.203045223403
4	726	1755.255915002939	13.624199124775
4	747	1829.638276815111	34.386499785112
4	752	1844.493377842467	48.306862971536
4	759	1867.950906476509	57.717206554132
4	764	1878.617551273539	56.870143928112
4	765	1882.082053505444	29.521505312618
4	774	1890.239875301144	35.663361440128
4	775	1891.834949950003	23.659116982545
4	776	1893.798107403275	24.696994996139
4	777	1895.320939994545	12.241496859047
4	782	1908.924273198082	2.752049413113
4	794	1960.365481639218	30.85630704819
4	800	1974.397267701478	7.053303621002
4	803	1979.686304797969	0.004236417262
4	808	1987.411596759647	5.054164424596
4	820	2007.221621584388	3.434935086803
4	821	2013.819813081888	7.269390773988
4	836	2046.958997884311	6.709362363153
4	852	2084.239711963553	31.176704593806
4	853	2084.543658400954	8.29620670518
4	862	2107.731025333821	27.081646897652
4	869	2128.803231563505	42.473703218192
4	872	2135.850558345311	19.090405686603
4	873	2137.023118833735	6.373417553654
4	885	2166.536719024546	17.187031535342
4	898	2183.519953260058	12.200755994156
4	903	2201.106059238188	18.065096340862
4	904	2201.381826196788	17.903464903644
4	940	2266.495882593451	2.637485737395
4	954	2296.562511803971	2.104519356407
4	960	2319.967123111976	0.823554914593
4	988	2378.846990194908	14.749274018546
4	997	2385.1161459232	16.081729546393
4	998	2400.196307918987	20.864009152421
4	1003	2421.313956049676	38.315497381666
4	1010	2456.713329076885	36.648535208096
4	1011	2458.30918567574	22.767419133954
4	1014	2466.629172709198	5.31964617403
4	1020	2471.460111626829	2.629911570809
4	1021	2487.34731899223	16.312530632031
5	131	354.808506492671	22.403898317632
5	132	355.43110851229	7.747754588954
5	133	356.289071032285	6.789659071404
5	134	356.791637058396	2.619129230589
5	137	373.165573927013	0
5	149	401.547340664761	8.267502154129
5	192	506.327562947711	104.39456434973
5	239	651.139520287913	242.93224293649
5	242	655.249755756516	243.25145830641
5	245	658.5776834445	246.20585262493
5	254	674.343703446674	238.27030257373
5	257	694.813432658875	257.49919884337
5	262	703.349784695509	266.0218317487
5	265	705.337847502063	254.09559135009
5	272	718.572274158877	258.76182118409
5	273	723.808202201565	261.26366207851
5	276	732.353489377355	263.37443433029
5	279	736.506099422305	264.5859372878
5	280	739.415585179368	264.32017656107
5	285	758.546882263772	263.95852772603
5	286	761.699658928515	263.98610831193
5	291	766.761990640242	258.98363816825
5	294	768.772222959803	241.14544787443
5	297	776.269401025443	205.12618562416
5	300	788.782766853025	209.39133459694
5	301	790.676538813323	184.73296401812
5	306	804.509633426046	196.5964098824
5	309	816.058754335854	206.10080679278
5	318	832.700174369093	208.03450755295
5	325	847.362576147482	216.65572428304
5	328	849.440867008738	211.95377327409
5	333	858.022496816537	214.60522891869
5	334	859.610926023746	206.21721121581
5	335	863.973241622744	207.66297267541
5	336	865.836652397843	203.40504539335
5	339	876.55187795088	201.94712503718
5	358	903.82660027498	208.49148588579
5	359	904.360716423071	202.84447397841
5	360	906.48956759664	201.56444175808
5	365	907.593728747715	195.77824500022
5	366	909.597702177503	197.55650249955
5	386	956.055140046491	240.39097026988
5	389	958.975972343926	231.93584540302
5	390	961.353927542453	225.73503878661
5	393	966.163119811562	224.90218813794
5	394	966.577159851036	220.43756991155
5	397	970.275836182507	207.63174646626
5	400	971.342383205869	205.56767601895
5	401	976.058806776958	207.52017546242
5	402	979.138693432266	209.90308092542
5	403	980.609501478715	193.36114215488
5	406	983.35449987968	183.80325711326
5	415	994.378209796019	192.37006055576
5	418	1004.030888432242	188.2738647077
5	421	1008.7019507123	186.38671868525
5	430	1021.724460052693	198.86417572082
5	435	1038.146051304708	210.00921607848
5	436	1046.646874157193	214.517100843
5	439	1058.001369086884	224.93890445453
5	440	1061.049589362908	220.84053442766
5	441	1062.917519606499	217.87394010442
5	442	1072.618281130712	224.51449184178
5	452	1102.954274366285	249.43670693415
5	457	1113.253770249347	256.01814946632
5	460	1119.600136960153	247.88399591313
5	461	1120.115438419374	242.57162754873
5	462	1120.325217669554	238.7512364686
5	463	1123.259763257796	239.46336730733
5	464	1140.402420740912	248.45401076605
5	465	1143.571820051246	251.12055470993
5	466	1148.017657244557	251.73063413653
5	469	1157.987021879833	250.49014174161
5	482	1179.319499488741	271.7310602545
5	487	1187.513015468561	277.89819341659
5	490	1209.87774870213	297.35819139651
5	493	1215.381034599725	302.66128333031
5	496	1223.959232878933	308.25576379953
5	497	1237.675981381556	306.04837230235
5	498	1239.13290980731	298.77679219363
5	499	1243.17335624731	290.24668305098
5	504	1256.575287215326	301.88567190029
5	507	1267.147959747939	308.95801657179
5	508	1275.89529360385	311.62181890277
5	515	1284.584887605992	317.278583102
5	518	1296.334158548862	325.04063816564
5	519	1299.636991532806	317.80818645274
5	522	1309.274418837639	320.50403273919
5	525	1318.594044384016	326.70207752188
5	530	1329.301835480779	337.30814474755
5	533	1338.059304156862	344.4666671682
5	538	1351.176412504516	356.11552604974
5	539	1351.351733924528	343.03695360889
5	550	1371.972981640953	359.00676703005
5	551	1373.956439500212	357.70681540534
5	552	1374.419530356953	356.19995457963
5	553	1378.054638746362	359.67639234025
5	554	1385.538758973354	352.07869881583
5	555	1387.729725515366	350.04262481414
5	556	1390.585428742206	336.60342351192
5	563	1400.877033436179	322.94832818727
5	564	1401.674936564595	314.55557685273
5	565	1407.133656873881	304.59316521327
5	566	1408.036255025035	303.31601623887
5	573	1414.292315717147	306.70773729914
5	574	1423.726456268061	310.03429934361
5	575	1426.804389044306	278.73045708257
5	576	1428.779026909443	269.84521731464
5	577	1434.348766251108	275.3538227478
5	578	1435.926408893641	276.05643767655
5	579	1441.3780159874	271.10742313117
5	584	1455.055039622002	282.16889370512
5	592	1474.114215834996	295.68314216196
5	595	1474.78147804466	294.60121751077
5	596	1475.651824532006	288.26497552059
5	597	1478.034499335485	289.03777627846
5	604	1487.664855943599	273.72674769147
5	605	1493.733007068159	272.83823853113
5	610	1510.627754598338	263.72931785137
5	611	1513.905930051434	266.62960432785
5	618	1523.486625263662	257.43040247285
5	619	1525.631315710228	247.26110139223
5	620	1532.205500492585	253.21730254898
5	621	1533.934469366871	249.4854816234
5	626	1542.317218686628	248.18105265465
5	629	1550.216276429876	248.25369388109
5	630	1557.17674129922	240.1720006158
5	631	1567.444111501487	246.35463918941
5	636	1571.967285262078	244.72688136494
5	639	1575.749459799961	244.05038289438
5	642	1577.766986885057	238.45505700038
5	643	1580.752877758606	236.66372559962
5	646	1588.814786977087	234.67568905986
5	647	1589.320144668785	234.99355767239
5	648	1595.292295514242	237.70160812832
5	649	1598.996599628803	236.59495931142
5	650	1601.957213890686	231.40855105159
5	657	1613.931600735165	220.45376621894
5	658	1614.59626219134	220.23925233746
5	661	1621.863541748377	222.39594440656
5	668	1637.06726962962	227.62244964734
5	669	1638.170626865547	227.47980509318
5	696	1693.725151053097	279.80868194667
5	712	1721.698265172357	279.29645509184
5	713	1726.858869973756	284.01597020705
5	714	1728.044064531708	269.78041385491
5	715	1729.780121597155	269.53473473548
5	716	1732.598926204592	257.92142449664
5	726	1755.255915002939	276.66397672895
5	729	1774.134952416413	291.70367513041
5	730	1785.513874545781	302.59140550867
5	777	1895.320939994545	395.97081549916
5	778	1901.896744516805	397.88906625946
5	779	1904.622586898753	388.01930744812
5	782	1908.924273198082	388.09358446487
5	783	1911.802513832511	389.90507371624
5	784	1919.02417400672	384.98311701346
5	785	1919.276657535212	378.34925870334
5	794	1960.365481639218	416.5297530231
5	795	1960.671441511372	392.73836937953
5	800	1974.397267701478	403.2370309837
5	803	1979.686304797969	404.25949366384
5	808	1987.411596759647	409.79727481855
5	809	1990.136246542069	401.75389743061
5	814	1999.91955235865	394.93510214869
5	815	2000.101017335519	391.99284827345
5	821	2013.819813081888	402.20822749751
5	822	2017.155506028203	396.18492623202
5	823	2018.455221476885	391.44368926559
5	828	2035.712601177101	406.69636000751
5	829	2036.495833027355	406.9860362384
5	836	2046.958997884311	405.75826890112
5	837	2052.684746093853	407.57715264565
5	873	2137.023118833735	480.02466258788
5	874	2138.189942015745	470.8046297696
5	875	2141.059622286633	470.11795690009
5	876	2143.865463377622	466.52470735923
5	877	2145.363261735794	466.21165585692
5	878	2148.253569701019	452.7836663636
5	885	2166.536719024546	468.03728657052
5	904	2201.381826196788	498.84395044557
5	909	2206.454653649839	496.43145401705
5	910	2209.034124112242	497.20244512597
5	913	2213.32815851788	497.53388844271
5	918	2222.736137322139	488.5623855439
5	919	2235.564782962741	495.16197266729
5	922	2240.083150995601	485.71129915262
5	923	2242.360290333439	484.64733821919
5	928	2246.804273310882	451.55249628088
5	935	2259.162978793621	455.59934721523
5	940	2266.495882593451	461.79376143034
5	947	2282.614574158485	468.66895582498
5	948	2287.463532377076	472.27359323484
5	951	2289.162294590869	459.16141680112
5	954	2296.562511803971	452.4752692447
5	955	2297.963971409529	432.61150593279
5	956	2299.619218654715	416.00979737935
5	957	2309.77712683097	423.79985233404
5	960	2319.967123111976	433.6280102689
5	963	2322.140410298725	415.96818651376
5	964	2322.270336479738	396.9474334055
5	965	2328.482183043545	401.86452636838
5	972	2335.233012110184	405.72383751916
5	973	2343.282645203473	396.83012695744
5	974	2344.748950747102	377.40498666663
5	975	2346.561414290207	377.94408320159
5	978	2361.996610430731	382.31454205002
5	981	2363.409336190264	381.05190385521
5	1011	2458.30918567574	474.53500140177
5	1014	2466.629172709198	475.61702257693
5	1015	2467.064399552661	471.10106489221
5	1021	2487.34731899223	483.56063249465
6	132	355.43110851229	23
6	133	356.289071032285	24
6	134	356.791637058396	25
6	135	365.649210105172	26
6	138	374.342573227751	27
6	242	655.249755756516	28
6	245	658.5776834445	29
6	257	694.813432658875	30
6	262	703.349784695509	31
6	265	705.337847502063	32
6	273	723.808202201565	33
6	276	732.353489377355	34
6	279	736.506099422305	35
6	280	739.415585179368	36
6	286	761.699658928515	37
6	291	766.761990640242	38
6	294	768.772222959803	39
6	297	776.269401025443	40
6	300	788.782766853025	41
6	301	790.676538813323	42
6	309	816.058754335854	43
6	325	847.362576147482	44
6	328	849.440867008738	45
6	333	858.022496816537	46
6	334	859.610926023746	47
6	335	863.973241622744	48
6	336	865.836652397843	49
6	339	876.55187795088	50
6	359	904.360716423071	51
6	360	906.48956759664	52
6	366	909.597702177503	53
6	389	958.975972343926	54
6	390	961.353927542453	55
6	394	966.577159851036	56
6	397	970.275836182507	57
6	400	971.342383205869	58
6	401	976.058806776958	59
6	402	979.138693432266	60
6	403	980.609501478715	61
6	418	1004.030888432242	62
6	421	1008.7019507123	63
6	435	1038.146051304708	64
6	436	1046.646874157193	65
6	439	1058.001369086884	66
6	440	1061.049589362908	67
6	441	1062.917519606499	68
6	442	1072.618281130712	69
6	460	1119.600136960153	70
6	461	1120.115438419374	71
6	462	1120.325217669554	72
6	463	1123.259763257796	73
6	464	1140.402420740912	74
6	465	1143.571820051246	75
6	466	1148.017657244557	76
6	469	1157.987021879833	77
6	487	1187.513015468561	78
6	493	1215.381034599725	79
6	496	1223.959232878933	80
6	497	1237.675981381556	81
6	498	1239.13290980731	82
6	499	1243.17335624731	83
6	504	1256.575287215326	84
6	507	1267.147959747939	85
6	508	1275.89529360385	86
6	518	1296.334158548862	87
6	519	1299.636991532806	88
6	522	1309.274418837639	89
6	525	1318.594044384016	90
6	530	1329.301835480779	91
6	538	1351.176412504516	92
6	539	1351.351733924528	93
6	551	1373.956439500212	94
6	552	1374.419530356953	95
6	553	1378.054638746362	96
6	554	1385.538758973354	97
6	555	1387.729725515366	98
6	556	1390.585428742206	99
6	563	1400.877033436179	100
6	564	1401.674936564595	101
6	565	1407.133656873881	102
6	566	1408.036255025035	103
6	574	1423.726456268061	104
6	575	1426.804389044306	105
6	576	1428.779026909443	106
6	577	1434.348766251108	107
6	578	1435.926408893641	108
6	579	1441.3780159874	109
6	596	1475.651824532006	110
6	597	1478.034499335485	111
6	605	1493.733007068159	112
6	611	1513.905930051434	113
6	618	1523.486625263662	114
6	619	1525.631315710228	115
6	620	1532.205500492585	116
6	621	1533.934469366871	117
6	630	1557.17674129922	118
6	631	1567.444111501487	119
6	639	1575.749459799961	120
6	642	1577.766986885057	121
6	643	1580.752877758606	122
6	646	1588.814786977087	123
6	647	1589.320144668785	124
6	648	1595.292295514242	125
6	649	1598.996599628803	126
6	650	1601.957213890686	127
6	657	1613.931600735165	128
6	658	1614.59626219134	129
6	661	1621.863541748377	130
6	669	1638.170626865547	131
6	713	1726.858869973756	132
6	714	1728.044064531708	133
6	715	1729.780121597155	134
6	716	1732.598926204592	135
6	729	1774.134952416413	136
6	730	1785.513874545781	137
6	778	1901.896744516805	138
6	779	1904.622586898753	139
6	783	1911.802513832511	140
6	784	1919.02417400672	141
6	785	1919.276657535212	142
6	795	1960.671441511372	143
6	809	1990.136246542069	144
6	814	1999.91955235865	145
6	815	2000.101017335519	146
6	822	2017.155506028203	147
6	823	2018.455221476885	148
6	828	2035.712601177101	149
6	829	2036.495833027355	150
6	837	2052.684746093853	151
6	874	2138.189942015745	152
6	875	2141.059622286633	153
6	876	2143.865463377622	154
6	877	2145.363261735794	155
6	878	2148.253569701019	156
6	909	2206.454653649839	157
6	910	2209.034124112242	158
6	913	2213.32815851788	159
6	918	2222.736137322139	160
6	919	2235.564782962741	161
6	922	2240.083150995601	162
6	923	2242.360290333439	163
6	928	2246.804273310882	164
6	935	2259.162978793621	165
6	947	2282.614574158485	166
6	948	2287.463532377076	167
6	951	2289.162294590869	168
6	955	2297.963971409529	169
6	956	2299.619218654715	170
6	957	2309.77712683097	171
6	963	2322.140410298725	172
6	964	2322.270336479738	173
6	965	2328.482183043545	174
6	972	2335.233012110184	175
6	973	2343.282645203473	176
6	974	2344.748950747102	177
6	975	2346.561414290207	178
6	978	2361.996610430731	179
6	981	2363.409336190264	180
6	1015	2467.064399552661	181
7	132	355.43110851229	23.026500337251
7	133	356.289071032285	8.605717108949
7	134	356.791637058396	7.292225097515
7	135	365.649210105172	11.476702277365
7	138	374.342573227751	1.176999300738
7	242	655.249755756516	247.04247840509
7	245	658.5776834445	246.57938599439
7	257	694.813432658875	258.74003178593
7	262	703.349784695509	266.03555088
7	265	705.337847502063	268.00989455525
7	273	723.808202201565	263.99774922678
7	276	732.353489377355	269.8089492543
7	279	736.506099422305	267.52704437524
7	280	739.415585179368	267.49542304487
7	286	761.699658928515	267.11130439077
7	291	766.761990640242	269.04844002365
7	294	768.772222959803	260.99387048782
7	297	776.269401025443	248.64262594007
7	300	788.782766853025	217.63955145174
7	301	790.676538813323	211.28510655724
7	309	816.058754335854	208.14553079221
7	325	847.362576147482	222.69690933134
7	328	849.440867008738	218.7340151443
7	333	858.022496816537	220.53540308189
7	334	859.610926023746	216.1936581259
7	335	863.973241622744	210.57952681481
7	336	865.836652397843	209.5263834505
7	339	876.55187795088	214.12027094639
7	359	904.360716423071	209.02560203388
7	360	906.48956759664	204.97332515198
7	366	909.597702177503	197.78221843001
7	389	958.975972343926	243.31180256731
7	390	961.353927542453	234.31380060154
7	394	966.577159851036	225.31622817741
7	397	970.275836182507	224.13624624303
7	400	971.342383205869	208.69829348962
7	401	976.058806776958	210.28409959004
7	402	979.138693432266	210.60006211773
7	403	980.609501478715	211.37388897187
7	418	1004.030888432242	202.02273919198
7	421	1008.7019507123	192.94492698776
7	435	1038.146051304708	215.28576697284
7	436	1046.646874157193	218.51003893096
7	439	1058.001369086884	225.8715957727
7	440	1061.049589362908	227.98712473056
7	441	1062.917519606499	222.70846467125
7	442	1072.618281130712	227.57470162863
7	460	1119.600136960153	262.36451617713
7	461	1120.115438419374	248.39929737235
7	462	1120.325217669554	242.78140679891
7	463	1123.259763257796	241.68578205684
7	464	1140.402420740912	256.60602479045
7	465	1143.571820051246	251.62341007638
7	466	1148.017657244557	255.56639190324
7	469	1157.987021879833	261.69999877181
7	487	1187.513015468561	279.92457623432
7	493	1215.381034599725	302.8614772941
7	496	1223.959232878933	311.23948160952
7	497	1237.675981381556	321.97251230215
7	498	1239.13290980731	307.5053007281
7	499	1243.17335624731	302.81723863363
7	504	1256.575287215326	303.64861401899
7	507	1267.147959747939	312.45834443291
7	508	1275.89529360385	317.7053504277
7	518	1296.334158548862	329.02785404487
7	519	1299.636991532806	328.34347114958
7	522	1309.274418837639	327.44561375757
7	525	1318.594044384016	329.82365828556
7	530	1329.301835480779	337.40986861864
7	538	1351.176412504516	357.58377551585
7	539	1351.351733924528	356.29084746975
7	551	1373.956439500212	360.99022488931
7	552	1374.419530356953	358.16990626208
7	553	1378.054638746362	359.83506296904
7	554	1385.538758973354	367.16051256724
7	555	1387.729725515366	354.26966535784
7	556	1390.585428742206	352.89832804098
7	563	1400.877033436179	346.8950282059
7	564	1401.674936564595	323.74623131568
7	565	1407.133656873881	320.01429716201
7	566	1408.036255025035	305.49576336443
7	574	1423.726456268061	316.14187785006
7	575	1426.804389044306	313.11223211985
7	576	1428.779026909443	280.7050949477
7	577	1434.348766251108	275.4149566563
7	578	1435.926408893641	276.93146539033
7	579	1441.3780159874	281.50804477031
7	596	1475.651824532006	295.47156399812
7	597	1478.034499335485	290.64765032407
7	605	1493.733007068159	279.79489881603
7	611	1513.905930051434	267.00749330446
7	618	1523.486625263662	276.21029954008
7	619	1525.631315710228	259.57509291941
7	620	1532.205500492585	253.83528617458
7	621	1533.934469366871	254.94627142326
7	630	1557.17674129922	255.21415875043
7	631	1567.444111501487	250.43937081807
7	639	1575.749459799961	248.50905590282
7	642	1577.766986885057	246.06790997948
7	643	1580.752877758606	241.44094787393
7	646	1588.814786977087	244.7256348181
7	647	1589.320144668785	235.18104675156
7	648	1595.292295514242	240.96570851784
7	649	1598.996599628803	241.40591224288
7	650	1601.957213890686	239.5555735733
7	657	1613.931600735165	243.38293789607
7	658	1614.59626219134	221.11842767511
7	661	1621.863541748377	227.50653189449
7	669	1638.170626865547	228.72580688326
7	713	1726.858869973756	284.45705989324
7	714	1728.044064531708	285.20116476501
7	715	1729.780121597155	271.51647092036
7	716	1732.598926204592	272.35353934291
7	729	1774.134952416413	295.54301414243
7	730	1785.513874545781	303.08259725978
7	778	1901.896744516805	402.54662002142
7	779	1904.622586898753	400.61490864141
7	783	1911.802513832511	390.9718250993
7	784	1919.02417400672	397.12673389045
7	785	1919.276657535212	385.23560054196
7	795	1960.671441511372	416.83571289525
7	809	1990.136246542069	412.52192460097
7	814	1999.91955235865	411.53720324719
7	815	2000.101017335519	395.11656712556
7	822	2017.155506028203	405.54392044382
7	823	2018.455221476885	397.4846416807
7	828	2035.712601177101	408.70106896581
7	829	2036.495833027355	407.47959185776
7	837	2052.684746093853	411.48401711066
7	874	2138.189942015745	481.19148576989
7	875	2141.059622286633	473.67431004049
7	876	2143.865463377622	472.92379799108
7	877	2145.363261735794	468.0225057174
7	878	2148.253569701019	469.10196382214
7	909	2206.454653649839	503.91677789863
7	910	2209.034124112242	499.01092447945
7	913	2213.32815851788	501.49647953161
7	918	2222.736137322139	506.94186724697
7	919	2235.564782962741	501.3910311845
7	922	2240.083150995601	499.68034070015
7	923	2242.360290333439	487.98843849045
7	928	2246.804273310882	489.09132119664
7	935	2259.162978793621	463.91120176362
7	947	2282.614574158485	477.91245299537
7	948	2287.463532377076	473.51791404357
7	951	2289.162294590869	473.97235544863
7	955	2297.963971409529	453.87672885026
7	956	2299.619218654715	434.26675317798
7	957	2309.77712683097	426.16770555561
7	963	2322.140410298725	435.80129745565
7	964	2322.270336479738	416.09811269477
7	965	2328.482183043545	403.15927996931
7	972	2335.233012110184	408.61535543502
7	973	2343.282645203473	413.77347061245
7	974	2344.748950747102	398.29643250107
7	975	2346.561414290207	379.21745020973
7	978	2361.996610430731	393.37927934211
7	981	2363.409336190264	383.72726780956
7	1015	2467.064399552661	476.0522494204
8	140	381.910508285344	1
8	142	382.12216177113	2
8	144	385.458599038288	3
8	151	401.932998597983	1
8	153	404.293112790177	2
8	168	437.903864460807	2
8	170	439.767450543379	3
8	178	467.105152708054	4
8	194	507.778352471988	1
8	196	511.970843354015	2
8	198	523.641403692857	3
8	200	523.764599663184	4
8	202	526.525142992614	5
8	208	556.097184880185	4
8	211	564.45633319999	4
8	227	627.778284939314	3
8	234	638.222539276565	3
8	247	662.431607004495	1
8	249	662.436923341715	2
8	252	669.501349085891	2
8	269	712.041199677948	1
8	282	741.260931673624	1
8	303	799.551242766425	1
8	313	822.860284331871	1
8	341	877.543810870645	1
8	347	887.337605029767	2
8	349	888.487505027603	3
8	364	907.588439234243	1
8	368	909.614822051967	1
8	376	920.771602651114	2
8	392	964.27347470108	1
8	405	981.828805080065	1
8	412	991.993690733228	1
8	425	1016.249624094874	1
8	444	1077.928705248913	1
8	446	1080.302015026252	2
8	456	1107.584578418003	1
8	471	1158.933809594803	1
8	489	1188.996723057024	1
8	512	1278.988197943606	1
8	532	1331.699076905576	1
8	543	1354.3265869964	1
8	570	1410.690821772367	1
8	581	1442.401810080516	1
8	586	1458.263650676793	1
8	588	1458.853799594753	2
8	594	1474.67750170795	1
8	599	1478.591938273987	1
8	607	1499.350124495382	1
8	625	1540.927398831871	1
8	628	1543.83572861612	1
8	635	1571.160236717777	1
8	663	1627.011532211296	1
8	671	1641.200728983196	1
8	675	1649.139788179428	2
8	677	1651.886764969815	3
8	688	1677.97722850772	3
8	694	1691.221218932796	2
8	698	1695.469903337416	1
8	704	1709.973952942435	2
8	718	1734.173751778239	1
8	722	1741.631715878164	2
8	732	1795.251777029999	1
8	734	1796.186514870931	2
8	740	1810.233699922377	3
8	746	1821.747407345427	4
8	754	1852.560548192826	3
8	756	1854.576513861016	4
8	761	1868.175832967458	4
8	763	1869.101112407136	5
8	767	1883.079443135498	4
8	781	1906.172223784969	1
8	791	1929.509174591028	1
8	797	1967.343964080476	1
8	802	1979.682068380707	1
8	805	1982.357432335051	1
8	817	2003.786686497585	1
8	819	2006.5504223079	2
8	835	2040.249635521158	1
8	839	2053.063007369747	1
8	849	2076.247451695774	2
8	851	2080.649378436169	3
8	855	2086.329528345313	2
8	868	2116.760152658708	2
8	871	2130.649701280081	2
8	880	2149.349687489204	1
8	889	2171.319197265902	1
8	895	2183.040962897326	2
8	897	2183.478361293144	3
8	937	2263.858396856056	1
8	953	2294.457992447564	1
8	959	2319.143568197383	1
8	983	2364.097716176362	1
8	987	2369.034416376807	2
8	990	2379.332298766566	2
8	994	2382.99845866801	3
8	1002	2420.064793868789	2
8	1007	2435.541766541786	2
8	1013	2461.309526535168	1
8	1017	2468.83020005602	1
8	1019	2471.034788360199	2
9	140	381.910508285344	0
9	145	387.475109944316	5.352948173186
9	146	387.499789153849	2.041190115561
9	151	401.932998597983	0
9	160	423.477423664014	19.184310873837
9	185	481.130457259341	43.226592798534
9	190	502.754128168234	62.986677624855
9	191	502.754959140401	35.649806432347
9	194	507.778352471988	0
9	205	545.056568052921	33.085724698906
9	206	553.962356042216	30.320952349359
9	209	559.394488000357	35.629888337173
9	216	597.757577415619	71.232434423005
9	221	609.200708763501	53.103523883316
9	228	627.850065180825	63.393731980835
9	235	641.818750516254	14.04046557694
9	236	642.491644901685	4.26910562512
9	247	662.431607004495	0
9	250	665.923557816786	3.486634475071
9	253	670.947850548425	1.446501462534
9	269	712.041199677948	0
9	282	741.260931673624	0
9	303	799.551242766425	0
9	313	822.860284331871	0
9	341	877.543810870645	0
9	350	888.544804549493	1.207199519726
9	351	889.715511680163	1.22800665256
9	364	907.588439234243	0
9	368	909.614822051967	0
9	377	927.553314710284	6.78171205917
9	392	964.27347470108	0
9	405	981.828805080065	0
9	412	991.993690733228	0
9	425	1016.249624094874	0
9	444	1077.928705248913	0
9	449	1098.700308533605	18.398293507353
9	456	1107.584578418003	0
9	471	1158.933809594803	0
9	489	1188.996723057024	0
9	512	1278.988197943606	0
9	532	1331.699076905576	0
9	543	1354.3265869964	0
9	570	1410.690821772367	0
9	581	1442.401810080516	0
9	586	1458.263650676793	0
9	591	1472.844665828056	13.990866233303
9	594	1474.67750170795	0
9	599	1478.591938273987	0
9	607	1499.350124495382	0
9	625	1540.927398831871	0
9	628	1543.83572861612	0
9	635	1571.160236717777	0
9	663	1627.011532211296	0
9	671	1641.200728983196	0
9	680	1658.991447333643	9.851659154215
9	691	1684.302249583781	32.415484613966
9	692	1690.545657721914	12.568429214194
9	695	1691.957630410834	0.736411478038
9	698	1695.469903337416	0
9	709	1713.758080824493	3.784127882058
9	718	1734.173751778239	0
9	723	1746.376797001642	4.745081123478
9	732	1795.251777029999	0
9	747	1829.638276815111	33.45176194418
9	752	1844.493377842467	34.25967792009
9	759	1867.950906476509	46.203499131082
9	764	1878.617551273539	26.057003080713
9	765	1882.082053505444	27.505539644428
9	774	1890.239875301144	22.064042333686
9	775	1891.834949950003	22.733837542867
9	776	1893.798107403275	10.718664267777
9	781	1906.172223784969	0
9	791	1929.509174591028	0
9	797	1967.343964080476	0
9	802	1979.682068380707	0
9	805	1982.357432335051	0
9	817	2003.786686497585	0
9	820	2007.221621584388	0.671199276488
9	835	2040.249635521158	0
9	839	2053.063007369747	0
9	852	2084.239711963553	7.992260267779
9	853	2084.543658400954	3.894279964785
9	862	2107.731025333821	21.401496988508
9	869	2128.803231563505	12.043078904797
9	872	2135.850558345311	5.20085706523
9	880	2149.349687489204	0
9	889	2171.319197265902	0
9	898	2183.519953260058	0.478990362732
9	903	2201.106059238188	17.627697945044
9	937	2263.858396856056	0
9	953	2294.457992447564	0
9	959	2319.143568197383	0
9	983	2364.097716176362	0
9	988	2378.846990194908	9.812573818101
9	997	2385.1161459232	5.783847156634
9	998	2400.196307918987	17.197849250977
9	1003	2421.313956049676	1.249162180887
9	1010	2456.713329076885	21.171562535099
9	1013	2461.309526535168	0
9	1017	2468.83020005602	0
9	1020	2471.460111626829	0.42532326663
10	151	401.932998597983	9
10	194	507.778352471988	10
10	247	662.431607004495	11
10	269	712.041199677948	12
10	282	741.260931673624	13
10	303	799.551242766425	14
10	313	822.860284331871	15
10	341	877.543810870645	16
10	364	907.588439234243	17
10	368	909.614822051967	18
10	392	964.27347470108	19
10	405	981.828805080065	20
10	412	991.993690733228	21
10	425	1016.249624094874	22
10	444	1077.928705248913	23
10	456	1107.584578418003	24
10	471	1158.933809594803	25
10	489	1188.996723057024	26
10	512	1278.988197943606	27
10	532	1331.699076905576	28
10	543	1354.3265869964	29
10	570	1410.690821772367	30
10	581	1442.401810080516	31
10	586	1458.263650676793	32
10	594	1474.67750170795	33
10	599	1478.591938273987	34
10	607	1499.350124495382	35
10	625	1540.927398831871	36
10	628	1543.83572861612	37
10	635	1571.160236717777	38
10	663	1627.011532211296	39
10	671	1641.200728983196	40
10	698	1695.469903337416	41
10	718	1734.173751778239	42
10	732	1795.251777029999	43
10	781	1906.172223784969	44
10	791	1929.509174591028	45
10	797	1967.343964080476	46
10	802	1979.682068380707	47
10	805	1982.357432335051	48
10	817	2003.786686497585	49
10	835	2040.249635521158	50
10	839	2053.063007369747	51
10	880	2149.349687489204	52
10	889	2171.319197265902	53
10	937	2263.858396856056	54
10	953	2294.457992447564	55
10	959	2319.143568197383	56
10	983	2364.097716176362	57
10	1013	2461.309526535168	58
10	1017	2468.83020005602	59
11	1022	2500	0.0724
12	1022	2500	0.048

