file 59344 1678560134                                           
version 2
run experiments_hard_game_mode1-817-20230311-19:42:14-8912
attr configname experiments_hard_game_mode1
attr datetime 20230311-19:42:14
attr experiment experiments_hard_game_mode1
attr inifile omnetpp.ini
attr iterationvars "$0=8.5, $1=6, $2=100"
attr iterationvarsf 8.5,6,100-
attr measurement "$0=8.5, $1=6, $2=100"
attr network Network
attr processid 8912
attr repetition 7
attr replication #7
attr resultdir results
attr runnumber 817
attr seedset 7
param *.boss.arrival_mean 20
param *.boss.service_mean 8.5
param *.minion.arrival_mean 10
param *.minion.service_mean 6
param *.player.recover_rate_x 100
param **.minion.arrival_distribution 0
param **.minion.service_distribution 0
param **.boss.arrival_distribution 0
param **.boss.service_distribution 0

vector 0 Network.player boss_jobs_number_stat:vector ETV
attr source signal_boss_jobs_number
vector 1 Network.player boss_jobs_queue_number_stat:vector ETV
attr source signal_boss_jobs_queue_number
vector 2 Network.player boss_waiting_time_stat:vector ETV
attr source signal_boss_waiting_time
vector 3 Network.player minion_jobs_number_stat:vector ETV
attr source signal_minion_jobs_number
vector 4 Network.player minion_jobs_queue_number_stat:vector ETV
attr source signal_minion_jobs_queue_number
vector 5 Network.player boss_defeated_stat:vector ETV
attr source signal_boss_defeated
vector 6 Network.player boss_response_time_stat:vector ETV
attr source signal_boss_response_time
vector 7 Network.player minion_waiting_time_stat:vector ETV
attr source signal_minion_waiting_time
vector 8 Network.player minion_defeated_stat:vector ETV
attr source signal_minion_defeated
vector 9 Network.player minion_response_time_stat:vector ETV
attr source signal_minion_response_time
vector 10 Network.player minion_recovered_stat:vector ETV
attr source signal_minion_recovered
vector 11 Network.player minion_throughput:vector ETV
attr source signal_minion_throughput
vector 12 Network.player boss_throughput:vector ETV
attr source signal_boss_throughput
0	2016 2848 122 1033 354.444077836132 2480.556299264915 111 1 4 165 295
1	4864 5703 122 1034 354.444077836132 2492.474260312742 222 0 3 108 152
2	10567 3426 122 1033 354.444077836132 2480.556299264915 111 0 42.395158395661 328.4677354645 6396.0666273902
3	13993 5379 124 1036 362.779012560417 2493.238974334309 205 1 32 2887 57551
4	19372 9915 124 1037 362.779012560417 2497.661829207911 379 0 31 4899 94509
5	29287 2990 125 1034 374.759401162584 2492.474260312742 111 13 123 7548 627224
6	32277 4325 125 1034 374.759401162584 2492.474260312742 111 0.063021842885 47.425302957342 1137.4489592403 22088.29682122
7	36602 9354 125 1037 374.759401162584 2497.661829207911 238 0 237.46509636777 23724.570955092 3368051.3943431
8	45956 4732 128 1037 380.419404008889 2497.661829207911 174 29 202 20097 2760191
9	50688 6869 128 1037 380.419404008889 2497.661829207911 174 1.773599056001 238.13622058826 17791.257232401 2511945.5857773
10	57557 1746 153 1033 436.114629776888 2480.556299264915 63 8 70 2457 116655
11	59303 20 1038 1038 2500 2500 1 0.0808 0.0808 0.0808 0.00652864
12	59323 20 1038 1038 2500 2500 1 0.0492 0.0492 0.0492 0.00242064

