version 2
run experiments_hard_game_mode1-1783-20230311-19:46:08-13991
attr configname experiments_hard_game_mode1
attr datetime 20230311-19:46:08
attr experiment experiments_hard_game_mode1
attr inifile omnetpp.ini
attr iterationvars "$0=10, $1=7, $2=100"
attr iterationvarsf 10,7,100-
attr measurement "$0=10, $1=7, $2=100"
attr network Network
attr processid 13991
attr repetition 13
attr replication #13
attr resultdir results
attr runnumber 1783
attr seedset 13
param *.boss.arrival_mean 20
param *.boss.service_mean 10
param *.minion.arrival_mean 10
param *.minion.service_mean 7
param *.player.recover_rate_x 100
param **.minion.arrival_distribution 0
param **.minion.service_distribution 0
param **.boss.arrival_distribution 0
param **.boss.service_distribution 0

vector 0 Network.player boss_jobs_number_stat:vector ETV
attr source signal_boss_jobs_number
vector 1 Network.player boss_jobs_queue_number_stat:vector ETV
attr source signal_boss_jobs_queue_number
vector 2 Network.player boss_defeated_stat:vector ETV
attr source signal_boss_defeated
vector 3 Network.player boss_response_time_stat:vector ETV
attr source signal_boss_response_time
vector 4 Network.player boss_waiting_time_stat:vector ETV
attr source signal_boss_waiting_time
vector 5 Network.player minion_jobs_number_stat:vector ETV
attr source signal_minion_jobs_number
vector 6 Network.player minion_jobs_queue_number_stat:vector ETV
attr source signal_minion_jobs_queue_number
vector 7 Network.player minion_waiting_time_stat:vector ETV
attr source signal_minion_waiting_time
vector 8 Network.player minion_defeated_stat:vector ETV
attr source signal_minion_defeated
vector 9 Network.player minion_response_time_stat:vector ETV
attr source signal_minion_response_time
vector 10 Network.player minion_recovered_stat:vector ETV
attr source signal_minion_recovered
vector 11 Network.player minion_throughput:vector ETV
attr source signal_minion_throughput
vector 12 Network.player boss_throughput:vector ETV
attr source signal_boss_throughput
0	143	350.881313172297	3
0	150	360.818519535049	3
0	152	361.531643308555	4
0	158	371.908598985871	3
0	161	376.931018151467	3
0	164	381.136330067117	3
0	195	429.073456309595	1
0	203	458.216863057689	1
0	211	485.039383383465	1
0	221	504.219337313665	1
0	225	513.42129579689	2
0	240	565.569280449517	1
0	253	626.472031129181	1
0	257	634.336558468053	1
0	261	638.192742303279	2
0	263	644.030677267764	3
0	265	644.144963208146	4
0	271	669.619848426002	5
0	280	693.409668976404	3
0	319	809.310921917985	1
0	329	827.380958355965	2
0	332	834.74067954906	2
0	343	858.166594785723	2
0	345	861.941115502046	3
0	354	883.655885421752	1
0	356	887.512647225875	2
0	364	903.905552536614	1
0	367	907.483937674146	1
0	394	990.413455002523	1
0	400	1008.003682923438	1
0	406	1020.417949707382	1
0	411	1033.249379298814	1
0	419	1053.470206707816	1
0	428	1065.821984533476	1
0	434	1072.614960455695	2
0	436	1077.976575989947	3
0	453	1104.858659015191	1
0	465	1143.647684051215	1
0	473	1159.235141044981	2
0	480	1171.966462265233	2
0	487	1196.686858693904	2
0	489	1197.809451509109	3
0	491	1201.314877016841	4
0	518	1301.300109462689	1
0	523	1316.697341954421	1
0	525	1321.049430127316	2
0	528	1327.240078304281	2
0	539	1352.172457290686	1
0	570	1419.760823824721	1
0	582	1453.65964639195	1
0	616	1539.073766767534	1
0	621	1551.811268998897	1
0	627	1574.680051997075	1
0	633	1580.731531549448	1
0	635	1583.786751798574	2
0	641	1595.405242588751	3
0	649	1614.424317239799	2
0	653	1619.123148538388	1
0	658	1628.846044176192	1
0	666	1641.653488925519	1
0	668	1646.228649184495	2
0	670	1651.491893488932	3
0	674	1656.443885829001	4
0	676	1659.95899571819	5
0	682	1686.518869704216	4
0	685	1691.412908866778	4
0	698	1722.827600274038	2
0	700	1726.331710433346	3
0	713	1767.39258822199	1
0	738	1826.132510283332	1
0	742	1837.232700665273	1
0	753	1856.676250964027	1
0	755	1857.37999332076	2
0	761	1883.476859197256	1
0	763	1885.403139532809	2
0	776	1927.167334289672	1
0	778	1928.858537845573	2
0	792	1985.692923559129	1
0	813	2035.12845233487	1
0	817	2037.706644485021	2
0	820	2043.472956852933	2
0	833	2086.337690370672	1
0	836	2097.545413534898	1
0	838	2099.566104157284	2
0	844	2115.320149594233	1
0	856	2145.854161296251	1
0	867	2165.681529415681	1
0	874	2187.109250616897	1
0	907	2221.454825515369	1
0	929	2264.236815591852	1
0	932	2271.874558676346	1
0	939	2293.078236472355	1
0	960	2336.495621840945	1
0	964	2337.348088405461	2
0	972	2352.254707627457	3
0	982	2372.17973835098	1
0	995	2414.535637886846	1
0	1011	2439.36645112858	1
0	1013	2440.572633583659	2
0	1024	2452.701691149425	1
0	1026	2455.773500652442	2
0	1029	2478.047714483756	2
0	1035	2490.461691942782	3
1	143	350.881313172297	2
1	144	353.400641430858	2
1	150	360.818519535049	2
1	152	361.531643308555	3
1	155	367.974680978571	3
1	156	371.682658748486	2
1	158	371.908598985871	2
1	159	372.210642046528	2
1	161	376.931018151467	2
1	162	378.379327447058	2
1	164	381.136330067117	2
1	171	393.327773220161	2
1	172	398.251296420495	1
1	173	398.343106074126	0
1	195	429.073456309595	0
1	196	430.287952725652	0
1	203	458.216863057689	0
1	204	467.848383726258	0
1	211	485.039383383465	0
1	212	485.690685010453	0
1	221	504.219337313665	0
1	225	513.42129579689	1
1	226	521.29587359071	1
1	227	528.900542403417	0
1	240	565.569280449517	0
1	245	588.45469455494	0
1	253	626.472031129181	0
1	254	628.118615039884	0
1	257	634.336558468053	0
1	261	638.192742303279	1
1	263	644.030677267764	2
1	265	644.144963208146	3
1	271	669.619848426002	4
1	274	676.749875443619	4
1	275	678.902440021027	3
1	278	685.769021264607	2
1	280	693.409668976404	2
1	287	707.397073129193	2
1	288	711.740641857631	1
1	293	725.535930500947	0
1	319	809.310921917985	0
1	329	827.380958355965	1
1	330	829.49137569548	1
1	332	834.74067954906	1
1	341	857.781747880585	1
1	343	858.166594785723	1
1	345	861.941115502046	2
1	348	862.838167876351	2
1	349	865.016226432308	1
1	350	875.334847863564	0
1	354	883.655885421752	0
1	356	887.512647225875	1
1	357	892.065272869472	1
1	358	892.27192667841	0
1	364	903.905552536614	0
1	365	906.430737667972	0
1	367	907.483937674146	0
1	370	923.990941133117	0
1	394	990.413455002523	0
1	395	995.388525575268	0
1	400	1008.003682923438	0
1	401	1013.618090303154	0
1	406	1020.417949707382	0
1	407	1024.209920629874	0
1	411	1033.249379298814	0
1	414	1041.426205784182	0
1	419	1053.470206707816	0
1	420	1056.118540228127	0
1	428	1065.821984533476	0
1	434	1072.614960455695	1
1	436	1077.976575989947	2
1	437	1080.9229473495	2
1	438	1083.447831230515	1
1	439	1088.598797300205	0
1	453	1104.858659015191	0
1	454	1112.06042855495	0
1	465	1143.647684051215	0
1	473	1159.235141044981	1
1	476	1167.506798675665	1
1	480	1171.966462265233	1
1	483	1192.461761438339	1
1	487	1196.686858693904	1
1	489	1197.809451509109	2
1	491	1201.314877016841	3
1	492	1202.959114506187	3
1	493	1209.041036343037	2
1	496	1222.033847838854	1
1	503	1255.750432456312	0
1	518	1301.300109462689	0
1	521	1316.421453824281	0
1	523	1316.697341954421	0
1	525	1321.049430127316	1
1	526	1326.481003186791	1
1	528	1327.240078304281	1
1	529	1330.800030201578	1
1	530	1332.714971107254	0
1	539	1352.172457290686	0
1	540	1352.371014732206	0
1	570	1419.760823824721	0
1	573	1437.79812119104	0
1	582	1453.65964639195	0
1	583	1458.100020392548	0
1	616	1539.073766767534	0
1	619	1547.219553442301	0
1	621	1551.811268998897	0
1	622	1555.424202827673	0
1	627	1574.680051997075	0
1	628	1576.326586260915	0
1	633	1580.731531549448	0
1	635	1583.786751798574	1
1	641	1595.405242588751	2
1	644	1605.872249411701	2
1	647	1612.444752502128	1
1	649	1614.424317239799	1
1	650	1615.366968540989	1
1	651	1617.807816456344	0
1	653	1619.123148538388	0
1	654	1621.882722934272	0
1	658	1628.846044176192	0
1	661	1635.583657231962	0
1	666	1641.653488925519	0
1	668	1646.228649184495	1
1	670	1651.491893488932	2
1	674	1656.443885829001	3
1	676	1659.95899571819	4
1	679	1665.724409324103	4
1	680	1672.312882963144	3
1	682	1686.518869704216	3
1	683	1687.310441380408	3
1	685	1691.412908866778	3
1	686	1692.695197403293	3
1	687	1698.31228004526	2
1	690	1706.96183928181	1
1	698	1722.827600274038	1
1	700	1726.331710433346	2
1	705	1732.445462817392	2
1	706	1739.591549360142	1
1	709	1751.891284377672	0
1	713	1767.39258822199	0
1	728	1808.833562258944	0
1	738	1826.132510283332	0
1	739	1826.877261333696	0
1	742	1837.232700665273	0
1	751	1854.82001627751	0
1	753	1856.676250964027	0
1	755	1857.37999332076	1
1	758	1860.563527172455	1
1	759	1880.259631588904	0
1	761	1883.476859197256	0
1	763	1885.403139532809	1
1	766	1902.12787742678	1
1	767	1910.356117797481	0
1	776	1927.167334289672	0
1	778	1928.858537845573	1
1	779	1937.264916560635	1
1	780	1941.35002489295	0
1	792	1985.692923559129	0
1	795	1995.248025547849	0
1	813	2035.12845233487	0
1	817	2037.706644485021	1
1	818	2038.254829454035	1
1	820	2043.472956852933	1
1	821	2054.773817140994	1
1	822	2061.836414432687	0
1	833	2086.337690370672	0
1	834	2096.455747233069	0
1	836	2097.545413534898	0
1	838	2099.566104157284	1
1	839	2101.54254257625	1
1	840	2104.654370841398	0
1	844	2115.320149594233	0
1	845	2116.615074414917	0
1	856	2145.854161296251	0
1	857	2150.724513352051	0
1	867	2165.681529415681	0
1	872	2179.367889914153	0
1	874	2187.109250616897	0
1	877	2191.339806147625	0
1	907	2221.454825515369	0
1	912	2233.746509683232	0
1	929	2264.236815591852	0
1	930	2266.472373775373	0
1	932	2271.874558676346	0
1	933	2280.647788424624	0
1	939	2293.078236472355	0
1	940	2296.092421385945	0
1	960	2336.495621840945	0
1	964	2337.348088405461	1
1	972	2352.254707627457	2
1	973	2352.837879764019	2
1	976	2364.006753394703	1
1	977	2366.044321094392	0
1	982	2372.17973835098	0
1	985	2391.04257969701	0
1	995	2414.535637886846	0
1	1000	2417.170489197232	0
1	1011	2439.36645112858	0
1	1013	2440.572633583659	1
1	1014	2441.632635267542	1
1	1017	2441.864763076397	0
1	1024	2452.701691149425	0
1	1026	2455.773500652442	1
1	1027	2467.447858132719	1
1	1029	2478.047714483756	1
1	1035	2490.461691942782	2
1	1038	2499.17098673709	2
2	144	353.400641430858	18
2	155	367.974680978571	19
2	156	371.682658748486	20
2	159	372.210642046528	21
2	162	378.379327447058	22
2	171	393.327773220161	23
2	172	398.251296420495	24
2	173	398.343106074126	25
2	196	430.287952725652	26
2	204	467.848383726258	27
2	212	485.690685010453	28
2	226	521.29587359071	29
2	227	528.900542403417	30
2	245	588.45469455494	31
2	254	628.118615039884	32
2	274	676.749875443619	33
2	275	678.902440021027	34
2	278	685.769021264607	35
2	287	707.397073129193	36
2	288	711.740641857631	37
2	293	725.535930500947	38
2	330	829.49137569548	39
2	341	857.781747880585	40
2	348	862.838167876351	41
2	349	865.016226432308	42
2	350	875.334847863564	43
2	357	892.065272869472	44
2	358	892.27192667841	45
2	365	906.430737667972	46
2	370	923.990941133117	47
2	395	995.388525575268	48
2	401	1013.618090303154	49
2	407	1024.209920629874	50
2	414	1041.426205784182	51
2	420	1056.118540228127	52
2	437	1080.9229473495	53
2	438	1083.447831230515	54
2	439	1088.598797300205	55
2	454	1112.06042855495	56
2	476	1167.506798675665	57
2	483	1192.461761438339	58
2	492	1202.959114506187	59
2	493	1209.041036343037	60
2	496	1222.033847838854	61
2	503	1255.750432456312	62
2	521	1316.421453824281	63
2	526	1326.481003186791	64
2	529	1330.800030201578	65
2	530	1332.714971107254	66
2	540	1352.371014732206	67
2	573	1437.79812119104	68
2	583	1458.100020392548	69
2	619	1547.219553442301	70
2	622	1555.424202827673	71
2	628	1576.326586260915	72
2	644	1605.872249411701	73
2	647	1612.444752502128	74
2	650	1615.366968540989	75
2	651	1617.807816456344	76
2	654	1621.882722934272	77
2	661	1635.583657231962	78
2	679	1665.724409324103	79
2	680	1672.312882963144	80
2	683	1687.310441380408	81
2	686	1692.695197403293	82
2	687	1698.31228004526	83
2	690	1706.96183928181	84
2	705	1732.445462817392	85
2	706	1739.591549360142	86
2	709	1751.891284377672	87
2	728	1808.833562258944	88
2	739	1826.877261333696	89
2	751	1854.82001627751	90
2	758	1860.563527172455	91
2	759	1880.259631588904	92
2	766	1902.12787742678	93
2	767	1910.356117797481	94
2	779	1937.264916560635	95
2	780	1941.35002489295	96
2	795	1995.248025547849	97
2	818	2038.254829454035	98
2	821	2054.773817140994	99
2	822	2061.836414432687	100
2	834	2096.455747233069	101
2	839	2101.54254257625	102
2	840	2104.654370841398	103
2	845	2116.615074414917	104
2	857	2150.724513352051	105
2	872	2179.367889914153	106
2	877	2191.339806147625	107
2	912	2233.746509683232	108
2	930	2266.472373775373	109
2	933	2280.647788424624	110
2	940	2296.092421385945	111
2	973	2352.837879764019	112
2	976	2364.006753394703	113
2	977	2366.044321094392	114
2	985	2391.04257969701	115
2	1000	2417.170489197232	116
2	1014	2441.632635267542	117
2	1017	2441.864763076397	118
2	1027	2467.447858132719	119
2	1038	2499.17098673709	120
3	144	353.400641430858	11.545928753859
3	155	367.974680978571	25.517854793662
3	156	371.682658748486	20.801345576189
3	159	372.210642046528	11.392122511479
3	162	378.379327447058	16.847684138503
3	171	393.327773220161	21.41917423429
3	172	398.251296420495	21.320278269028
3	173	398.343106074126	17.206776007009
3	196	430.287952725652	1.214496416057
3	204	467.848383726258	9.631520668569
3	212	485.690685010453	0.651301626988
3	226	521.29587359071	17.076536277045
3	227	528.900542403417	15.479246606527
3	245	588.45469455494	22.885414105423
3	254	628.118615039884	1.646583910703
3	274	676.749875443619	42.413316975566
3	275	678.902440021027	40.709697717748
3	278	685.769021264607	41.738343996843
3	287	707.397073129193	63.252109921047
3	288	711.740641857631	42.120793431629
3	293	725.535930500947	32.126261524543
3	330	829.49137569548	20.180453777495
3	341	857.781747880585	30.40078952462
3	348	862.838167876351	28.097488327291
3	349	865.016226432308	6.849631646585
3	350	875.334847863564	13.393732361518
3	357	892.065272869472	8.40938744772
3	358	892.27192667841	4.759279452535
3	365	906.430737667972	2.525185131358
3	370	923.990941133117	16.507003458971
3	395	995.388525575268	4.975070572745
3	401	1013.618090303154	5.614407379716
3	407	1024.209920629874	3.791970922492
3	414	1041.426205784182	8.176826485368
3	420	1056.118540228127	2.648333520311
3	437	1080.9229473495	15.100962816024
3	438	1083.447831230515	10.83287077482
3	439	1088.598797300205	10.622221310258
3	454	1112.06042855495	7.201769539759
3	476	1167.506798675665	23.85911462445
3	483	1192.461761438339	33.226620393358
3	492	1202.959114506187	30.992652240954
3	493	1209.041036343037	12.354177649133
3	496	1222.033847838854	24.224396329745
3	503	1255.750432456312	54.435555439471
3	521	1316.421453824281	15.121344361592
3	526	1326.481003186791	9.78366123237
3	529	1330.800030201578	9.750600074262
3	530	1332.714971107254	5.474892802973
3	540	1352.371014732206	0.19855744152
3	573	1437.79812119104	18.037297366319
3	583	1458.100020392548	4.440374000598
3	619	1547.219553442301	8.145786674767
3	622	1555.424202827673	3.612933828776
3	628	1576.326586260915	1.64653426384
3	644	1605.872249411701	25.140717862253
3	647	1612.444752502128	28.658000703554
3	650	1615.366968540989	19.961725952238
3	651	1617.807816456344	3.383499216545
3	654	1621.882722934272	2.759574395884
3	661	1635.583657231962	6.73761305577
3	679	1665.724409324103	24.070920398584
3	680	1672.312882963144	26.084233778649
3	683	1687.310441380408	35.818547891476
3	686	1692.695197403293	36.251311574292
3	687	1698.31228004526	38.35328432707
3	690	1706.96183928181	20.442969577594
3	705	1732.445462817392	41.032553950614
3	706	1739.591549360142	16.763949086104
3	709	1751.891284377672	25.559573944326
3	728	1808.833562258944	41.440974036954
3	739	1826.877261333696	0.744751050364
3	751	1854.82001627751	17.587315612237
3	758	1860.563527172455	3.887276208428
3	759	1880.259631588904	22.879638268144
3	766	1902.12787742678	18.651018229524
3	767	1910.356117797481	24.952978264672
3	779	1937.264916560635	10.097582270963
3	780	1941.35002489295	12.491487047377
3	795	1995.248025547849	9.55510198872
3	818	2038.254829454035	3.126377119165
3	821	2054.773817140994	17.067172655973
3	822	2061.836414432687	18.363457579754
3	834	2096.455747233069	10.118056862397
3	839	2101.54254257625	3.997129041352
3	840	2104.654370841398	5.088266684114
3	845	2116.615074414917	1.294924820684
3	857	2150.724513352051	4.8703520558
3	872	2179.367889914153	13.686360498472
3	877	2191.339806147625	4.230555530728
3	912	2233.746509683232	12.291684167863
3	930	2266.472373775373	2.235558183521
3	933	2280.647788424624	8.773229748278
3	940	2296.092421385945	3.01418491359
3	973	2352.837879764019	16.342257923074
3	976	2364.006753394703	26.658664989242
3	977	2366.044321094392	13.789613466935
3	985	2391.04257969701	18.86284134603
3	1000	2417.170489197232	2.634851310386
3	1014	2441.632635267542	2.266184138962
3	1017	2441.864763076397	1.292129492738
3	1027	2467.447858132719	14.746166983294
3	1038	2499.17098673709	43.397486084648
4	144	353.400641430858	10.943815245949
4	155	367.974680978571	17.093367806274
4	156	371.682658748486	10.864139213437
4	159	372.210642046528	10.678998737973
4	162	378.379327447058	6.470728461187
4	171	393.327773220161	16.396755068694
4	172	398.251296420495	17.114966353378
4	195	429.073456309595	0
4	203	458.216863057689	0
4	211	485.039383383465	0
4	221	504.219337313665	0
4	226	521.29587359071	7.87457779382
4	240	565.569280449517	0
4	253	626.472031129181	0
4	257	634.336558468053	0
4	274	676.749875443619	38.55713314034
4	275	678.902440021027	34.871762753263
4	278	685.769021264607	41.624058056461
4	287	707.397073129193	37.777224703191
4	288	711.740641857631	18.330972881227
4	319	809.310921917985	0
4	330	829.49137569548	2.110417339515
4	341	857.781747880585	23.041068331525
4	348	862.838167876351	4.671573090628
4	349	865.016226432308	3.075110930262
4	354	883.655885421752	0
4	357	892.065272869472	4.552625643597
4	364	903.905552536614	0
4	367	907.483937674146	0
4	394	990.413455002523	0
4	400	1008.003682923438	0
4	406	1020.417949707382	0
4	411	1033.249379298814	0
4	419	1053.470206707816	0
4	428	1065.821984533476	0
4	437	1080.9229473495	8.307986893805
4	438	1083.447831230515	5.471255240568
4	453	1104.858659015191	0
4	465	1143.647684051215	0
4	476	1167.506798675665	8.271657630684
4	483	1192.461761438339	20.495299173106
4	492	1202.959114506187	6.272255812283
4	493	1209.041036343037	11.231584833928
4	496	1222.033847838854	20.718970822013
4	518	1301.300109462689	0
4	523	1316.697341954421	0
4	526	1326.481003186791	5.431573059475
4	529	1330.800030201578	3.559951897297
4	539	1352.172457290686	0
4	570	1419.760823824721	0
4	582	1453.65964639195	0
4	616	1539.073766767534	0
4	621	1551.811268998897	0
4	627	1574.680051997075	0
4	633	1580.731531549448	0
4	644	1605.872249411701	22.085497613127
4	647	1612.444752502128	17.039509913377
4	650	1615.366968540989	0.94265130119
4	653	1619.123148538388	0
4	658	1628.846044176192	0
4	666	1641.653488925519	0
4	679	1665.724409324103	19.495760139608
4	680	1672.312882963144	20.820989474212
4	683	1687.310441380408	30.866555551407
4	686	1692.695197403293	32.736201685103
4	687	1698.31228004526	11.793410341044
4	690	1706.96183928181	15.548930415032
4	705	1732.445462817392	9.617862543354
4	706	1739.591549360142	13.259838926796
4	713	1767.39258822199	0
4	738	1826.132510283332	0
4	742	1837.232700665273	0
4	753	1856.676250964027	0
4	758	1860.563527172455	3.183533851695
4	761	1883.476859197256	0
4	766	1902.12787742678	16.724737893971
4	776	1927.167334289672	0
4	779	1937.264916560635	8.406378715062
4	792	1985.692923559129	0
4	813	2035.12845233487	0
4	818	2038.254829454035	0.548184969014
4	821	2054.773817140994	11.300860288061
4	833	2086.337690370672	0
4	836	2097.545413534898	0
4	839	2101.54254257625	1.976438418966
4	844	2115.320149594233	0
4	856	2145.854161296251	0
4	867	2165.681529415681	0
4	874	2187.109250616897	0
4	907	2221.454825515369	0
4	929	2264.236815591852	0
4	932	2271.874558676346	0
4	939	2293.078236472355	0
4	960	2336.495621840945	0
4	973	2352.837879764019	15.489791358558
4	976	2364.006753394703	11.752045767246
4	982	2372.17973835098	0
4	995	2414.535637886846	0
4	1011	2439.36645112858	0
4	1014	2441.632635267542	1.060001683883
4	1024	2452.701691149425	0
4	1027	2467.447858132719	11.674357480277
4	1038	2499.17098673709	21.123272253334
5	146	354.220807892071	20
5	148	358.816678104859	21
5	154	362.918884947423	22
5	166	382.502447573653	23
5	168	386.691966251989	24
5	170	391.480322332022	25
5	175	402.91178608321	26
5	178	403.909484036199	26
5	183	412.173305584134	24
5	185	416.102112529242	25
5	190	421.769602253501	23
5	193	427.13295448405	23
5	198	433.849908919438	24
5	201	447.408489393891	24
5	208	481.918541865505	23
5	214	492.645323064696	23
5	216	498.41728786812	24
5	218	500.665197321305	25
5	223	513.078115747372	25
5	229	529.606159204226	26
5	233	547.383719825004	25
5	238	562.820335773616	23
5	242	571.42461516205	24
5	244	576.44888564805	25
5	247	599.143554045033	26
5	249	606.28963701956	27
5	259	634.448028384357	25
5	267	650.35220467007	26
5	269	665.766420488575	27
5	273	671.661096219755	28
5	277	680.844601077482	29
5	282	694.4339970116	30
5	284	700.985969889335	31
5	286	701.806198171285	32
5	290	713.958362007736	33
5	292	720.645742409063	34
5	295	729.832992657518	35
5	299	735.531473481411	34
5	306	776.789953050879	30
5	308	779.614350689329	31
5	311	785.140662753362	31
5	317	804.919677685226	28
5	321	813.104810438763	29
5	323	813.307067739144	30
5	325	818.30858984354	31
5	327	824.302002192307	32
5	334	836.864931136729	33
5	336	837.350773138421	34
5	338	843.326417154544	35
5	340	850.212541818324	36
5	347	862.256259261925	37
5	352	881.830197929819	38
5	360	893.854051650568	39
5	362	897.930962325278	40
5	369	910.066976022594	41
5	372	933.253107534893	42
5	375	941.657077362681	42
5	377	942.968278161708	43
5	380	946.440734773634	43
5	382	948.153764576261	44
5	386	965.521339741348	43
5	391	981.004076053121	41
5	398	1004.449375652978	40
5	403	1015.38380414706	41
5	409	1024.553756365915	41
5	413	1037.290707556304	42
5	417	1049.858783622759	42
5	423	1057.607896085531	42
5	425	1061.401959982533	43
5	430	1067.787554912875	43
5	432	1068.252939213793	44
5	442	1091.347777855667	44
5	445	1096.268931160359	44
5	449	1100.961170677705	43
5	451	1104.564690809039	44
5	456	1112.067930347438	45
5	458	1119.099637767066	46
5	460	1130.957477577577	47
5	463	1138.78013148916	47
5	467	1144.323871654139	48
5	469	1148.450157988024	49
5	471	1158.627211880175	50
5	475	1159.331674425107	51
5	478	1168.353695857964	52
5	482	1188.190898806865	53
5	485	1194.247409209763	54
5	495	1215.289413414158	55
5	498	1240.032217313543	56
5	500	1240.082505664293	57
5	502	1253.710917304745	58
5	505	1257.293697563909	59
5	510	1283.813109435883	57
5	513	1291.389407764327	57
5	520	1313.569823988025	55
5	532	1346.167197587479	56
5	535	1350.028723703293	56
5	537	1351.512135146458	57
5	544	1363.224814850181	56
5	553	1377.772949826415	50
5	555	1378.379669330629	51
5	557	1391.432326235966	52
5	560	1393.686084915507	52
5	564	1405.629567179376	51
5	568	1418.469175043072	50
5	572	1425.893199456538	51
5	575	1439.836864833386	52
5	577	1444.7624137905	53
5	580	1448.263396076285	53
5	585	1465.369118310634	54
5	591	1497.176956300586	51
5	593	1497.962016172964	52
5	595	1498.005744378918	53
5	600	1508.777151633738	51
5	602	1513.081014510385	52
5	604	1519.02434727888	53
5	607	1521.224361848015	53
5	609	1521.4211177398	54
5	611	1527.176332775919	55
5	618	1542.095215944384	53
5	624	1568.633061524487	54
5	637	1586.257204412821	51
5	639	1589.545655119811	52
5	643	1603.92385839718	53
5	646	1609.50799170604	54
5	656	1625.662992635075	55
5	660	1631.920961920185	56
5	663	1635.677345328082	57
5	672	1654.996103444303	57
5	678	1663.090675980942	58
5	689	1704.68708707631	59
5	692	1709.770363652536	60
5	694	1716.266022827696	61
5	696	1720.94382496743	62
5	702	1728.637724047396	63
5	704	1731.636747604201	64
5	708	1746.878738555797	65
5	715	1767.685687162037	64
5	717	1784.550241260931	65
5	719	1784.841039858382	66
5	721	1786.41524331182	67
5	723	1789.616137908949	68
5	725	1793.820346761653	69
5	727	1800.426775317516	70
5	733	1812.321555644909	68
5	744	1840.504910789092	65
5	746	1842.590162227535	66
5	748	1847.99445252932	67
5	750	1854.07194290293	68
5	757	1858.808527574329	69
5	765	1894.016135839259	70
5	772	1915.429774557667	68
5	787	1967.183320475023	62
5	789	1979.625919561273	63
5	794	1993.509219006814	63
5	798	1999.044872113969	63
5	800	2006.225192601021	64
5	803	2011.405938186384	64
5	805	2018.637309074694	65
5	809	2030.325865854542	64
5	811	2031.042674949367	65
5	815	2037.599694128195	66
5	825	2073.067371242433	66
5	829	2078.372861477825	65
5	842	2109.343958797616	64
5	847	2123.437687074001	65
5	851	2138.579705603058	64
5	854	2143.511469465731	64
5	861	2162.382812115029	63
5	863	2163.089283698397	64
5	869	2168.186973905235	63
5	871	2173.869921520784	64
5	876	2189.811664414536	65
5	880	2196.082281053651	65
5	882	2196.260568128432	66
5	884	2197.06684740145	67
5	886	2198.899392425671	68
5	889	2203.672221669975	68
5	891	2205.91081637071	69
5	894	2209.528222924243	69
5	896	2212.282576392703	70
5	900	2215.738187667887	69
5	902	2216.540206352545	70
5	904	2219.790560216916	71
5	909	2232.952055811601	71
5	911	2233.289927255512	72
5	914	2234.378659968128	73
5	918	2246.891927868613	72
5	920	2252.24765871453	73
5	922	2256.212029238043	74
5	925	2258.711853867551	74
5	927	2263.520418659047	75
5	935	2291.641604036185	76
5	937	2292.288336125078	77
5	943	2299.337709247451	77
5	945	2301.157408505392	78
5	948	2310.542912566416	78
5	950	2316.096112479992	79
5	953	2324.857901397619	79
5	957	2329.828241345159	78
5	962	2336.636636448296	78
5	966	2342.58296503385	79
5	968	2344.407946736265	80
5	970	2347.851559815224	81
5	975	2363.887143678592	82
5	979	2368.453322025333	83
5	984	2384.92887531202	83
5	988	2392.242113020186	83
5	991	2402.905379266026	83
5	997	2414.704580193717	82
5	999	2416.079366247579	83
5	1002	2418.726709731	84
5	1005	2427.294030763727	84
5	1009	2438.424958185678	83
5	1016	2441.73512436978	84
5	1020	2445.627055548079	84
5	1022	2448.642151641041	85
5	1031	2479.805499485109	86
5	1033	2489.270064040171	87
5	1037	2494.009934103584	88
6	146	354.220807892071	19
6	148	358.816678104859	20
6	154	362.918884947423	21
6	166	382.502447573653	22
6	168	386.691966251989	23
6	170	391.480322332022	24
6	175	402.91178608321	25
6	176	403.728791921954	25
6	178	403.909484036199	25
6	179	405.83631330706	25
6	180	408.278306700017	24
6	181	408.619952763967	23
6	183	412.173305584134	23
6	185	416.102112529242	24
6	186	417.77655084722	24
6	187	417.843066839935	23
6	188	421.352582740859	22
6	190	421.769602253501	22
6	191	426.583566633052	22
6	193	427.13295448405	22
6	198	433.849908919438	23
6	199	438.433710926889	23
6	201	447.408489393891	23
6	205	473.543463474432	23
6	206	474.022793427539	22
6	208	481.918541865505	22
6	209	483.33877775127	22
6	214	492.645323064696	22
6	216	498.41728786812	23
6	218	500.665197321305	24
6	219	501.635560464895	24
6	223	513.078115747372	24
6	229	529.606159204226	25
6	230	541.589218706433	25
6	231	542.871177356185	24
6	233	547.383719825004	24
6	234	552.413094598687	24
6	235	556.073457836609	23
6	236	560.877680251555	22
6	238	562.820335773616	22
6	242	571.42461516205	23
6	244	576.44888564805	24
6	247	599.143554045033	25
6	249	606.28963701956	26
6	250	617.443982080458	26
6	251	623.315225228933	25
6	255	633.969963875245	24
6	259	634.448028384357	24
6	267	650.35220467007	25
6	269	665.766420488575	26
6	273	671.661096219755	27
6	277	680.844601077482	28
6	282	694.4339970116	29
6	284	700.985969889335	30
6	286	701.806198171285	31
6	290	713.958362007736	32
6	292	720.645742409063	33
6	295	729.832992657518	34
6	296	730.73751655726	34
6	297	731.74581780403	33
6	299	735.531473481411	33
6	300	738.293776355602	33
6	301	739.639758592397	32
6	302	743.66357333757	31
6	303	744.624163821664	30
6	304	764.807925630124	29
6	306	776.789953050879	29
6	308	779.614350689329	30
6	309	782.286725336022	30
6	311	785.140662753362	30
6	312	786.749588518243	30
6	313	788.218810214645	29
6	314	797.354789753016	28
6	315	801.428380218152	27
6	317	804.919677685226	27
6	321	813.104810438763	28
6	323	813.307067739144	29
6	325	818.30858984354	30
6	327	824.302002192307	31
6	334	836.864931136729	32
6	336	837.350773138421	33
6	338	843.326417154544	34
6	340	850.212541818324	35
6	347	862.256259261925	36
6	352	881.830197929819	37
6	360	893.854051650568	38
6	362	897.930962325278	39
6	369	910.066976022594	40
6	372	933.253107534893	41
6	373	939.901094924335	41
6	375	941.657077362681	41
6	377	942.968278161708	42
6	378	944.320984263394	42
6	380	946.440734773634	42
6	382	948.153764576261	43
6	383	957.868270330841	43
6	384	959.688098371664	42
6	386	965.521339741348	42
6	387	971.431051275359	42
6	388	975.82624998364	41
6	389	980.970046785743	40
6	391	981.004076053121	40
6	392	989.953865105188	40
6	396	999.84009138177	39
6	398	1004.449375652978	39
6	403	1015.38380414706	40
6	404	1017.500729489276	40
6	409	1024.553756365915	40
6	413	1037.290707556304	41
6	415	1043.841770572564	41
6	417	1049.858783622759	41
6	421	1057.197535248223	41
6	423	1057.607896085531	41
6	425	1061.401959982533	42
6	426	1065.740992566066	42
6	430	1067.787554912875	42
6	432	1068.252939213793	43
6	440	1091.138410757046	43
6	442	1091.347777855667	43
6	443	1095.796567312908	43
6	445	1096.268931160359	43
6	446	1096.926799649213	43
6	447	1099.480830909906	42
6	449	1100.961170677705	42
6	451	1104.564690809039	43
6	456	1112.067930347438	44
6	458	1119.099637767066	45
6	460	1130.957477577577	46
6	461	1136.759539875269	46
6	463	1138.78013148916	46
6	467	1144.323871654139	47
6	469	1148.450157988024	48
6	471	1158.627211880175	49
6	475	1159.331674425107	50
6	478	1168.353695857964	51
6	482	1188.190898806865	52
6	485	1194.247409209763	53
6	495	1215.289413414158	54
6	498	1240.032217313543	55
6	500	1240.082505664293	56
6	502	1253.710917304745	57
6	505	1257.293697563909	58
6	506	1266.260167224564	58
6	507	1280.450529906476	57
6	508	1282.424447074373	56
6	510	1283.813109435883	56
6	511	1285.322283033142	56
6	513	1291.389407764327	56
6	514	1294.013512715625	56
6	515	1296.361023911533	55
6	516	1298.541834658928	54
6	520	1313.569823988025	54
6	532	1346.167197587479	55
6	533	1346.31295146219	55
6	535	1350.028723703293	55
6	537	1351.512135146458	56
6	541	1354.226027220092	56
6	542	1358.330078311615	55
6	544	1363.224814850181	55
6	545	1364.152026967752	55
6	546	1367.535114762921	54
6	547	1369.281946152086	53
6	548	1370.158460041873	52
6	549	1370.359812417368	51
6	550	1372.934333676317	50
6	551	1377.728991834895	49
6	553	1377.772949826415	49
6	555	1378.379669330629	50
6	557	1391.432326235966	51
6	558	1393.28043097216	51
6	560	1393.686084915507	51
6	561	1402.337266140557	51
6	562	1403.202705975869	50
6	564	1405.629567179376	50
6	565	1413.375682352091	50
6	566	1418.453139038972	49
6	568	1418.469175043072	49
6	572	1425.893199456538	50
6	575	1439.836864833386	51
6	577	1444.7624137905	52
6	578	1444.764328597327	52
6	580	1448.263396076285	52
6	585	1465.369118310634	53
6	586	1479.318079017255	53
6	587	1481.363853419917	52
6	588	1484.802060116898	51
6	589	1489.462666386365	50
6	591	1497.176956300586	50
6	593	1497.962016172964	51
6	595	1498.005744378918	52
6	596	1501.429399093099	52
6	597	1507.605873047977	51
6	598	1508.000495927993	50
6	600	1508.777151633738	50
6	602	1513.081014510385	51
6	604	1519.02434727888	52
6	605	1520.273383814404	52
6	607	1521.224361848015	52
6	609	1521.4211177398	53
6	611	1527.176332775919	54
6	612	1531.680048196243	54
6	613	1532.039570210099	53
6	614	1534.540581653244	52
6	618	1542.095215944384	52
6	624	1568.633061524487	53
6	625	1573.819875911336	53
6	629	1578.429654788161	52
6	630	1578.865908641331	51
6	631	1580.066574442212	50
6	637	1586.257204412821	50
6	639	1589.545655119811	51
6	643	1603.92385839718	52
6	646	1609.50799170604	53
6	656	1625.662992635075	54
6	660	1631.920961920185	55
6	663	1635.677345328082	56
6	664	1640.935642514344	56
6	672	1654.996103444303	56
6	678	1663.090675980942	57
6	689	1704.68708707631	58
6	692	1709.770363652536	59
6	694	1716.266022827696	60
6	696	1720.94382496743	61
6	702	1728.637724047396	62
6	704	1731.636747604201	63
6	708	1746.878738555797	64
6	710	1753.113963554008	64
6	711	1758.916592156758	63
6	715	1767.685687162037	63
6	717	1784.550241260931	64
6	719	1784.841039858382	65
6	721	1786.41524331182	66
6	723	1789.616137908949	67
6	725	1793.820346761653	68
6	727	1800.426775317516	69
6	729	1810.921465965541	69
6	730	1811.141193304216	68
6	731	1811.709690559282	67
6	733	1812.321555644909	67
6	734	1820.91545842446	67
6	735	1822.595443495198	66
6	736	1823.566766062579	65
6	740	1834.637487194197	64
6	744	1840.504910789092	64
6	746	1842.590162227535	65
6	748	1847.99445252932	66
6	750	1854.07194290293	67
6	757	1858.808527574329	68
6	765	1894.016135839259	69
6	768	1910.661875185869	69
6	769	1911.142872988852	68
6	770	1911.334675456702	67
6	772	1915.429774557667	67
6	773	1918.362459580204	67
6	774	1918.966228049915	66
6	781	1941.892977333645	65
6	782	1950.12010499964	64
6	783	1950.793051246705	63
6	784	1963.424157142525	62
6	785	1965.858289500507	61
6	787	1967.183320475023	61
6	789	1979.625919561273	62
6	790	1979.717746886444	62
6	794	1993.509219006814	62
6	796	1998.435753573105	62
6	798	1999.044872113969	62
6	800	2006.225192601021	63
6	801	2010.736769229242	63
6	803	2011.405938186384	63
6	805	2018.637309074694	64
6	806	2018.75921739325	64
6	807	2027.441139760619	63
6	809	2030.325865854542	63
6	811	2031.042674949367	64
6	815	2037.599694128195	65
6	823	2070.495373217194	65
6	825	2073.067371242433	65
6	826	2076.033155777439	65
6	827	2076.518839402512	64
6	829	2078.372861477825	64
6	830	2083.558339172884	64
6	831	2085.650366262188	63
6	842	2109.343958797616	63
6	847	2123.437687074001	64
6	848	2128.556478241846	64
6	849	2136.582587327675	63
6	851	2138.579705603058	63
6	852	2141.575052697353	63
6	854	2143.511469465731	63
6	858	2159.009874972242	63
6	859	2161.776014161504	62
6	861	2162.382812115029	62
6	863	2163.089283698397	63
6	864	2163.440355025441	63
6	865	2163.880991200363	62
6	869	2168.186973905235	62
6	871	2173.869921520784	63
6	876	2189.811664414536	64
6	878	2194.356346382485	64
6	880	2196.082281053651	64
6	882	2196.260568128432	65
6	884	2197.06684740145	66
6	886	2198.899392425671	67
6	887	2200.901230936147	67
6	889	2203.672221669975	67
6	891	2205.91081637071	68
6	892	2208.264297512381	68
6	894	2209.528222924243	68
6	896	2212.282576392703	69
6	897	2212.810381290301	69
6	898	2214.129181422124	68
6	900	2215.738187667887	68
6	902	2216.540206352545	69
6	904	2219.790560216916	70
6	905	2220.818484287383	70
6	909	2232.952055811601	70
6	911	2233.289927255512	71
6	914	2234.378659968128	72
6	915	2240.274739094802	72
6	916	2241.937256640284	71
6	918	2246.891927868613	71
6	920	2252.24765871453	72
6	922	2256.212029238043	73
6	923	2257.698515412735	73
6	925	2258.711853867551	73
6	927	2263.520418659047	74
6	935	2291.641604036185	75
6	937	2292.288336125078	76
6	941	2296.975439055628	76
6	943	2299.337709247451	76
6	945	2301.157408505392	77
6	946	2304.93943904752	77
6	948	2310.542912566416	77
6	950	2316.096112479992	78
6	951	2321.139135295006	78
6	953	2324.857901397619	78
6	954	2325.795433089826	78
6	955	2327.296945412371	77
6	957	2329.828241345159	77
6	958	2334.566256467219	77
6	962	2336.636636448296	77
6	966	2342.58296503385	78
6	968	2344.407946736265	79
6	970	2347.851559815224	80
6	975	2363.887143678592	81
6	979	2368.453322025333	82
6	980	2369.470606892649	82
6	984	2384.92887531202	82
6	986	2391.537058311435	82
6	988	2392.242113020186	82
6	989	2397.566066877944	82
6	991	2402.905379266026	82
6	992	2412.401358691652	82
6	993	2413.381750406236	81
6	997	2414.704580193717	81
6	999	2416.079366247579	82
6	1002	2418.726709731	83
6	1003	2419.965508138104	83
6	1005	2427.294030763727	83
6	1006	2427.821151960426	83
6	1007	2433.529606320351	82
6	1009	2438.424958185678	82
6	1016	2441.73512436978	83
6	1018	2443.002158507559	83
6	1020	2445.627055548079	83
6	1022	2448.642151641041	84
6	1031	2479.805499485109	85
6	1033	2489.270064040171	86
6	1037	2494.009934103584	87
7	173	398.343106074126	174.53051963298
7	176	403.728791921954	167.2978465284
7	179	405.83631330706	168.69135023702
7	180	408.278306700017	156.65354815028
7	181	408.619952763967	152.4800034203
7	186	417.77655084722	155.21434725297
7	187	417.843066839935	149.87341591233
7	188	421.352582740859	146.31312272665
7	191	426.583566633052	136.89915570881
7	196	430.287952725652	134.07733223109
7	199	438.433710926889	142.03315759926
7	204	467.848383726258	165.94520308773
7	205	473.543463474432	166.09031385692
7	206	474.022793427539	164.0204824957
7	209	483.33877775127	151.07305361255
7	212	485.690685010453	152.18662686758
7	219	501.635560464895	165.07960010638
7	227	528.900542403417	187.04582972642
7	230	541.589218706433	193.57853084054
7	231	542.871177356185	188.65036946411
7	234	552.413094598687	193.59641649383
7	235	556.073457836609	193.15457288919
7	236	560.877680251555	178.3752326779
7	245	588.45469455494	201.76272830295
7	250	617.443982080458	225.96365974844
7	251	623.315225228933	220.40343914572
7	254	628.118615039884	224.20913100369
7	255	633.969963875245	221.79665829111
7	293	725.535930500947	309.4338179717
7	296	730.73751655726	308.96791430376
7	297	731.74581780403	304.61286331998
7	300	738.293776355602	309.22032004601
7	301	739.639758592397	305.78984967296
7	302	743.66357333757	296.25508394368
7	303	744.624163821664	286.40730076398
7	304	764.807925630124	282.88938376462
7	309	782.286725336022	297.24734195256
7	312	786.749588518243	294.10426545355
7	313	788.218810214645	289.80152234653
7	314	797.354789753016	296.68959243171
7	315	801.428380218152	297.20904290449
7	350	875.334847863564	362.25673211619
7	358	892.27192667841	362.66576747418
7	365	906.430737667972	359.04701784297
7	370	923.990941133117	361.1706053595
7	373	939.901094924335	374.33181447482
7	378	944.320984263394	372.89636910134
7	383	957.868270330841	381.41938468279
7	384	959.688098371664	360.54454432663
7	387	971.431051275359	365.1414142558
7	388	975.82624998364	349.35421885446
7	389	980.970046785743	346.63348831769
7	392	989.953865105188	355.50583672083
7	395	995.388525575268	345.0363209052
7	396	999.84009138177	334.0736708932
7	401	1013.618090303154	341.9569940834
7	404	1017.500729489276	336.65612841179
7	407	1024.209920629874	329.77592361827
7	414	1041.426205784182	340.44023589485
7	415	1043.841770572564	342.03557240128
7	420	1056.118540228127	342.16017822039
7	421	1057.197535248223	336.55179283916
7	426	1065.740992566066	335.90799990855
7	439	1088.598797300205	353.06732381879
7	440	1091.138410757046	314.34845770617
7	443	1095.796567312908	316.18221662358
7	446	1096.926799649213	311.78613689585
7	447	1099.480830909906	294.56115322468
7	454	1112.06042855495	302.74950663697
7	461	1136.759539875269	323.65472943651
7	503	1255.750432456312	442.44336471717
7	506	1266.260167224564	447.95157738102
7	507	1280.450529906476	456.14852771417
7	508	1282.424447074373	445.55951593764
7	511	1285.322283033142	447.97150989472
7	514	1294.013512715625	450.68709556108
7	515	1296.361023911533	446.14848209321
7	516	1298.541834658928	436.285575397
7	521	1316.421453824281	434.59125589446
7	530	1332.714971107254	449.0590856855
7	533	1346.31295146219	452.45889981162
7	540	1352.371014732206	454.44005240693
7	541	1354.226027220092	450.32047468348
7	542	1358.330078311615	450.84614063747
7	545	1364.152026967752	454.08505094516
7	546	1367.535114762921	434.28200722803
7	547	1369.281946152086	427.62486878941
7	548	1370.158460041873	427.19018188016
7	549	1370.359812417368	423.91907764373
7	550	1372.934333676317	424.78056910006
7	551	1377.728991834895	412.20765209355
7	558	1393.28043097216	412.27635491904
7	561	1402.337266140557	411.92381113803
7	562	1403.202705975869	398.75333032289
7	565	1413.375682352091	405.37199942865
7	566	1418.453139038972	403.06933489191
7	573	1437.79812119104	417.38017148366
7	578	1444.764328597327	420.21057223141
7	583	1458.100020392548	424.85064109373
7	586	1479.318079017255	442.02737146095
7	587	1481.363853419917	431.50506979716
7	588	1484.802060116898	431.33185340908
7	589	1489.462666386365	431.85477030083
7	596	1501.429399093099	440.02743911057
7	597	1507.605873047977	441.7838885145
7	598	1508.000495927993	440.21294101512
7	605	1520.273383814404	452.02044460061
7	612	1531.680048196243	440.33227034058
7	613	1532.039570210099	435.77063904974
7	614	1534.540581653244	433.57941097554
7	619	1547.219553442301	442.65486263326
7	622	1555.424202827673	450.56554381248
7	625	1573.819875911336	461.7519455639
7	628	1576.326586260915	457.22694849385
7	629	1578.429654788161	447.47217721058
7	630	1578.865908641331	440.08577715217
7	631	1580.066574442212	436.418890391
7	651	1617.807816456344	473.4839448022
7	654	1621.882722934272	473.43256494625
7	661	1635.583657231962	476.95644535179
7	664	1640.935642514344	481.60396808924
7	709	1751.891284377672	583.53758851971
7	710	1753.113963554008	564.92306474714
7	711	1758.916592156758	564.66918294699
7	728	1808.833562258944	593.54414884479
7	729	1810.921465965541	570.889248652
7	730	1811.141193304216	571.05868763992
7	731	1811.709690559282	557.99877325454
7	734	1820.91545842446	563.62176086055
7	735	1822.595443495198	538.78233405931
7	736	1823.566766062579	532.17735829825
7	739	1826.877261333696	525.57715187101
7	740	1834.637487194197	521.06766320617
7	751	1854.82001627751	538.12267432309
7	759	1880.259631588904	534.09243400142
7	767	1910.356117797481	560.32739409419
7	768	1910.661875185869	559.14974003941
7	769	1911.142872988852	558.97041569817
7	770	1911.334675456702	548.10986060652
7	773	1918.362459580204	540.58950975379
7	774	1918.966228049915	540.58655871929
7	780	1941.35002489295	549.91769865698
7	781	1941.892977333645	548.20689241814
7	782	1950.12010499964	544.49053782026
7	783	1950.793051246705	532.32387620363
7	784	1963.424157142525	543.6633333178
7	785	1965.858289500507	539.96509004397
7	790	1979.717746886444	539.88088205306
7	795	1995.248025547849	550.48561175735
7	796	1998.435753573105	550.17235749682
7	801	2010.736769229242	557.07712283729
7	806	2018.75921739325	553.39009908262
7	807	2027.441139760619	530.26418346003
7	822	2061.836414432687	563.87439825972
7	823	2070.495373217194	572.48962883828
7	826	2076.033155777439	567.2560041437
7	827	2076.518839402512	563.43782489213
7	830	2083.558339172884	564.533991894
7	831	2085.650366262188	564.42600441417
7	834	2096.455747233069	575.03462949327
7	840	2104.654370841398	577.47803806548
7	845	2116.615074414917	577.54130764738
7	848	2128.556478241846	586.46126229746
7	849	2136.582587327675	584.77131832878
7	852	2141.575052697353	572.94199117287
7	857	2150.724513352051	576.04446135498
7	858	2159.009874972242	578.27834342279
7	859	2161.776014161504	575.51880974868
7	864	2163.440355025441	573.89469990563
7	865	2163.880991200363	559.95713280318
7	872	2179.367889914153	569.85989820811
7	877	2191.339806147625	572.21665760924
7	878	2194.356346382485	568.69335374741
7	887	2200.901230936147	572.05518675995
7	892	2208.264297512381	576.3433355922
7	897	2212.810381290301	577.13303596222
7	898	2214.129181422124	572.47569249661
7	905	2220.818484287383	565.82238084308
7	912	2233.746509683232	570.65583370229
7	915	2240.274739094802	535.58765201849
7	916	2241.937256640284	532.16689298775
7	923	2257.698515412735	541.43249258504
7	930	2266.472373775373	545.52854880794
7	933	2280.647788424624	552.01006437723
7	940	2296.092421385945	564.45567378174
7	941	2296.975439055628	550.09670049983
7	946	2304.93943904752	537.54685082553
7	951	2321.139135295006	553.45344813297
7	954	2325.795433089826	541.2451918289
7	955	2327.296945412371	542.45590555399
7	958	2334.566256467219	548.1510131554
7	977	2366.044321094392	576.42818318544
7	980	2369.470606892649	575.650260131
7	985	2391.04257969701	590.61580437949
7	986	2391.537058311435	579.21550266653
7	989	2397.566066877944	571.43355659461
7	992	2412.401358691652	575.16865802638
7	993	2413.381750406236	572.87683961714
7	1000	2417.170489197232	574.5803269697
7	1003	2419.965508138104	571.97105560878
7	1006	2427.821151960426	573.7492090575
7	1007	2433.529606320351	576.85335535632
7	1017	2441.864763076397	583.05623550207
7	1018	2443.002158507559	559.5252993103
8	176	403.728791921954	17
8	179	405.83631330706	18
8	180	408.278306700017	19
8	181	408.619952763967	20
8	186	417.77655084722	21
8	187	417.843066839935	22
8	188	421.352582740859	23
8	191	426.583566633052	24
8	199	438.433710926889	25
8	205	473.543463474432	26
8	206	474.022793427539	27
8	209	483.33877775127	28
8	219	501.635560464895	29
8	230	541.589218706433	30
8	231	542.871177356185	31
8	234	552.413094598687	32
8	235	556.073457836609	33
8	236	560.877680251555	34
8	250	617.443982080458	35
8	251	623.315225228933	36
8	255	633.969963875245	37
8	296	730.73751655726	38
8	297	731.74581780403	39
8	300	738.293776355602	40
8	301	739.639758592397	41
8	302	743.66357333757	42
8	303	744.624163821664	43
8	304	764.807925630124	44
8	309	782.286725336022	45
8	312	786.749588518243	46
8	313	788.218810214645	47
8	314	797.354789753016	48
8	315	801.428380218152	49
8	373	939.901094924335	50
8	378	944.320984263394	51
8	383	957.868270330841	52
8	384	959.688098371664	53
8	387	971.431051275359	54
8	388	975.82624998364	55
8	389	980.970046785743	56
8	392	989.953865105188	57
8	396	999.84009138177	58
8	404	1017.500729489276	59
8	415	1043.841770572564	60
8	421	1057.197535248223	61
8	426	1065.740992566066	62
8	440	1091.138410757046	63
8	443	1095.796567312908	64
8	446	1096.926799649213	65
8	447	1099.480830909906	66
8	461	1136.759539875269	67
8	506	1266.260167224564	68
8	507	1280.450529906476	69
8	508	1282.424447074373	70
8	511	1285.322283033142	71
8	514	1294.013512715625	72
8	515	1296.361023911533	73
8	516	1298.541834658928	74
8	533	1346.31295146219	75
8	541	1354.226027220092	76
8	542	1358.330078311615	77
8	545	1364.152026967752	78
8	546	1367.535114762921	79
8	547	1369.281946152086	80
8	548	1370.158460041873	81
8	549	1370.359812417368	82
8	550	1372.934333676317	83
8	551	1377.728991834895	84
8	558	1393.28043097216	85
8	561	1402.337266140557	86
8	562	1403.202705975869	87
8	565	1413.375682352091	88
8	566	1418.453139038972	89
8	578	1444.764328597327	90
8	586	1479.318079017255	91
8	587	1481.363853419917	92
8	588	1484.802060116898	93
8	589	1489.462666386365	94
8	596	1501.429399093099	95
8	597	1507.605873047977	96
8	598	1508.000495927993	97
8	605	1520.273383814404	98
8	612	1531.680048196243	99
8	613	1532.039570210099	100
8	614	1534.540581653244	101
8	625	1573.819875911336	102
8	629	1578.429654788161	103
8	630	1578.865908641331	104
8	631	1580.066574442212	105
8	664	1640.935642514344	106
8	710	1753.113963554008	107
8	711	1758.916592156758	108
8	729	1810.921465965541	109
8	730	1811.141193304216	110
8	731	1811.709690559282	111
8	734	1820.91545842446	112
8	735	1822.595443495198	113
8	736	1823.566766062579	114
8	740	1834.637487194197	115
8	768	1910.661875185869	116
8	769	1911.142872988852	117
8	770	1911.334675456702	118
8	773	1918.362459580204	119
8	774	1918.966228049915	120
8	781	1941.892977333645	121
8	782	1950.12010499964	122
8	783	1950.793051246705	123
8	784	1963.424157142525	124
8	785	1965.858289500507	125
8	790	1979.717746886444	126
8	796	1998.435753573105	127
8	801	2010.736769229242	128
8	806	2018.75921739325	129
8	807	2027.441139760619	130
8	823	2070.495373217194	131
8	826	2076.033155777439	132
8	827	2076.518839402512	133
8	830	2083.558339172884	134
8	831	2085.650366262188	135
8	848	2128.556478241846	136
8	849	2136.582587327675	137
8	852	2141.575052697353	138
8	858	2159.009874972242	139
8	859	2161.776014161504	140
8	864	2163.440355025441	141
8	865	2163.880991200363	142
8	878	2194.356346382485	143
8	887	2200.901230936147	144
8	892	2208.264297512381	145
8	897	2212.810381290301	146
8	898	2214.129181422124	147
8	905	2220.818484287383	148
8	915	2240.274739094802	149
8	916	2241.937256640284	150
8	923	2257.698515412735	151
8	941	2296.975439055628	152
8	946	2304.93943904752	153
8	951	2321.139135295006	154
8	954	2325.795433089826	155
8	955	2327.296945412371	156
8	958	2334.566256467219	157
8	980	2369.470606892649	158
8	986	2391.537058311435	159
8	989	2397.566066877944	160
8	992	2412.401358691652	161
8	993	2413.381750406236	162
8	1003	2419.965508138104	163
8	1006	2427.821151960426	164
8	1007	2433.529606320351	165
8	1018	2443.002158507559	166
9	176	403.728791921954	179.91620548081
9	179	405.83631330706	169.40536791351
9	180	408.278306700017	171.13334362998
9	181	408.619952763967	156.99519421423
9	186	417.77655084722	161.63660150356
9	187	417.843066839935	155.28086324569
9	188	421.352582740859	153.38293181326
9	191	426.583566633052	151.54410661885
9	199	438.433710926889	142.22309043233
9	205	473.543463474432	171.64028283591
9	206	474.022793427539	166.56964381003
9	209	483.33877775127	173.33646681943
9	219	501.635560464895	168.13150232202
9	230	541.589218706433	199.73450602943
9	231	542.871177356185	194.86048949029
9	234	552.413094598687	198.19228670662
9	235	556.073457836609	197.25677973175
9	236	560.877680251555	197.95879530413
9	250	617.443982080458	230.75201582847
9	251	623.315225228933	231.83490289691
9	255	633.969963875245	230.06047983905
9	296	730.73751655726	314.63540402802
9	297	731.74581780403	309.97621555053
9	300	738.293776355602	311.16082187155
9	301	739.639758592397	310.5663022828
9	302	743.66357333757	309.81366441813
9	303	744.624163821664	297.21567442777
9	304	764.807925630124	306.59106257244
9	309	782.286725336022	300.36818347052
9	312	786.749588518243	301.71020513478
9	313	788.218810214645	295.57348714995
9	314	797.354789753016	298.9375018849
9	315	801.428380218152	300.76318289685
9	373	939.901094924335	377.08075915072
9	378	944.320984263394	378.75170381388
9	383	957.868270330841	386.44365516879
9	384	959.688098371664	383.23921272361
9	387	971.431051275359	372.28749723033
9	388	975.82624998364	369.53661296408
9	389	980.970046785743	354.49801565656
9	392	989.953865105188	355.61730663714
9	396	999.84009138177	349.4878867117
9	404	1017.500729489276	345.83963326952
9	415	1043.841770572564	342.85580068323
9	421	1057.197535248223	343.23917324049
9	426	1065.740992566066	345.095250157
9	440	1091.138410757046	355.60693727564
9	443	1095.796567312908	319.00661426203
9	446	1096.926799649213	317.31244895988
9	447	1099.480830909906	314.34016815654
9	461	1136.759539875269	327.44861795728
9	506	1266.260167224564	452.95309948542
9	507	1280.450529906476	462.14194006294
9	508	1282.424447074373	458.12244488207
9	511	1285.322283033142	448.45735189641
9	514	1294.013512715625	456.6627395772
9	515	1296.361023911533	453.03460675699
9	516	1298.541834658928	448.3292928406
9	533	1346.31295146219	462.65706604044
9	541	1354.226027220092	456.29506489481
9	542	1358.330078311615	454.424525775
9	545	1364.152026967752	456.66808929361
9	546	1367.535114762921	457.46813874033
9	547	1369.281946152086	436.02883861719
9	548	1370.158460041873	428.50138267919
9	549	1370.359812417368	427.39153425566
9	550	1372.934333676317	426.49359890268
9	551	1377.728991834895	429.57522725863
9	558	1393.28043097216	427.75909123081
9	561	1402.337266140557	421.33319008744
9	562	1403.202705975869	412.78925097335
9	565	1413.375682352091	408.92630669911
9	566	1418.453139038972	410.44945611553
9	578	1444.764328597327	424.34637888995
9	586	1479.318079017255	446.06869971844
9	587	1481.363853419917	444.07314586361
9	588	1484.802060116898	434.94327649414
9	589	1489.462666386365	435.99245967855
9	596	1501.429399093099	443.82150300757
9	597	1507.605873047977	446.20391306544
9	598	1508.000495927993	442.17851139452
9	605	1520.273383814404	452.48582890153
9	612	1531.680048196243	463.42710898245
9	613	1532.039570210099	440.69179235443
9	614	1534.540581653244	438.27165049288
9	625	1573.819875911336	468.96121689615
9	629	1578.429654788161	459.33001702109
9	630	1578.865908641331	447.90843106375
9	631	1580.066574442212	441.28644295305
9	664	1640.935642514344	482.30843063417
9	710	1753.113963554008	584.76026769604
9	711	1758.916592156758	570.72569334989
9	729	1810.921465965541	595.63205255138
9	730	1811.141193304216	571.10897599067
9	731	1811.709690559282	571.62718489499
9	734	1820.91545842446	567.20454111972
9	735	1822.595443495198	565.30174593129
9	736	1823.566766062579	539.7536566267
9	740	1834.637487194197	533.33737773151
9	768	1910.661875185869	560.63315148258
9	769	1911.142872988852	559.63073784239
9	770	1911.334675456702	559.16221816602
9	773	1918.362459580204	555.13764473002
9	774	1918.966228049915	541.1932782235
9	781	1941.892977333645	550.46065109768
9	782	1950.12010499964	556.43402008413
9	783	1950.793051246705	545.16348406733
9	784	1963.424157142525	544.95498209945
9	785	1965.858289500507	546.09746567579
9	790	1979.717746886444	553.82454742991
9	796	1998.435753573105	553.67333978261
9	801	2010.736769229242	562.47337315296
9	806	2018.75921739325	565.0995710013
9	807	2027.441139760619	562.07202144998
9	823	2070.495373217194	572.53335704423
9	826	2076.033155777439	578.02741139852
9	827	2076.518839402512	567.74168776877
9	830	2083.558339172884	570.4773246625
9	831	2085.650366262188	566.62601898331
9	848	2128.556478241846	589.48271147431
9	849	2136.582587327675	594.48737138329
9	852	2141.575052697353	589.76378369846
9	858	2159.009874972242	584.32982297517
9	859	2161.776014161504	581.04448261206
9	864	2163.440355025441	577.18315061262
9	865	2163.880991200363	574.33533608055
9	878	2194.356346382485	575.2331978441
9	887	2200.901230936147	575.23823830107
9	892	2208.264297512381	579.41825333619
9	897	2212.810381290301	580.88941937012
9	898	2214.129181422124	578.45183609404
9	905	2220.818484287383	579.16499536186
9	915	2240.274739094802	577.18406311386
9	916	2241.937256640284	537.25016956397
9	923	2257.698515412735	547.9281517602
9	941	2296.975439055628	565.33869145143
9	946	2304.93943904752	558.06070049172
9	951	2321.139135295006	553.74654707302
9	954	2325.795433089826	558.10974592779
9	955	2327.296945412371	542.74670415144
9	958	2334.566256467219	549.72521660884
9	980	2369.470606892649	579.8544689837
9	986	2391.537058311435	591.11028299392
9	989	2397.566066877944	585.24451123304
9	992	2412.401358691652	586.26884840832
9	993	2413.381750406236	576.14904974096
9	1003	2419.965508138104	577.37534591057
9	1006	2427.821151960426	579.82669943111
9	1007	2433.529606320351	579.45766341742
9	1018	2443.002158507559	584.19363093323
10	195	429.073456309595	11
10	203	458.216863057689	12
10	211	485.039383383465	13
10	221	504.219337313665	14
10	240	565.569280449517	15
10	253	626.472031129181	16
10	257	634.336558468053	17
10	319	809.310921917985	18
10	354	883.655885421752	19
10	364	903.905552536614	20
10	367	907.483937674146	21
10	394	990.413455002523	22
10	400	1008.003682923438	23
10	406	1020.417949707382	24
10	411	1033.249379298814	25
10	419	1053.470206707816	26
10	428	1065.821984533476	27
10	453	1104.858659015191	28
10	465	1143.647684051215	29
10	518	1301.300109462689	30
10	523	1316.697341954421	31
10	539	1352.172457290686	32
10	570	1419.760823824721	33
10	582	1453.65964639195	34
10	616	1539.073766767534	35
10	621	1551.811268998897	36
10	627	1574.680051997075	37
10	633	1580.731531549448	38
10	653	1619.123148538388	39
10	658	1628.846044176192	40
10	666	1641.653488925519	41
10	713	1767.39258822199	42
10	738	1826.132510283332	43
10	742	1837.232700665273	44
10	753	1856.676250964027	45
10	761	1883.476859197256	46
10	776	1927.167334289672	47
10	792	1985.692923559129	48
10	813	2035.12845233487	49
10	833	2086.337690370672	50
10	836	2097.545413534898	51
10	844	2115.320149594233	52
10	856	2145.854161296251	53
10	867	2165.681529415681	54
10	874	2187.109250616897	55
10	907	2221.454825515369	56
10	929	2264.236815591852	57
10	932	2271.874558676346	58
10	939	2293.078236472355	59
10	960	2336.495621840945	60
10	982	2372.17973835098	61
10	995	2414.535637886846	62
10	1011	2439.36645112858	63
10	1024	2452.701691149425	64
11	1039	2500	0.0664
12	1039	2500	0.048

