version 2
run experiments_hard_game_mode1-305-20230311-19:40:27-6191
attr configname experiments_hard_game_mode1
attr datetime 20230311-19:40:27
attr experiment experiments_hard_game_mode1
attr inifile omnetpp.ini
attr iterationvars "$0=8, $1=3, $2=0"
attr iterationvarsf 8,3,0-
attr measurement "$0=8, $1=3, $2=0"
attr network Network
attr processid 6191
attr repetition 5
attr replication #5
attr resultdir results
attr runnumber 305
attr seedset 5
param *.boss.arrival_mean 20
param *.boss.service_mean 8
param *.minion.arrival_mean 10
param *.minion.service_mean 3
param *.player.recover_rate_x 0
param **.minion.arrival_distribution 0
param **.minion.service_distribution 0
param **.boss.arrival_distribution 0
param **.boss.service_distribution 0

vector 0 Network.player boss_defeated_stat:vector ETV
attr source signal_boss_defeated
vector 1 Network.player boss_jobs_queue_number_stat:vector ETV
attr source signal_boss_jobs_queue_number
vector 2 Network.player boss_response_time_stat:vector ETV
attr source signal_boss_response_time
vector 3 Network.player minion_jobs_number_stat:vector ETV
attr source signal_minion_jobs_number
vector 4 Network.player minion_jobs_queue_number_stat:vector ETV
attr source signal_minion_jobs_queue_number
vector 5 Network.player minion_waiting_time_stat:vector ETV
attr source signal_minion_waiting_time
vector 6 Network.player minion_defeated_stat:vector ETV
attr source signal_minion_defeated
vector 7 Network.player minion_response_time_stat:vector ETV
attr source signal_minion_response_time
vector 8 Network.player boss_jobs_number_stat:vector ETV
attr source signal_boss_jobs_number
vector 9 Network.player boss_waiting_time_stat:vector ETV
attr source signal_boss_waiting_time
vector 10 Network.player minion_recovered_stat:vector ETV
attr source signal_minion_recovered
vector 11 Network.player minion_throughput:vector ETV
attr source signal_minion_throughput
vector 12 Network.player boss_throughput:vector ETV
attr source signal_boss_throughput
0	132	353.746687586313	19
0	145	386.362189612522	20
0	146	386.381932980148	21
0	149	397.619974188878	22
0	161	419.168538650807	23
0	178	465.290965527068	24
0	187	482.589902254182	25
0	188	482.590567031916	26
0	189	485.448650077764	27
0	210	537.600924936735	28
0	211	544.725555328171	29
0	212	549.071260894684	30
0	221	579.761732426893	31
0	222	588.916237505198	32
0	223	603.835722639057	33
0	230	615.0106709074	34
0	237	628.316600447659	35
0	250	645.140839585547	36
0	264	665.225167654328	37
0	265	669.244601839639	38
0	268	672.21803140449	39
0	294	717.266059262691	40
0	311	755.089692145742	41
0	332	803.517955294122	42
0	343	830.732196361649	43
0	376	886.344605813723	44
0	379	888.274170734303	45
0	388	899.776375903456	46
0	394	907.592670845021	47
0	406	923.965616178621	48
0	411	946.767076447587	49
0	425	965.785190789466	50
0	435	983.049360919757	51
0	445	993.901305983461	52
0	465	1020.629492861129	53
0	487	1094.545987876667	54
0	488	1097.949160542811	55
0	497	1112.119931883078	56
0	515	1175.242361509953	57
0	528	1205.701543573109	58
0	551	1283.465549673514	59
0	573	1336.787258706604	60
0	588	1368.443702712042	61
0	609	1413.572016928191	62
0	617	1452.524393713705	63
0	625	1469.928462797804	64
0	626	1470.944102803356	65
0	630	1474.760682777318	66
0	637	1485.850272409677	67
0	643	1508.372228577747	68
0	660	1542.039254715676	69
0	663	1548.940166867125	70
0	668	1571.805875553218	71
0	697	1635.056122145955	72
0	707	1655.433303663554	73
0	714	1675.681945463664	74
0	721	1680.67667197417	75
0	722	1681.806250125306	76
0	731	1692.635235446606	77
0	743	1710.100445327078	78
0	748	1716.452592805369	79
0	760	1743.936187956962	80
0	761	1751.039482357999	81
0	785	1822.760976858088	82
0	788	1834.645057679973	83
0	793	1853.411080587207	84
0	796	1861.944396424831	85
0	797	1864.715998210355	86
0	804	1871.242255646915	87
0	805	1872.518315366002	88
0	806	1874.08884132862	89
0	812	1884.297709208514	90
0	826	1908.373863315459	91
0	838	1954.19422022958	92
0	845	1972.986606977278	93
0	848	1979.685457514517	94
0	854	1986.400763874728	95
0	864	2006.534634567028	96
0	867	2011.8289755059	97
0	881	2045.617125411681	98
0	895	2078.004371044792	99
0	896	2078.247528194712	100
0	906	2099.199271982462	101
0	913	2116.057036966209	102
0	916	2122.398014084153	103
0	921	2131.58774967082	104
0	934	2163.099312717477	105
0	946	2181.079802061227	106
0	953	2197.10984767983	107
0	956	2197.33046124671	108
0	995	2265.968385445972	109
0	1014	2296.14160793269	110
0	1017	2319.802412129058	111
0	1042	2375.897135391199	112
0	1045	2380.912459973833	113
0	1052	2392.976589570463	114
0	1053	2409.870708075014	115
0	1065	2448.384292290556	116
0	1066	2449.66097756964	117
0	1074	2465.565243474392	118
0	1077	2470.934129312667	119
0	1080	2483.744554252519	120
1	132	353.746687586313	0
1	140	381.910508285344	0
1	142	382.12216177113	1
1	144	385.458599038288	2
1	145	386.362189612522	2
1	146	386.381932980148	1
1	149	397.619974188878	0
1	152	401.932998597983	0
1	154	404.293112790177	1
1	161	419.168538650807	1
1	169	437.903864460807	1
1	171	439.767450543379	2
1	178	465.290965527068	2
1	180	467.105152708054	2
1	187	482.589902254182	2
1	188	482.590567031916	1
1	189	485.448650077764	0
1	199	507.778352471988	0
1	201	511.970843354015	1
1	203	523.641403692857	2
1	205	523.764599663184	3
1	207	526.525142992614	4
1	210	537.600924936735	4
1	211	544.725555328171	3
1	212	549.071260894684	2
1	214	556.097184880185	2
1	216	564.45633319999	3
1	221	579.761732426893	3
1	222	588.916237505198	2
1	223	603.835722639057	1
1	230	615.0106709074	0
1	236	627.778284939314	0
1	237	628.316600447659	0
1	247	638.222539276565	0
1	250	645.140839585547	0
1	261	662.431607004495	0
1	263	662.436923341715	1
1	264	665.225167654328	1
1	265	669.244601839639	0
1	267	669.501349085891	0
1	268	672.21803140449	0
1	291	712.041199677948	0
1	294	717.266059262691	0
1	308	741.260931673624	0
1	311	755.089692145742	0
1	329	799.551242766425	0
1	332	803.517955294122	0
1	340	822.860284331871	0
1	343	830.732196361649	0
1	371	877.543810870645	0
1	376	886.344605813723	0
1	378	887.337605029767	0
1	379	888.274170734303	0
1	381	888.487505027603	0
1	388	899.776375903456	0
1	393	907.588439234243	0
1	394	907.592670845021	0
1	397	909.614822051967	0
1	405	920.771602651114	1
1	406	923.965616178621	1
1	411	946.767076447587	0
1	424	964.27347470108	0
1	425	965.785190789466	0
1	434	981.828805080065	0
1	435	983.049360919757	0
1	442	991.993690733228	0
1	445	993.901305983461	0
1	460	1016.249624094874	0
1	465	1020.629492861129	0
1	482	1077.928705248913	0
1	484	1080.302015026252	1
1	487	1094.545987876667	1
1	488	1097.949160542811	0
1	496	1107.584578418003	0
1	497	1112.119931883078	0
1	506	1158.933809594803	0
1	515	1175.242361509953	0
1	527	1188.996723057024	0
1	528	1205.701543573109	0
1	550	1278.988197943606	0
1	551	1283.465549673514	0
1	572	1331.699076905576	0
1	573	1336.787258706604	0
1	583	1354.3265869964	0
1	588	1368.443702712042	0
1	608	1410.690821772367	0
1	609	1413.572016928191	0
1	614	1442.401810080516	0
1	617	1452.524393713705	0
1	620	1458.263650676793	0
1	622	1458.853799594753	1
1	625	1469.928462797804	1
1	626	1470.944102803356	0
1	629	1474.67750170795	0
1	630	1474.760682777318	0
1	632	1478.591938273987	0
1	637	1485.850272409677	0
1	640	1499.350124495382	0
1	643	1508.372228577747	0
1	659	1540.927398831871	0
1	660	1542.039254715676	0
1	662	1543.83572861612	0
1	663	1548.940166867125	0
1	667	1571.160236717777	0
1	668	1571.805875553218	0
1	692	1627.011532211296	0
1	697	1635.056122145955	0
1	700	1641.200728983196	0
1	704	1649.139788179428	1
1	706	1651.886764969815	2
1	707	1655.433303663554	2
1	714	1675.681945463664	1
1	718	1677.97722850772	1
1	721	1680.67667197417	1
1	722	1681.806250125306	0
1	730	1691.221218932796	0
1	731	1692.635235446606	0
1	734	1695.469903337416	0
1	740	1709.973952942435	1
1	743	1710.100445327078	1
1	748	1716.452592805369	0
1	755	1734.173751778239	0
1	759	1741.631715878164	1
1	760	1743.936187956962	1
1	761	1751.039482357999	0
1	770	1795.251777029999	0
1	772	1796.186514870931	1
1	778	1810.233699922377	2
1	784	1821.747407345427	3
1	785	1822.760976858088	3
1	788	1834.645057679973	2
1	792	1852.560548192826	2
1	793	1853.411080587207	2
1	795	1854.576513861016	2
1	796	1861.944396424831	2
1	797	1864.715998210355	1
1	801	1868.175832967458	1
1	803	1869.101112407136	2
1	804	1871.242255646915	2
1	805	1872.518315366002	1
1	806	1874.08884132862	0
1	809	1883.079443135498	0
1	812	1884.297709208514	0
1	825	1906.172223784969	0
1	826	1908.373863315459	0
1	835	1929.509174591028	0
1	838	1954.19422022958	0
1	842	1967.343964080476	0
1	845	1972.986606977278	0
1	847	1979.682068380707	0
1	848	1979.685457514517	0
1	851	1982.357432335051	0
1	854	1986.400763874728	0
1	863	2003.786686497585	0
1	864	2006.534634567028	0
1	866	2006.5504223079	0
1	867	2011.8289755059	0
1	880	2040.249635521158	0
1	881	2045.617125411681	0
1	884	2053.063007369747	0
1	894	2076.247451695774	1
1	895	2078.004371044792	1
1	896	2078.247528194712	0
1	899	2080.649378436169	0
1	901	2086.329528345313	1
1	906	2099.199271982462	1
1	913	2116.057036966209	0
1	915	2116.760152658708	0
1	916	2122.398014084153	0
1	920	2130.649701280081	0
1	921	2131.58774967082	0
1	929	2149.349687489204	0
1	934	2163.099312717477	0
1	941	2171.319197265902	0
1	946	2181.079802061227	0
1	948	2183.040962897326	0
1	950	2183.478361293144	1
1	953	2197.10984767983	1
1	956	2197.33046124671	0
1	992	2263.858396856056	0
1	995	2265.968385445972	0
1	1013	2294.457992447564	0
1	1014	2296.14160793269	0
1	1016	2319.143568197383	0
1	1017	2319.802412129058	0
1	1037	2364.097716176362	0
1	1041	2369.034416376807	1
1	1042	2375.897135391199	1
1	1044	2379.332298766566	1
1	1045	2380.912459973833	1
1	1049	2382.99845866801	1
1	1052	2392.976589570463	1
1	1053	2409.870708075014	0
1	1060	2420.064793868789	0
1	1064	2435.541766541786	1
1	1065	2448.384292290556	1
1	1066	2449.66097756964	0
1	1073	2461.309526535168	0
1	1074	2465.565243474392	0
1	1076	2468.83020005602	0
1	1077	2470.934129312667	0
1	1079	2471.034788360199	0
1	1080	2483.744554252519	0
2	132	353.746687586313	4.247275625432
2	145	386.362189612522	4.451681327178
2	146	386.381932980148	4.259771209018
2	149	397.619974188878	12.16137515059
2	161	419.168538650807	17.235540052824
2	178	465.290965527068	60.997852736891
2	187	482.589902254182	44.686037793375
2	188	482.590567031916	42.823116488537
2	189	485.448650077764	18.34349736971
2	210	537.600924936735	29.822572464747
2	211	544.725555328171	32.754711974156
2	212	549.071260894684	25.429857201827
2	221	579.761732426893	55.997132763709
2	222	588.916237505198	62.391094512584
2	223	603.835722639057	47.738537758872
2	230	615.0106709074	50.55433770741
2	237	628.316600447659	0.538315508345
2	250	645.140839585547	6.918300308982
2	264	665.225167654328	2.793560649833
2	265	669.244601839639	6.807678497924
2	268	672.21803140449	2.716682318599
2	294	717.266059262691	5.224859584743
2	311	755.089692145742	13.828760472118
2	332	803.517955294122	3.966712527697
2	343	830.732196361649	7.871912029778
2	376	886.344605813723	8.800794943078
2	379	888.274170734303	0.936565704536
2	388	899.776375903456	11.288870875853
2	394	907.592670845021	0.004231610778
2	406	923.965616178621	14.350794126654
2	411	946.767076447587	25.995473796473
2	425	965.785190789466	1.511716088386
2	435	983.049360919757	1.220555839692
2	445	993.901305983461	1.907615250233
2	465	1020.629492861129	4.379868766255
2	487	1094.545987876667	16.617282627754
2	488	1097.949160542811	17.647145516559
2	497	1112.119931883078	4.535353465075
2	515	1175.242361509953	16.30855191515
2	528	1205.701543573109	16.704820516085
2	551	1283.465549673514	4.477351729908
2	573	1336.787258706604	5.088181801028
2	588	1368.443702712042	14.117115715642
2	609	1413.572016928191	2.881195155824
2	617	1452.524393713705	10.122583633189
2	625	1469.928462797804	11.664812121011
2	626	1470.944102803356	12.090303208603
2	630	1474.760682777318	0.083181069368
2	637	1485.850272409677	7.25833413569
2	643	1508.372228577747	9.022104082365
2	660	1542.039254715676	1.111855883805
2	663	1548.940166867125	5.104438251005
2	668	1571.805875553218	0.645638835441
2	697	1635.056122145955	8.044589934659
2	707	1655.433303663554	14.232574680358
2	714	1675.681945463664	26.542157284236
2	721	1680.67667197417	28.789907004355
2	722	1681.806250125306	3.829021617586
2	731	1692.635235446606	1.41401651381
2	743	1710.100445327078	14.630541989662
2	748	1716.452592805369	6.478639862934
2	760	1743.936187956962	9.762436178723
2	761	1751.039482357999	9.407766479835
2	785	1822.760976858088	27.509199828089
2	788	1834.645057679973	38.458542809042
2	793	1853.411080587207	43.17738066483
2	796	1861.944396424831	40.196989079404
2	797	1864.715998210355	12.155450017529
2	804	1871.242255646915	16.665741785899
2	805	1872.518315366002	4.342482398544
2	806	1874.08884132862	4.987728921484
2	812	1884.297709208514	1.218266073016
2	826	1908.373863315459	2.20163953049
2	838	1954.19422022958	24.685045638552
2	845	1972.986606977278	5.642642896802
2	848	1979.685457514517	0.00338913381
2	854	1986.400763874728	4.043331539677
2	864	2006.534634567028	2.747948069443
2	867	2011.8289755059	5.278553198
2	881	2045.617125411681	5.367489890523
2	895	2078.004371044792	24.941363675045
2	896	2078.247528194712	2.000076498938
2	906	2099.199271982462	18.549893546293
2	913	2116.057036966209	29.727508620896
2	916	2122.398014084153	5.637861425445
2	921	2131.58774967082	0.938048390739
2	934	2163.099312717477	13.749625228273
2	946	2181.079802061227	9.760604795325
2	953	2197.10984767983	14.068884782504
2	956	2197.33046124671	13.852099953566
2	995	2265.968385445972	2.109988589916
2	1014	2296.14160793269	1.683615485126
2	1017	2319.802412129058	0.658843931675
2	1042	2375.897135391199	11.799419214837
2	1045	2380.912459973833	11.878043597026
2	1052	2392.976589570463	13.644290803897
2	1053	2409.870708075014	26.872249407004
2	1065	2448.384292290556	28.319498421767
2	1066	2449.66097756964	14.119211027854
2	1074	2465.565243474392	4.255716939224
2	1077	2470.934129312667	2.103929256647
2	1080	2483.744554252519	12.70976589232
3	134	354.172507827807	1
3	137	373.165573927013	1
3	148	393.279838510632	1
3	156	408.207277351423	1
3	158	411.99829745011	2
3	160	412.37183081957	3
3	163	436.073400872944	4
3	165	437.314233815506	5
3	167	437.327952946813	6
3	173	451.242256151972	7
3	175	459.810452974783	8
3	177	462.544540123058	9
3	182	468.979055047066	10
3	184	471.920162134502	11
3	186	475.095408618298	12
3	193	494.588354537745	11
3	196	497.713550616588	11
3	209	527.626775085374	11
3	218	571.143215401286	12
3	220	579.391432256081	13
3	225	605.943574795199	14
3	227	607.913223543641	15
3	229	609.957947543076	16
3	233	624.665666816139	16
3	239	630.706851864441	16
3	245	637.487093734645	13
3	249	643.417267897842	14
3	255	653.393714807935	12
3	257	656.310268947339	13
3	270	674.6047529137	12
3	276	695.335114389194	9
3	283	701.516242444663	5
3	285	704.925125838561	6
3	289	711.815483747498	5
3	293	715.664169776615	6
3	302	727.040126940911	1
3	305	735.618888755847	1
3	310	746.139589939481	1
3	314	762.644089716245	1
3	317	765.774707186922	1
3	320	768.538631314541	1
3	322	769.235612506848	2
3	326	787.248359323836	1
3	331	802.008149240264	1
3	335	815.757023724541	1
3	338	822.315232027055	1
3	342	828.136835226231	2
3	345	832.129773314188	3
3	347	833.062464632352	4
3	351	840.209054935251	3
3	354	845.043579502083	3
3	358	848.103789288935	2
3	361	853.51756743213	2
3	364	857.235620783026	2
3	368	871.716141047027	1
3	373	881.573981200952	1
3	375	883.796395950465	2
3	383	891.948409974863	3
3	385	892.451265341315	4
3	387	896.287023108023	5
3	391	907.496880138223	5
3	399	912.519557305623	5
3	401	912.719751269411	6
3	403	915.703469079402	7
3	408	931.627609079209	8
3	410	940.35611761368	9
3	414	952.926673196333	9
3	417	954.689615315032	9
3	421	958.18994317615	8
3	427	967.306304503991	8
3	429	971.293520383222	9
3	438	988.770386098451	6
3	440	991.89196686214	7
3	444	993.592636988663	8
3	448	995.06088645478	8
3	454	1008.314780315635	5
3	458	1012.966214610902	4
3	462	1018.219575777321	5
3	464	1018.378246406112	6
3	472	1033.460060157527	2
3	476	1037.687100701228	1
3	479	1053.982005230281	1
3	486	1087.119359711866	1
3	491	1102.540491660609	1
3	494	1104.720238786165	1
3	500	1113.692156924454	1
3	503	1148.073931961739	1
3	508	1158.994943503307	1
3	510	1159.869971217089	2
3	512	1170.270592856227	3
3	514	1172.886145916887	4
3	518	1178.431073673036	4
3	521	1180.180260533885	4
3	525	1187.386849011417	3
3	533	1213.938108252133	1
3	536	1220.894768537029	1
3	539	1246.89843674697	1
3	541	1247.276325723585	2
3	545	1266.056222790817	1
3	548	1278.370214318002	1
3	553	1284.448987743469	2
3	556	1294.136166031973	2
3	560	1301.96258254879	1
3	563	1317.004740683419	1
3	565	1321.089472312076	2
3	569	1327.240403897141	1
3	575	1339.31192988468	1
3	578	1344.089152158986	1
3	581	1354.139097917223	1
3	585	1357.590687385923	2
3	587	1362.401640317386	3
3	592	1370.548662839093	2
3	596	1393.477834516225	1
3	599	1394.357009853883	1
3	602	1399.467597341814	1
3	605	1409.444819982285	1
3	611	1413.916469106427	1
3	616	1442.842899766702	1
3	624	1460.245386861678	1
3	634	1482.431277285998	1
3	636	1482.922469037112	2
3	642	1504.007678257348	2
3	647	1516.603279450633	1
3	650	1520.830688733209	1
3	652	1521.897440116271	2
3	656	1534.041056993256	1
3	665	1567.933072131845	1
3	671	1575.426811134132	1
3	673	1577.614321941095	2
3	677	1588.382349111459	1
3	680	1604.98445020996	1
3	683	1608.10816906207	1
3	685	1611.611585584382	2
3	689	1620.970579796187	1
3	694	1629.016241169596	1
3	696	1629.509796788956	2
3	702	1645.107593448206	2
3	709	1656.998456245854	3
3	711	1667.385312246145	4
3	713	1670.941665386543	5
3	716	1677.340756018396	6
3	720	1679.151605878875	7
3	736	1698.499432454028	1
3	738	1702.537875751213	2
3	742	1710.023199632792	3
3	745	1711.831678986269	4
3	747	1715.794270075167	5
3	757	1740.402810295447	1
3	764	1754.371851842985	1
3	767	1757.712952114246	1
3	774	1803.563631578393	1
3	776	1804.702121163114	2
3	780	1813.945618333506	3
3	782	1815.189939142241	4
3	787	1830.000877789753	5
3	790	1844.087242559274	6
3	799	1865.352465476735	7
3	811	1883.609421275364	7
3	814	1885.977274496929	8
3	816	1886.339112843074	9
3	830	1925.322903074237	1
3	832	1926.617656675168	2
3	837	1946.452518246029	2
3	844	1968.617331088617	1
3	853	1983.774184273965	1
3	857	1991.012150132266	1
3	860	1995.96333466045	1
3	869	2021.788839862228	1
3	872	2027.965610252793	1
3	875	2036.670246191136	1
3	878	2038.612038391061	1
3	886	2053.451391923639	1
3	888	2059.720372977221	2
3	890	2065.213904978399	3
3	892	2070.960011779213	4
3	903	2088.416297189241	4
3	905	2094.55514914724	5
3	908	2099.423059657969	6
3	910	2109.526301819064	7
3	912	2113.901216392289	8
3	931	2152.7373224416	1
3	933	2158.324858173646	2
3	938	2170.032935115697	1
3	943	2175.059280819876	1
3	945	2175.89386075536	2
3	952	2194.513301538501	3
3	955	2197.181186761374	4
3	958	2201.862421686758	5
3	962	2205.989717082358	4
3	965	2210.635198036061	4
3	970	2215.605995918517	2
3	974	2220.983562150837	1
3	977	2237.146804838887	1
3	979	2242.672738216294	2
3	981	2243.211192938679	3
3	986	2254.082127145278	1
3	988	2255.276179260871	2
3	990	2257.380623580054	3
3	994	2265.712071714624	4
3	1000	2278.530645851194	2
3	1002	2279.373335041389	3
3	1005	2282.299088262717	3
3	1010	2288.557943251978	1
3	1019	2321.438632138943	1
3	1022	2332.743083346899	1
3	1024	2334.166339972331	2
3	1026	2334.24183420918	3
3	1031	2350.681956625492	1
3	1034	2362.032617962155	1
3	1039	2366.417596998391	1
3	1047	2382.613350806866	2
3	1051	2383.497710697982	3
3	1058	2419.292970577924	1
3	1062	2432.429685492346	2
3	1068	2452.103637946343	3
4	134	354.172507827807	0
4	135	358.601294351195	0
4	137	373.165573927013	0
4	138	373.754073577382	0
4	148	393.279838510632	0
4	150	399.031352478842	0
4	156	408.207277351423	0
4	158	411.99829745011	1
4	160	412.37183081957	2
4	163	436.073400872944	3
4	165	437.314233815506	4
4	167	437.327952946813	5
4	173	451.242256151972	6
4	175	459.810452974783	7
4	177	462.544540123058	8
4	182	468.979055047066	9
4	184	471.920162134502	10
4	186	475.095408618298	11
4	190	487.503767812065	11
4	191	489.167731656057	10
4	193	494.588354537745	10
4	194	495.146414612824	10
4	196	497.713550616588	10
4	197	505.381279218924	10
4	209	527.626775085374	10
4	218	571.143215401286	11
4	220	579.391432256081	12
4	225	605.943574795199	13
4	227	607.913223543641	14
4	229	609.957947543076	15
4	231	616.004702310677	15
4	233	624.665666816139	15
4	234	626.573284739923	15
4	239	630.706851864441	15
4	240	632.589244035554	15
4	241	634.665549058029	14
4	242	636.120291936561	13
4	243	637.152263169702	12
4	245	637.487093734645	12
4	249	643.417267897842	13
4	251	647.67200544141	13
4	252	649.543108206663	12
4	253	653.291697239483	11
4	255	653.393714807935	11
4	257	656.310268947339	12
4	258	659.548380153274	12
4	259	660.495266133423	11
4	270	674.6047529137	11
4	271	681.654422912364	11
4	272	688.985623801558	10
4	273	690.398587623511	9
4	274	691.437733054139	8
4	276	695.335114389194	8
4	277	695.728547958038	8
4	278	696.234660183547	7
4	279	697.028874787152	6
4	280	699.210032586651	5
4	281	700.1417379742	4
4	283	701.516242444663	4
4	285	704.925125838561	5
4	286	706.035358059294	5
4	287	711.553171267946	4
4	289	711.815483747498	4
4	293	715.664169776615	5
4	295	717.533117336736	5
4	296	718.597542923521	4
4	297	722.766708618258	3
4	298	723.768695333152	2
4	299	723.831843314505	1
4	300	725.292259463223	0
4	302	727.040126940911	0
4	303	728.229104540175	0
4	305	735.618888755847	0
4	306	738.418114492072	0
4	310	746.139589939481	0
4	312	756.939030311477	0
4	314	762.644089716245	0
4	315	763.177363227926	0
4	317	765.774707186922	0
4	318	768.132918972467	0
4	320	768.538631314541	0
4	322	769.235612506848	1
4	323	770.078574642195	1
4	324	770.813978665419	0
4	326	787.248359323836	0
4	327	792.14300801099	0
4	331	802.008149240264	0
4	333	808.344294612233	0
4	335	815.757023724541	0
4	336	818.09255486457	0
4	338	822.315232027055	0
4	342	828.136835226231	1
4	345	832.129773314188	2
4	347	833.062464632352	3
4	348	834.078528866281	3
4	349	838.328940292524	2
4	351	840.209054935251	2
4	352	844.006187757369	2
4	354	845.043579502083	2
4	355	845.530297895381	2
4	356	846.464263017177	1
4	358	848.103789288935	1
4	359	851.314643779284	1
4	361	853.51756743213	1
4	362	854.176813998695	1
4	364	857.235620783026	1
4	365	859.840287395876	1
4	366	863.013470751279	0
4	368	871.716141047027	0
4	369	871.973791776638	0
4	373	881.573981200952	0
4	375	883.796395950465	1
4	383	891.948409974863	2
4	385	892.451265341315	3
4	387	896.287023108023	4
4	389	900.250649481533	4
4	391	907.496880138223	4
4	395	909.177370500188	4
4	399	912.519557305623	4
4	401	912.719751269411	5
4	403	915.703469079402	6
4	408	931.627609079209	7
4	410	940.35611761368	8
4	412	951.751758765225	8
4	414	952.926673196333	8
4	415	954.614899728728	8
4	417	954.689615315032	8
4	418	955.635104424276	8
4	419	957.420571469153	7
4	421	958.18994317615	7
4	422	960.17221441795	7
4	427	967.306304503991	7
4	429	971.293520383222	8
4	430	972.643565040777	8
4	431	973.372029253654	7
4	432	975.392252473654	6
4	436	988.335697186063	5
4	438	988.770386098451	5
4	440	991.89196686214	6
4	444	993.592636988663	7
4	446	994.089144839935	7
4	448	995.06088645478	7
4	449	999.96378031137	7
4	450	1001.615196803342	6
4	451	1001.879609680939	5
4	452	1006.539422454127	4
4	454	1008.314780315635	4
4	455	1011.893318002509	4
4	456	1012.6089913833	3
4	458	1012.966214610902	3
4	462	1018.219575777321	4
4	464	1018.378246406112	5
4	466	1020.717153571135	5
4	467	1024.317701497757	4
4	468	1025.309430427387	3
4	469	1028.22735188964	2
4	470	1030.044906084345	1
4	472	1033.460060157527	1
4	473	1033.786966197841	1
4	474	1034.882449468847	0
4	476	1037.687100701228	0
4	477	1039.114952314648	0
4	479	1053.982005230281	0
4	480	1059.127807577268	0
4	486	1087.119359711866	0
4	489	1100.678520697454	0
4	491	1102.540491660609	0
4	492	1102.991790736186	0
4	494	1104.720238786165	0
4	498	1113.21615547032	0
4	500	1113.692156924454	0
4	501	1115.231123312576	0
4	503	1148.073931961739	0
4	504	1149.061250894308	0
4	508	1158.994943503307	0
4	510	1159.869971217089	1
4	512	1170.270592856227	2
4	514	1172.886145916887	3
4	516	1176.031182831219	3
4	518	1178.431073673036	3
4	519	1178.756986378098	3
4	521	1180.180260533885	3
4	522	1181.435132069092	3
4	523	1183.531122451007	2
4	525	1187.386849011417	2
4	529	1206.136716816782	2
4	530	1207.328054218521	1
4	531	1208.384186552745	0
4	533	1213.938108252133	0
4	534	1216.972183814413	0
4	536	1220.894768537029	0
4	537	1225.793036395809	0
4	539	1246.89843674697	0
4	541	1247.276325723585	1
4	542	1248.537524473518	1
4	543	1253.327872079632	0
4	545	1266.056222790817	0
4	546	1267.1285680141	0
4	548	1278.370214318002	0
4	553	1284.448987743469	1
4	554	1286.134658439088	1
4	556	1294.136166031973	1
4	557	1295.020663102689	1
4	558	1295.860251240504	0
4	560	1301.96258254879	0
4	561	1305.442814983462	0
4	563	1317.004740683419	0
4	565	1321.089472312076	1
4	566	1322.138425784552	1
4	567	1326.041939218691	0
4	569	1327.240403897141	0
4	570	1329.131491166083	0
4	575	1339.31192988468	0
4	576	1340.804875321455	0
4	578	1344.089152158986	0
4	579	1348.120106768227	0
4	581	1354.139097917223	0
4	585	1357.590687385923	1
4	587	1362.401640317386	2
4	589	1368.508892478714	2
4	590	1370.361044535994	1
4	592	1370.548662839093	1
4	593	1371.841351666935	1
4	594	1377.828545089175	0
4	596	1393.477834516225	0
4	597	1393.810165244312	0
4	599	1394.357009853883	0
4	600	1397.990649632402	0
4	602	1399.467597341814	0
4	603	1408.805787764488	0
4	605	1409.444819982285	0
4	606	1409.996498600249	0
4	611	1413.916469106427	0
4	612	1417.701323997489	0
4	616	1442.842899766702	0
4	618	1453.116990992681	0
4	624	1460.245386861678	0
4	627	1472.353505107074	0
4	634	1482.431277285998	0
4	636	1482.922469037112	1
4	638	1491.539733474361	1
4	642	1504.007678257348	1
4	644	1509.418036820255	1
4	645	1510.780958011229	0
4	647	1516.603279450633	0
4	648	1517.41125997756	0
4	650	1520.830688733209	0
4	652	1521.897440116271	1
4	653	1522.269809050423	1
4	654	1525.880639137528	0
4	656	1534.041056993256	0
4	657	1534.167298757502	0
4	665	1567.933072131845	0
4	669	1572.398717609352	0
4	671	1575.426811134132	0
4	673	1577.614321941095	1
4	674	1578.443513952025	1
4	675	1579.805838843236	0
4	677	1588.382349111459	0
4	678	1593.274002019749	0
4	680	1604.98445020996	0
4	681	1605.075182698394	0
4	683	1608.10816906207	0
4	685	1611.611585584382	1
4	686	1614.936375351476	1
4	687	1616.604221824633	0
4	689	1620.970579796187	0
4	690	1621.620437520528	0
4	694	1629.016241169596	0
4	696	1629.509796788956	1
4	698	1635.447738071082	1
4	702	1645.107593448206	1
4	709	1656.998456245854	2
4	711	1667.385312246145	3
4	713	1670.941665386543	4
4	716	1677.340756018396	5
4	720	1679.151605878875	6
4	723	1681.895182125594	6
4	724	1685.840549265073	5
4	725	1686.423960856078	4
4	726	1687.858800991522	3
4	727	1689.261721537016	2
4	728	1690.010620716102	1
4	732	1692.869791212524	0
4	736	1698.499432454028	0
4	738	1702.537875751213	1
4	742	1710.023199632792	2
4	745	1711.831678986269	3
4	747	1715.794270075167	4
4	749	1720.884303100237	4
4	750	1723.420716826763	3
4	751	1724.710452057964	2
4	752	1726.857469260783	1
4	753	1731.561458662912	0
4	757	1740.402810295447	0
4	762	1753.298666374429	0
4	764	1754.371851842985	0
4	765	1755.510421511904	0
4	767	1757.712952114246	0
4	768	1759.934943602967	0
4	774	1803.563631578393	0
4	776	1804.702121163114	1
4	780	1813.945618333506	2
4	782	1815.189939142241	3
4	787	1830.000877789753	4
4	790	1844.087242559274	5
4	799	1865.352465476735	6
4	807	1876.449372396494	6
4	811	1883.609421275364	6
4	814	1885.977274496929	7
4	816	1886.339112843074	8
4	817	1886.722188317809	8
4	818	1887.571569424706	7
4	819	1890.652313088852	6
4	820	1891.353042891631	5
4	821	1892.180666514224	4
4	822	1893.609941557737	3
4	823	1898.688895645865	2
4	827	1909.460506908834	1
4	828	1910.265973122004	0
4	830	1925.322903074237	0
4	832	1926.617656675168	1
4	833	1928.42882635614	1
4	837	1946.452518246029	1
4	839	1956.489286528012	1
4	840	1957.222439299827	0
4	844	1968.617331088617	0
4	849	1980.70759418135	0
4	853	1983.774184273965	0
4	855	1989.859182953345	0
4	857	1991.012150132266	0
4	858	1991.229763553998	0
4	860	1995.96333466045	0
4	861	1998.300172786728	0
4	869	2021.788839862228	0
4	870	2026.355449340812	0
4	872	2027.965610252793	0
4	873	2029.52790293284	0
4	875	2036.670246191136	0
4	876	2036.777447920183	0
4	878	2038.612038391061	0
4	882	2045.677528656261	0
4	886	2053.451391923639	0
4	888	2059.720372977221	1
4	890	2065.213904978399	2
4	892	2070.960011779213	3
4	897	2080.381948427579	3
4	903	2088.416297189241	3
4	905	2094.55514914724	4
4	908	2099.423059657969	5
4	910	2109.526301819064	6
4	912	2113.901216392289	7
4	917	2124.316086616419	7
4	918	2127.566805574951	6
4	922	2137.033563172133	5
4	923	2141.565690691397	4
4	924	2141.98247006142	3
4	925	2142.12761257009	2
4	926	2143.157486166234	1
4	927	2143.593193118357	0
4	931	2152.7373224416	0
4	933	2158.324858173646	1
4	935	2165.331192799216	1
4	936	2165.563654631558	0
4	938	2170.032935115697	0
4	939	2170.087572427443	0
4	943	2175.059280819876	0
4	945	2175.89386075536	1
4	952	2194.513301538501	2
4	955	2197.181186761374	3
4	958	2201.862421686758	4
4	959	2202.230193776745	4
4	960	2203.054460973675	3
4	962	2205.989717082358	3
4	963	2206.792493449091	3
4	965	2210.635198036061	3
4	966	2213.688096484716	3
4	967	2214.178388220176	2
4	968	2215.230562100832	1
4	970	2215.605995918517	1
4	971	2218.092256264974	1
4	972	2218.863343425872	0
4	974	2220.983562150837	0
4	975	2221.474123917697	0
4	977	2237.146804838887	0
4	979	2242.672738216294	1
4	981	2243.211192938679	2
4	982	2243.459666094543	2
4	983	2245.31786340806	1
4	984	2246.911621124518	0
4	986	2254.082127145278	0
4	988	2255.276179260871	1
4	990	2257.380623580054	2
4	994	2265.712071714624	3
4	996	2266.381725205526	3
4	997	2271.946190289234	2
4	998	2273.945744151096	1
4	1000	2278.530645851194	1
4	1002	2279.373335041389	2
4	1003	2280.442130769153	2
4	1005	2282.299088262717	2
4	1006	2283.97426735984	2
4	1007	2284.712292266132	1
4	1008	2286.57644071944	0
4	1010	2288.557943251978	0
4	1011	2291.412665883729	0
4	1019	2321.438632138943	0
4	1020	2328.897204900255	0
4	1022	2332.743083346899	0
4	1024	2334.166339972331	1
4	1026	2334.24183420918	2
4	1027	2334.497061823697	2
4	1028	2338.453725876855	1
4	1029	2342.651082535788	0
4	1031	2350.681956625492	0
4	1032	2350.68826476356	0
4	1034	2362.032617962155	0
4	1035	2363.867314055458	0
4	1039	2366.417596998391	0
4	1047	2382.613350806866	1
4	1051	2383.497710697982	2
4	1054	2413.22344439487	2
4	1055	2413.335353695848	1
4	1056	2415.928911857147	0
4	1058	2419.292970577924	0
4	1062	2432.429685492346	1
4	1068	2452.103637946343	2
4	1069	2452.132152242262	2
4	1070	2454.088199786065	1
4	1071	2455.35759193054	0
5	134	354.172507827807	0
5	137	373.165573927013	0
5	149	397.619974188878	4.340135678246
5	189	485.448650077764	77.241372726341
5	190	487.503767812065	75.505470361955
5	191	489.167731656057	76.795900836487
5	194	495.146414612824	59.07301373988
5	197	505.381279218924	68.067045403418
5	230	615.0106709074	177.68271796059
5	231	616.004702310677	164.7624461587
5	234	626.573284739923	166.76283176514
5	237	628.316600447659	165.7720603246
5	240	632.589244035554	163.61018898849
5	241	634.665549058029	162.74538692353
5	242	636.120291936561	161.02488331826
5	243	637.152263169702	142.56390863196
5	250	645.140839585547	147.42728896896
5	251	647.67200544141	139.89365296942
5	252	649.543108206663	121.91633312129
5	253	653.291697239483	82.148481838197
5	258	659.548380153274	80.156947897193
5	259	660.495266133423	54.551691338224
5	265	669.244601839639	61.331378295998
5	268	672.21803140449	62.260083861414
5	271	681.654422912364	56.988756096225
5	272	688.985623801558	61.207338862244
5	273	690.398587623511	59.69173575907
5	274	691.437733054139	53.950639319494
5	277	695.728547958038	57.506008681473
5	278	696.234660183547	52.817392285705
5	279	697.028874787152	43.635159979217
5	280	699.210032586651	42.899763639312
5	281	700.1417379742	37.710130969705
5	286	706.035358059294	36.534008973403
5	287	711.553171267946	36.948418354246
5	294	717.266059262691	21.930944873497
5	295	717.533117336736	16.016874892073
5	296	718.597542923521	13.67241708496
5	297	722.766708618258	10.95122487076
5	298	723.768695333152	11.727495655204
5	299	723.831843314505	8.16767353789
5	302	727.040126940911	0
5	305	735.618888755847	0
5	311	755.089692145742	8.950102206261
5	314	762.644089716245	0
5	317	765.774707186922	0
5	320	768.538631314541	0
5	323	770.078574642195	0.842962135347
5	326	787.248359323836	0
5	332	803.517955294122	1.509806053858
5	335	815.757023724541	0
5	338	822.315232027055	0
5	343	830.732196361649	7.871912029778
5	348	834.078528866281	5.94169364005
5	349	838.328940292524	6.199166978336
5	352	844.006187757369	10.943723125017
5	355	845.530297895381	5.32124296013
5	356	846.464263017177	1.420683515094
5	359	851.314643779284	3.210854490349
5	362	854.176813998695	0.659246566565
5	365	859.840287395876	2.60466661285
5	368	871.716141047027	0
5	376	886.344605813723	4.770624612771
5	379	888.274170734303	4.477774783838
5	388	899.776375903456	12.438770873689
5	389	900.250649481533	11.76314445393
5	394	907.592670845021	15.644260870158
5	395	909.177370500188	16.726105158873
5	411	946.767076447587	50.480053339564
5	412	951.751758765225	44.254878627002
5	415	954.614899728728	47.026460494485
5	418	955.635104424276	46.020282372309
5	419	957.420571469153	44.90101416353
5	422	960.17221441795	47.452463148539
5	425	965.785190789466	50.081721710064
5	430	972.643565040777	41.015955961568
5	431	973.372029253654	33.015911639974
5	432	975.392252473654	22.465579277321
5	435	983.049360919757	28.359745604725
5	436	988.335697186063	30.145754009913
5	445	993.901305983461	29.627831282381
5	446	994.089144839935	26.782840335944
5	449	999.96378031137	28.670259928148
5	450	1001.615196803342	19.786391723277
5	451	1001.879609680939	13.109223582488
5	452	1006.539422454127	14.647455591987
5	455	1011.893318002509	19.899627269281
5	456	1012.6089913833	19.016354394637
5	465	1020.629492861129	25.568606406349
5	466	1020.717153571135	12.4023732555
5	467	1024.317701497757	11.351486886855
5	468	1025.309430427387	9.059806332513
5	469	1028.22735188964	10.007776112319
5	470	1030.044906084345	11.666659678233
5	473	1033.786966197841	0.326906040314
5	476	1037.687100701228	0
5	479	1053.982005230281	0
5	488	1097.949160542811	10.829800830945
5	491	1102.540491660609	0
5	494	1104.720238786165	0
5	497	1112.119931883078	4.535353465075
5	500	1113.692156924454	0
5	503	1148.073931961739	0
5	515	1175.242361509953	16.247418006646
5	516	1176.031182831219	16.16121161413
5	519	1178.756986378098	8.486393521871
5	522	1181.435132069092	8.548986152205
5	523	1183.531122451007	5.100048777971
5	528	1205.701543573109	25.521283039224
5	529	1206.136716816782	18.749867805365
5	530	1207.328054218521	18.331331161497
5	533	1213.938108252133	0
5	536	1220.894768537029	0
5	539	1246.89843674697	0
5	542	1248.537524473518	1.261198749933
5	545	1266.056222790817	0
5	548	1278.370214318002	0
5	551	1283.465549673514	4.477351729908
5	554	1286.134658439088	1.685670695619
5	557	1295.020663102689	0.884497070716
5	560	1301.96258254879	0
5	563	1317.004740683419	0
5	566	1322.138425784552	1.048953472476
5	569	1327.240403897141	0
5	575	1339.31192988468	0
5	578	1344.089152158986	0
5	581	1354.139097917223	0
5	588	1368.443702712042	14.117115715642
5	589	1368.508892478714	10.918205092791
5	590	1370.361044535994	7.959404218608
5	593	1371.841351666935	1.292688827842
5	596	1393.477834516225	0
5	599	1394.357009853883	0
5	602	1399.467597341814	0
5	605	1409.444819982285	0
5	611	1413.916469106427	0
5	617	1452.524393713705	9.681493947003
5	626	1470.944102803356	10.698715941678
5	637	1485.850272409677	3.418995123679
5	638	1491.539733474361	8.617264437249
5	643	1508.372228577747	9.022104082365
5	644	1509.418036820255	5.410358562907
5	647	1516.603279450633	0
5	650	1520.830688733209	0
5	653	1522.269809050423	0.372368934152
5	656	1534.041056993256	0
5	665	1567.933072131845	0
5	668	1571.805875553218	0.645638835441
5	671	1575.426811134132	0
5	674	1578.443513952025	0.82919201093
5	677	1588.382349111459	0
5	680	1604.98445020996	0
5	683	1608.10816906207	0
5	686	1614.936375351476	3.324789767094
5	689	1620.970579796187	0
5	697	1635.056122145955	6.039880976359
5	698	1635.447738071082	5.937941282126
5	722	1681.806250125306	40.60552114211
5	723	1681.895182125594	36.787588677388
5	724	1685.840549265073	28.842093019219
5	725	1686.423960856078	19.038648609933
5	726	1687.858800991522	16.917135604979
5	727	1689.261721537016	11.92096551862
5	728	1690.010620716102	10.859014837227
5	731	1692.635235446606	1.41401651381
5	748	1716.452592805369	17.953160351341
5	749	1720.884303100237	18.346427349024
5	750	1723.420716826763	13.397517193971
5	751	1724.710452057964	12.878773071695
5	752	1726.857469260783	11.063199185616
5	761	1751.039482357999	10.636672062552
5	764	1754.371851842985	0
5	767	1757.712952114246	0
5	806	1874.08884132862	70.525209750227
5	807	1876.449372396494	71.74725123338
5	812	1884.297709208514	70.352090875008
5	817	1886.722188317809	71.532249175568
5	818	1887.571569424706	57.570691634953
5	819	1890.652313088852	46.565070529578
5	820	1891.353042891631	26.000577414896
5	821	1892.180666514224	9.101223378726
5	822	1893.609941557737	10.000520282373
5	823	1898.688895645865	12.711621148936
5	826	1908.373863315459	22.034750472385
5	827	1909.460506908834	3.288283123865
5	830	1925.322903074237	0
5	833	1928.42882635614	1.811169680972
5	838	1954.19422022958	24.685045638552
5	839	1956.489286528012	10.036768281983
5	845	1972.986606977278	4.369275888661
5	848	1979.685457514517	0.00338913381
5	854	1986.400763874728	2.626579600763
5	857	1991.012150132266	0
5	860	1995.96333466045	0
5	869	2021.788839862228	0
5	872	2027.965610252793	0
5	875	2036.670246191136	0
5	878	2038.612038391061	0
5	881	2045.617125411681	5.367489890523
5	896	2078.247528194712	24.796136271073
5	897	2080.381948427579	20.661575450358
5	913	2116.057036966209	50.84313198781
5	916	2122.398014084153	51.43800230494
5	917	2124.316086616419	43.66670818025
5	918	2127.566805574951	39.15050838571
5	921	2131.58774967082	37.03260052358
5	922	2137.033563172133	37.610503514164
5	923	2141.565690691397	32.039388872333
5	924	2141.98247006142	28.081253669131
5	925	2142.12761257009	25.367459911382
5	926	2143.157486166234	12.507784886153
5	934	2163.099312717477	10.361990275877
5	935	2165.331192799216	7.00633462557
5	938	2170.032935115697	0
5	946	2181.079802061227	6.020521241351
5	956	2197.33046124671	21.43660049135
5	959	2202.230193776745	19.189230879419
5	960	2203.054460973675	8.541159435174
5	963	2206.792493449091	9.611306687717
5	966	2213.688096484716	11.825674797958
5	967	2214.178388220176	8.188671137818
5	968	2215.230562100832	4.595364064771
5	971	2218.092256264974	2.486260346457
5	974	2220.983562150837	0
5	977	2237.146804838887	0
5	982	2243.459666094543	0.786927878249
5	983	2245.31786340806	2.106670469381
5	986	2254.082127145278	0
5	995	2265.968385445972	10.692206185101
5	996	2266.381725205526	9.001101625472
5	997	2271.946190289234	8.087793433178
5	998	2273.945744151096	8.233672436472
5	1003	2280.442130769153	1.911484917959
5	1006	2283.97426735984	4.600932318451
5	1007	2284.712292266132	2.413204003415
5	1010	2288.557943251978	0
5	1019	2321.438632138943	0
5	1022	2332.743083346899	0
5	1027	2334.497061823697	0.330721851366
5	1028	2338.453725876855	4.211891667675
5	1031	2350.681956625492	0
5	1034	2362.032617962155	0
5	1053	2409.870708075014	43.453111076623
5	1054	2413.22344439487	30.610093588004
5	1055	2413.335353695848	29.837642997866
5	1058	2419.292970577924	0
5	1066	2449.66097756964	29.596183700851
5	1069	2452.132152242262	19.702466749916
5	1070	2454.088199786065	1.984561839722
6	135	358.601294351195	26
6	138	373.754073577382	27
6	150	399.031352478842	28
6	190	487.503767812065	29
6	191	489.167731656057	30
6	194	495.146414612824	31
6	197	505.381279218924	32
6	231	616.004702310677	33
6	234	626.573284739923	34
6	240	632.589244035554	35
6	241	634.665549058029	36
6	242	636.120291936561	37
6	243	637.152263169702	38
6	251	647.67200544141	39
6	252	649.543108206663	40
6	253	653.291697239483	41
6	258	659.548380153274	42
6	259	660.495266133423	43
6	271	681.654422912364	44
6	272	688.985623801558	45
6	273	690.398587623511	46
6	274	691.437733054139	47
6	277	695.728547958038	48
6	278	696.234660183547	49
6	279	697.028874787152	50
6	280	699.210032586651	51
6	281	700.1417379742	52
6	286	706.035358059294	53
6	287	711.553171267946	54
6	295	717.533117336736	55
6	296	718.597542923521	56
6	297	722.766708618258	57
6	298	723.768695333152	58
6	299	723.831843314505	59
6	300	725.292259463223	60
6	303	728.229104540175	61
6	306	738.418114492072	62
6	312	756.939030311477	63
6	315	763.177363227926	64
6	318	768.132918972467	65
6	323	770.078574642195	66
6	324	770.813978665419	67
6	327	792.14300801099	68
6	333	808.344294612233	69
6	336	818.09255486457	70
6	348	834.078528866281	71
6	349	838.328940292524	72
6	352	844.006187757369	73
6	355	845.530297895381	74
6	356	846.464263017177	75
6	359	851.314643779284	76
6	362	854.176813998695	77
6	365	859.840287395876	78
6	366	863.013470751279	79
6	369	871.973791776638	80
6	389	900.250649481533	81
6	395	909.177370500188	82
6	412	951.751758765225	83
6	415	954.614899728728	84
6	418	955.635104424276	85
6	419	957.420571469153	86
6	422	960.17221441795	87
6	430	972.643565040777	88
6	431	973.372029253654	89
6	432	975.392252473654	90
6	436	988.335697186063	91
6	446	994.089144839935	92
6	449	999.96378031137	93
6	450	1001.615196803342	94
6	451	1001.879609680939	95
6	452	1006.539422454127	96
6	455	1011.893318002509	97
6	456	1012.6089913833	98
6	466	1020.717153571135	99
6	467	1024.317701497757	100
6	468	1025.309430427387	101
6	469	1028.22735188964	102
6	470	1030.044906084345	103
6	473	1033.786966197841	104
6	474	1034.882449468847	105
6	477	1039.114952314648	106
6	480	1059.127807577268	107
6	489	1100.678520697454	108
6	492	1102.991790736186	109
6	498	1113.21615547032	110
6	501	1115.231123312576	111
6	504	1149.061250894308	112
6	516	1176.031182831219	113
6	519	1178.756986378098	114
6	522	1181.435132069092	115
6	523	1183.531122451007	116
6	529	1206.136716816782	117
6	530	1207.328054218521	118
6	531	1208.384186552745	119
6	534	1216.972183814413	120
6	537	1225.793036395809	121
6	542	1248.537524473518	122
6	543	1253.327872079632	123
6	546	1267.1285680141	124
6	554	1286.134658439088	125
6	557	1295.020663102689	126
6	558	1295.860251240504	127
6	561	1305.442814983462	128
6	566	1322.138425784552	129
6	567	1326.041939218691	130
6	570	1329.131491166083	131
6	576	1340.804875321455	132
6	579	1348.120106768227	133
6	589	1368.508892478714	134
6	590	1370.361044535994	135
6	593	1371.841351666935	136
6	594	1377.828545089175	137
6	597	1393.810165244312	138
6	600	1397.990649632402	139
6	603	1408.805787764488	140
6	606	1409.996498600249	141
6	612	1417.701323997489	142
6	618	1453.116990992681	143
6	627	1472.353505107074	144
6	638	1491.539733474361	145
6	644	1509.418036820255	146
6	645	1510.780958011229	147
6	648	1517.41125997756	148
6	653	1522.269809050423	149
6	654	1525.880639137528	150
6	657	1534.167298757502	151
6	669	1572.398717609352	152
6	674	1578.443513952025	153
6	675	1579.805838843236	154
6	678	1593.274002019749	155
6	681	1605.075182698394	156
6	686	1614.936375351476	157
6	687	1616.604221824633	158
6	690	1621.620437520528	159
6	698	1635.447738071082	160
6	723	1681.895182125594	161
6	724	1685.840549265073	162
6	725	1686.423960856078	163
6	726	1687.858800991522	164
6	727	1689.261721537016	165
6	728	1690.010620716102	166
6	732	1692.869791212524	167
6	749	1720.884303100237	168
6	750	1723.420716826763	169
6	751	1724.710452057964	170
6	752	1726.857469260783	171
6	753	1731.561458662912	172
6	762	1753.298666374429	173
6	765	1755.510421511904	174
6	768	1759.934943602967	175
6	807	1876.449372396494	176
6	817	1886.722188317809	177
6	818	1887.571569424706	178
6	819	1890.652313088852	179
6	820	1891.353042891631	180
6	821	1892.180666514224	181
6	822	1893.609941557737	182
6	823	1898.688895645865	183
6	827	1909.460506908834	184
6	828	1910.265973122004	185
6	833	1928.42882635614	186
6	839	1956.489286528012	187
6	840	1957.222439299827	188
6	849	1980.70759418135	189
6	855	1989.859182953345	190
6	858	1991.229763553998	191
6	861	1998.300172786728	192
6	870	2026.355449340812	193
6	873	2029.52790293284	194
6	876	2036.777447920183	195
6	882	2045.677528656261	196
6	897	2080.381948427579	197
6	917	2124.316086616419	198
6	918	2127.566805574951	199
6	922	2137.033563172133	200
6	923	2141.565690691397	201
6	924	2141.98247006142	202
6	925	2142.12761257009	203
6	926	2143.157486166234	204
6	927	2143.593193118357	205
6	935	2165.331192799216	206
6	936	2165.563654631558	207
6	939	2170.087572427443	208
6	959	2202.230193776745	209
6	960	2203.054460973675	210
6	963	2206.792493449091	211
6	966	2213.688096484716	212
6	967	2214.178388220176	213
6	968	2215.230562100832	214
6	971	2218.092256264974	215
6	972	2218.863343425872	216
6	975	2221.474123917697	217
6	982	2243.459666094543	218
6	983	2245.31786340806	219
6	984	2246.911621124518	220
6	996	2266.381725205526	221
6	997	2271.946190289234	222
6	998	2273.945744151096	223
6	1003	2280.442130769153	224
6	1006	2283.97426735984	225
6	1007	2284.712292266132	226
6	1008	2286.57644071944	227
6	1011	2291.412665883729	228
6	1020	2328.897204900255	229
6	1027	2334.497061823697	230
6	1028	2338.453725876855	231
6	1029	2342.651082535788	232
6	1032	2350.68826476356	233
6	1035	2363.867314055458	234
6	1054	2413.22344439487	235
6	1055	2413.335353695848	236
6	1056	2415.928911857147	237
6	1069	2452.132152242262	238
6	1070	2454.088199786065	239
6	1071	2455.35759193054	240
7	135	358.601294351195	4.428786523388
7	138	373.754073577382	0.588499650369
7	150	399.031352478842	5.75151396821
7	190	487.503767812065	79.296490460642
7	191	489.167731656057	77.169434205947
7	194	495.146414612824	82.774583793254
7	197	505.381279218924	69.30787834598
7	231	616.004702310677	178.67674936386
7	234	626.573284739923	175.33102858795
7	240	632.589244035554	170.0447039125
7	241	634.665549058029	165.68649401096
7	242	636.120291936561	164.20012980206
7	243	637.152263169702	162.0568545514
7	251	647.67200544141	149.95845482482
7	252	649.543108206663	141.76475573467
7	253	653.291697239483	125.66492215411
7	258	659.548380153274	88.405164751988
7	259	660.495266133423	81.103833877342
7	271	681.654422912364	71.696475369288
7	272	688.985623801558	64.319956985419
7	273	690.398587623511	62.620302684197
7	274	691.437733054139	60.730881189698
7	277	695.728547958038	58.241454223393
7	278	696.234660183547	58.012120906982
7	279	697.028874787152	53.61160688931
7	280	699.210032586651	45.816317778716
7	281	700.1417379742	43.831469026861
7	286	706.035358059294	43.603751054799
7	287	711.553171267946	42.051822182055
7	295	717.533117336736	22.198002947542
7	296	718.597542923521	17.081300478858
7	297	722.766708618258	17.841582779697
7	298	723.768695333152	11.953211585654
7	299	723.831843314505	11.790643636557
7	300	725.292259463223	9.628089686608
7	303	728.229104540175	1.188977599264
7	306	738.418114492072	2.799225736225
7	312	756.939030311477	10.799440371996
7	315	763.177363227926	0.533273511681
7	318	768.132918972467	2.358211785545
7	323	770.078574642195	1.539943327654
7	324	770.813978665419	1.578366158571
7	327	792.14300801099	4.894648687154
7	333	808.344294612233	6.336145371969
7	336	818.09255486457	2.335531140029
7	348	834.078528866281	11.21824453441
7	349	838.328940292524	10.192105066293
7	352	844.006187757369	11.876414443181
7	355	845.530297895381	12.467833263029
7	356	846.464263017177	6.255208081926
7	359	851.314643779284	6.271064277201
7	362	854.176813998695	6.07302470976
7	365	859.840287395876	6.322719963746
7	366	863.013470751279	5.777849968253
7	369	871.973791776638	0.257650729611
7	389	900.250649481533	12.913044451766
7	395	909.177370500188	17.228960525325
7	412	951.751758765225	55.464735657202
7	415	954.614899728728	47.118019590505
7	418	955.635104424276	48.046665190033
7	419	957.420571469153	47.805749417186
7	422	960.17221441795	47.652657112327
7	430	972.643565040777	56.940095961375
7	431	973.372029253654	41.744420174445
7	432	975.392252473654	35.036134859974
7	436	988.335697186063	33.646081871031
7	446	994.089144839935	29.815670138855
7	449	999.96378031137	32.657475807379
7	450	1001.615196803342	30.32167642012
7	451	1001.879609680939	20.050804600874
7	452	1006.539422454127	17.769036355676
7	455	1011.893318002509	20.001351140369
7	456	1012.6089913833	20.615300650072
7	466	1020.717153571135	25.656267116355
7	467	1024.317701497757	16.002921182122
7	468	1025.309430427387	12.343215816485
7	469	1028.22735188964	11.977727794766
7	470	1030.044906084345	11.825330307024
7	473	1033.786966197841	15.408719791729
7	474	1034.882449468847	1.42238931132
7	477	1039.114952314648	1.42785161342
7	480	1059.127807577268	5.145802346987
7	489	1100.678520697454	13.559160985588
7	492	1102.991790736186	0.451299075577
7	498	1113.21615547032	5.631577052317
7	501	1115.231123312576	1.538966388122
7	504	1149.061250894308	0.987318932569
7	516	1176.031182831219	17.036239327912
7	519	1178.756986378098	18.887015161009
7	522	1181.435132069092	11.164539212865
7	523	1183.531122451007	10.64497653412
7	529	1206.136716816782	25.956456282897
7	530	1207.328054218521	19.941205207104
7	531	1208.384186552745	19.387463495721
7	534	1216.972183814413	3.03407556228
7	537	1225.793036395809	4.89826785878
7	542	1248.537524473518	1.639087726548
7	543	1253.327872079632	6.051546356047
7	546	1267.1285680141	1.072345223283
7	554	1286.134658439088	7.146460495482
7	557	1295.020663102689	10.57167535922
7	558	1295.860251240504	1.724085208531
7	561	1305.442814983462	3.480232434672
7	566	1322.138425784552	5.133685101133
7	567	1326.041939218691	4.952466906615
7	570	1329.131491166083	1.891087268942
7	576	1340.804875321455	1.492945436775
7	579	1348.120106768227	4.030954609241
7	589	1368.508892478714	14.182305482314
7	590	1370.361044535994	12.770357150071
7	593	1371.841351666935	9.439711349549
7	594	1377.828545089175	7.279882250082
7	597	1393.810165244312	0.332330728087
7	600	1397.990649632402	3.633639778519
7	603	1408.805787764488	9.338190422674
7	606	1409.996498600249	0.551678617964
7	612	1417.701323997489	3.784854891062
7	618	1453.116990992681	10.274091225979
7	627	1472.353505107074	12.108118245396
7	638	1491.539733474361	9.108456188363
7	644	1509.418036820255	10.067912324873
7	645	1510.780958011229	6.773279753881
7	648	1517.41125997756	0.807980526927
7	653	1522.269809050423	1.439120317214
7	654	1525.880639137528	3.983199021257
7	657	1534.167298757502	0.126241764246
7	669	1572.398717609352	1.238480891575
7	674	1578.443513952025	3.016702817893
7	675	1579.805838843236	2.191516902141
7	678	1593.274002019749	4.89165290829
7	681	1605.075182698394	0.090732488434
7	686	1614.936375351476	6.828206289406
7	687	1616.604221824633	4.992636240251
7	690	1621.620437520528	0.649857724341
7	698	1635.447738071082	6.431496901486
7	723	1681.895182125594	40.694453142398
7	724	1685.840549265073	40.732955816867
7	725	1686.423960856078	29.425504610224
7	726	1687.858800991522	20.473488745377
7	727	1689.261721537016	18.320056150473
7	728	1690.010620716102	12.669864697706
7	732	1692.869791212524	1.648572279728
7	749	1720.884303100237	22.384870646209
7	750	1723.420716826763	20.88284107555
7	751	1724.710452057964	14.687252425172
7	752	1726.857469260783	15.025790274514
7	753	1731.561458662912	15.767188587745
7	762	1753.298666374429	12.895856078982
7	765	1755.510421511904	1.138569668919
7	768	1759.934943602967	2.221991488721
7	807	1876.449372396494	72.885740818101
7	817	1886.722188317809	72.776569984303
7	818	1887.571569424706	72.381630282465
7	819	1890.652313088852	60.651435299099
7	820	1891.353042891631	47.265800332357
7	821	1892.180666514224	26.828201037489
7	822	1893.609941557737	10.530498422239
7	823	1898.688895645865	15.079474370501
7	827	1909.460506908834	23.12139406576
7	828	1910.265973122004	4.093749337035
7	833	1928.42882635614	3.105923281903
7	839	1956.489286528012	26.980111936984
7	840	1957.222439299827	10.769921053798
7	849	1980.70759418135	1.025525800643
7	855	1989.859182953345	6.08499867938
7	858	1991.229763553998	0.217613421732
7	861	1998.300172786728	2.336838126278
7	870	2026.355449340812	4.566609478584
7	873	2029.52790293284	1.562292680047
7	876	2036.777447920183	0.107201729047
7	882	2045.677528656261	5.427893135103
7	897	2080.381948427579	26.93055650394
7	917	2124.316086616419	53.356074837206
7	918	2127.566805574951	46.917427138782
7	922	2137.033563172133	42.478414024893
7	923	2141.565690691397	42.142631033428
7	924	2141.98247006142	32.456168242356
7	925	2142.12761257009	28.226396177801
7	926	2143.157486166234	26.397333507526
7	927	2143.593193118357	12.943491838276
7	935	2165.331192799216	12.593870357616
7	936	2165.563654631558	7.238796457912
7	939	2170.087572427443	0.054637311746
7	959	2202.230193776745	26.336333021385
7	960	2203.054460973675	20.013498076349
7	963	2206.792493449091	12.27919191059
7	966	2213.688096484716	16.506909723342
7	967	2214.178388220176	12.315966533418
7	968	2215.230562100832	9.240845018474
7	971	2218.092256264974	7.457058228913
7	972	2218.863343425872	3.257347507355
7	975	2221.474123917697	0.49056176686
7	982	2243.459666094543	6.312861255656
7	983	2245.31786340806	2.645125191766
7	984	2246.911621124518	3.700428185839
7	996	2266.381725205526	11.105545944655
7	997	2271.946190289234	14.56556670918
7	998	2273.945744151096	10.08734729504
7	1003	2280.442130769153	14.730059054529
7	1006	2283.97426735984	5.443621508646
7	1007	2284.712292266132	5.338957224743
7	1008	2286.57644071944	4.277352456723
7	1011	2291.412665883729	2.854722631751
7	1020	2328.897204900255	7.458572761312
7	1027	2334.497061823697	1.753978476798
7	1028	2338.453725876855	4.287385904524
7	1029	2342.651082535788	8.409248326608
7	1032	2350.68826476356	0.006308138068
7	1035	2363.867314055458	1.834696093303
7	1054	2413.22344439487	46.805847396479
7	1055	2413.335353695848	30.722002888982
7	1056	2415.928911857147	32.431201159165
7	1069	2452.132152242262	32.067358373473
7	1070	2454.088199786065	21.658514293719
7	1071	2455.35759193054	3.253953984197
8	140	381.910508285344	1
8	142	382.12216177113	2
8	144	385.458599038288	3
8	152	401.932998597983	1
8	154	404.293112790177	2
8	169	437.903864460807	2
8	171	439.767450543379	3
8	180	467.105152708054	3
8	199	507.778352471988	1
8	201	511.970843354015	2
8	203	523.641403692857	3
8	205	523.764599663184	4
8	207	526.525142992614	5
8	214	556.097184880185	3
8	216	564.45633319999	4
8	236	627.778284939314	1
8	247	638.222539276565	1
8	261	662.431607004495	1
8	263	662.436923341715	2
8	267	669.501349085891	1
8	291	712.041199677948	1
8	308	741.260931673624	1
8	329	799.551242766425	1
8	340	822.860284331871	1
8	371	877.543810870645	1
8	378	887.337605029767	1
8	381	888.487505027603	1
8	393	907.588439234243	1
8	397	909.614822051967	1
8	405	920.771602651114	2
8	424	964.27347470108	1
8	434	981.828805080065	1
8	442	991.993690733228	1
8	460	1016.249624094874	1
8	482	1077.928705248913	1
8	484	1080.302015026252	2
8	496	1107.584578418003	1
8	506	1158.933809594803	1
8	527	1188.996723057024	1
8	550	1278.988197943606	1
8	572	1331.699076905576	1
8	583	1354.3265869964	1
8	608	1410.690821772367	1
8	614	1442.401810080516	1
8	620	1458.263650676793	1
8	622	1458.853799594753	2
8	629	1474.67750170795	1
8	632	1478.591938273987	1
8	640	1499.350124495382	1
8	659	1540.927398831871	1
8	662	1543.83572861612	1
8	667	1571.160236717777	1
8	692	1627.011532211296	1
8	700	1641.200728983196	1
8	704	1649.139788179428	2
8	706	1651.886764969815	3
8	718	1677.97722850772	2
8	730	1691.221218932796	1
8	734	1695.469903337416	1
8	740	1709.973952942435	2
8	755	1734.173751778239	1
8	759	1741.631715878164	2
8	770	1795.251777029999	1
8	772	1796.186514870931	2
8	778	1810.233699922377	3
8	784	1821.747407345427	4
8	792	1852.560548192826	3
8	795	1854.576513861016	3
8	801	1868.175832967458	2
8	803	1869.101112407136	3
8	809	1883.079443135498	1
8	825	1906.172223784969	1
8	835	1929.509174591028	1
8	842	1967.343964080476	1
8	847	1979.682068380707	1
8	851	1982.357432335051	1
8	863	2003.786686497585	1
8	866	2006.5504223079	1
8	880	2040.249635521158	1
8	884	2053.063007369747	1
8	894	2076.247451695774	2
8	899	2080.649378436169	1
8	901	2086.329528345313	2
8	915	2116.760152658708	1
8	920	2130.649701280081	1
8	929	2149.349687489204	1
8	941	2171.319197265902	1
8	948	2183.040962897326	1
8	950	2183.478361293144	2
8	992	2263.858396856056	1
8	1013	2294.457992447564	1
8	1016	2319.143568197383	1
8	1037	2364.097716176362	1
8	1041	2369.034416376807	2
8	1044	2379.332298766566	2
8	1049	2382.99845866801	2
8	1060	2420.064793868789	1
8	1064	2435.541766541786	2
8	1073	2461.309526535168	1
8	1076	2468.83020005602	1
8	1079	2471.034788360199	1
9	140	381.910508285344	0
9	145	386.362189612522	4.240027841392
9	146	386.381932980148	0.92333394186
9	152	401.932998597983	0
9	161	419.168538650807	14.87542586063
9	178	465.290965527068	27.387101066261
9	187	482.589902254182	42.822451710803
9	188	482.590567031916	15.485414323862
9	199	507.778352471988	0
9	210	537.600924936735	25.63008158272
9	211	544.725555328171	21.084151635314
9	212	549.071260894684	25.3066612315
9	221	579.761732426893	53.236589434279
9	222	588.916237505198	32.819052625013
9	223	603.835722639057	39.379389439067
9	236	627.778284939314	0
9	247	638.222539276565	0
9	261	662.431607004495	0
9	264	665.225167654328	2.788244312613
9	267	669.501349085891	0
9	291	712.041199677948	0
9	308	741.260931673624	0
9	329	799.551242766425	0
9	340	822.860284331871	0
9	371	877.543810870645	0
9	378	887.337605029767	0
9	381	888.487505027603	0
9	393	907.588439234243	0
9	397	909.614822051967	0
9	406	923.965616178621	3.194013527507
9	424	964.27347470108	0
9	434	981.828805080065	0
9	442	991.993690733228	0
9	460	1016.249624094874	0
9	482	1077.928705248913	0
9	487	1094.545987876667	14.243972850415
9	496	1107.584578418003	0
9	506	1158.933809594803	0
9	527	1188.996723057024	0
9	550	1278.988197943606	0
9	572	1331.699076905576	0
9	583	1354.3265869964	0
9	608	1410.690821772367	0
9	614	1442.401810080516	0
9	620	1458.263650676793	0
9	625	1469.928462797804	11.074663203051
9	629	1474.67750170795	0
9	632	1478.591938273987	0
9	640	1499.350124495382	0
9	659	1540.927398831871	0
9	662	1543.83572861612	0
9	667	1571.160236717777	0
9	692	1627.011532211296	0
9	700	1641.200728983196	0
9	707	1655.433303663554	6.293515484126
9	714	1675.681945463664	23.795180493849
9	721	1680.67667197417	2.69944346645
9	730	1691.221218932796	0
9	734	1695.469903337416	0
9	743	1710.100445327078	0.126492384643
9	755	1734.173751778239	0
9	760	1743.936187956962	2.304472078798
9	770	1795.251777029999	0
9	785	1822.760976858088	26.574461987157
9	788	1834.645057679973	24.411357757596
9	793	1853.411080587207	31.66367324178
9	796	1861.944396424831	9.383848232005
9	797	1864.715998210355	10.139484349339
9	804	1871.242255646915	3.066422679457
9	805	1872.518315366002	3.417202958866
9	809	1883.079443135498	0
9	825	1906.172223784969	0
9	835	1929.509174591028	0
9	842	1967.343964080476	0
9	847	1979.682068380707	0
9	851	1982.357432335051	0
9	863	2003.786686497585	0
9	866	2006.5504223079	0
9	880	2040.249635521158	0
9	884	2053.063007369747	0
9	895	2078.004371044792	1.756919349018
9	899	2080.649378436169	0
9	906	2099.199271982462	12.869743637149
9	915	2116.760152658708	0
9	920	2130.649701280081	0
9	929	2149.349687489204	0
9	941	2171.319197265902	0
9	948	2183.040962897326	0
9	953	2197.10984767983	13.631486386686
9	992	2263.858396856056	0
9	1013	2294.457992447564	0
9	1016	2319.143568197383	0
9	1037	2364.097716176362	0
9	1042	2375.897135391199	6.862719014392
9	1045	2380.912459973833	1.580161207267
9	1052	2392.976589570463	9.978130902453
9	1060	2420.064793868789	0
9	1065	2448.384292290556	12.84252574877
9	1073	2461.309526535168	0
9	1076	2468.83020005602	0
9	1079	2471.034788360199	0
10	199	507.778352471988	5
10	236	627.778284939314	6
10	247	638.222539276565	7
10	261	662.431607004495	8
10	267	669.501349085891	9
10	291	712.041199677948	10
10	340	822.860284331871	11
10	378	887.337605029767	12
10	381	888.487505027603	13
10	393	907.588439234243	14
10	397	909.614822051967	15
10	424	964.27347470108	16
10	434	981.828805080065	17
10	442	991.993690733228	18
10	460	1016.249624094874	19
10	496	1107.584578418003	20
10	527	1188.996723057024	21
10	550	1278.988197943606	22
10	583	1354.3265869964	23
10	640	1499.350124495382	24
10	667	1571.160236717777	25
10	700	1641.200728983196	26
10	730	1691.221218932796	27
10	809	1883.079443135498	28
10	825	1906.172223784969	29
10	835	1929.509174591028	30
10	847	1979.682068380707	31
10	880	2040.249635521158	32
10	899	2080.649378436169	33
10	915	2116.760152658708	34
10	920	2130.649701280081	35
10	948	2183.040962897326	36
10	992	2263.858396856056	37
10	1060	2420.064793868789	38
11	1081	2500	0.096
12	1081	2500	0.048

