file 65761 1678560137                                           
version 2
run experiments_hard_game_mode1-827-20230311-19:42:17-8964
attr configname experiments_hard_game_mode1
attr datetime 20230311-19:42:17
attr experiment experiments_hard_game_mode1
attr inifile omnetpp.ini
attr iterationvars "$0=8.5, $1=6, $2=100"
attr iterationvarsf 8.5,6,100-
attr measurement "$0=8.5, $1=6, $2=100"
attr network Network
attr processid 8964
attr repetition 17
attr replication #17
attr resultdir results
attr runnumber 827
attr seedset 17
param *.boss.arrival_mean 20
param *.boss.service_mean 8.5
param *.minion.arrival_mean 10
param *.minion.service_mean 6
param *.player.recover_rate_x 100
param **.minion.arrival_distribution 0
param **.minion.service_distribution 0
param **.boss.arrival_distribution 0
param **.boss.service_distribution 0

vector 0 Network.player boss_jobs_number_stat:vector ETV
attr source signal_boss_jobs_number
vector 1 Network.player boss_jobs_queue_number_stat:vector ETV
attr source signal_boss_jobs_queue_number
vector 2 Network.player minion_jobs_number_stat:vector ETV
attr source signal_minion_jobs_number
vector 3 Network.player minion_jobs_queue_number_stat:vector ETV
attr source signal_minion_jobs_queue_number
vector 4 Network.player boss_defeated_stat:vector ETV
attr source signal_boss_defeated
vector 5 Network.player boss_response_time_stat:vector ETV
attr source signal_boss_response_time
vector 6 Network.player boss_waiting_time_stat:vector ETV
attr source signal_boss_waiting_time
vector 7 Network.player minion_waiting_time_stat:vector ETV
attr source signal_minion_waiting_time
vector 8 Network.player minion_recovered_stat:vector ETV
attr source signal_minion_recovered
vector 9 Network.player minion_defeated_stat:vector ETV
attr source signal_minion_defeated
vector 10 Network.player minion_response_time_stat:vector ETV
attr source signal_minion_response_time
vector 11 Network.player minion_throughput:vector ETV
attr source signal_minion_throughput
vector 12 Network.player boss_throughput:vector ETV
attr source signal_boss_throughput
0	2019 3033 151 1144 350.171511211393 2489.726720628059 118 1 6 234 668
1	5052 6162 151 1145 350.171511211393 2493.826867039007 240 0 5 238 650
2	11214 5797 155 1142 361.587814466951 2488.977018924844 219 1 25 2967 46877
3	17011 11106 155 1146 361.587814466951 2498.645829001185 420 0 24 5235 78055
4	28117 3290 156 1145 364.10005014063 2493.826867039007 122 17 138 9455 884073
5	31407 4771 156 1145 364.10005014063 2493.826867039007 122 0.117913366225 59.992199468678 1945.7562277267 54256.382297692
6	36178 3917 156 1144 364.10005014063 2489.726720628059 121 0 57.890082818549 943.87716745138 24443.915434829
7	40095 10345 220 1146 481.551949873461 2498.645829001185 262 0 229.90837690993 25528.572869449 3116488.0491665
8	50440 1608 222 1144 487.076176212721 2489.726720628059 60 5 64 2070 89410
9	52048 5505 238 1146 537.056921331235 2498.645829001185 201 28 228 25728 3969884
10	57553 8167 238 1146 537.056921331235 2498.645829001185 201 0.225441900262 239.09177447562 20474.067321462 2529580.8080633
11	65720 20 1147 1147 2500 2500 1 0.0912 0.0912 0.0912 0.00831744
12	65740 20 1147 1147 2500 2500 1 0.0552 0.0552 0.0552 0.00304704

