version 2
run experiments_hard_game_mode1-1038-20230311-19:43:03-10090
attr configname experiments_hard_game_mode1
attr datetime 20230311-19:43:03
attr experiment experiments_hard_game_mode1
attr inifile omnetpp.ini
attr iterationvars "$0=9, $1=5, $2=0"
attr iterationvarsf 9,5,0-
attr measurement "$0=9, $1=5, $2=0"
attr network Network
attr processid 10090
attr repetition 18
attr replication #18
attr resultdir results
attr runnumber 1038
attr seedset 18
param *.boss.arrival_mean 20
param *.boss.service_mean 9
param *.minion.arrival_mean 10
param *.minion.service_mean 5
param *.player.recover_rate_x 0
param **.minion.arrival_distribution 0
param **.minion.service_distribution 0
param **.boss.arrival_distribution 0
param **.boss.service_distribution 0

vector 0 Network.player boss_jobs_number_stat:vector ETV
attr source signal_boss_jobs_number
vector 1 Network.player boss_jobs_queue_number_stat:vector ETV
attr source signal_boss_jobs_queue_number
vector 2 Network.player minion_recovered_stat:vector ETV
attr source signal_minion_recovered
vector 3 Network.player boss_waiting_time_stat:vector ETV
attr source signal_boss_waiting_time
vector 4 Network.player minion_jobs_number_stat:vector ETV
attr source signal_minion_jobs_number
vector 5 Network.player minion_jobs_queue_number_stat:vector ETV
attr source signal_minion_jobs_queue_number
vector 6 Network.player boss_defeated_stat:vector ETV
attr source signal_boss_defeated
vector 7 Network.player boss_response_time_stat:vector ETV
attr source signal_boss_response_time
vector 8 Network.player minion_waiting_time_stat:vector ETV
attr source signal_minion_waiting_time
vector 9 Network.player minion_defeated_stat:vector ETV
attr source signal_minion_defeated
vector 10 Network.player minion_response_time_stat:vector ETV
attr source signal_minion_response_time
vector 11 Network.player minion_throughput:vector ETV
attr source signal_minion_throughput
vector 12 Network.player boss_throughput:vector ETV
attr source signal_boss_throughput
0	139	352.65760743913	1
0	144	359.293699558628	1
0	147	361.689670555923	1
0	173	423.510220605586	1
0	190	464.310329824607	1
0	205	490.311357624162	1
0	213	503.252965294132	1
0	217	507.787385408353	2
0	221	509.460907223688	3
0	228	515.59083765368	3
0	230	518.812306809382	4
0	237	528.789657893763	4
0	239	536.621619676878	5
0	243	539.876371230947	6
0	245	540.011977590143	7
0	259	576.409290106954	4
0	273	601.646983798841	1
0	286	620.5673933378	1
0	288	621.913209437982	2
0	299	646.35204339536	1
0	303	657.379640067769	1
0	340	733.174320689637	1
0	351	765.857088538859	1
0	383	831.36383180455	1
0	385	831.962629369746	2
0	392	850.840600045191	2
0	398	865.76178541671	3
0	410	901.223484359462	1
0	431	932.184322298713	1
0	434	937.929585530627	1
0	453	971.342649776712	1
0	464	983.072545625181	1
0	467	991.427067730116	1
0	478	1015.605515033844	1
0	486	1025.81114179477	1
0	514	1109.798972014767	1
0	528	1149.457133924026	1
0	550	1196.526696454582	1
0	552	1196.569454728748	2
0	555	1210.285144495441	2
0	557	1213.98675580795	3
0	564	1231.630065478987	3
0	568	1241.308179746611	4
0	577	1263.189796643971	4
0	590	1281.513172219529	2
0	592	1292.096612948606	3
0	599	1294.89263798076	3
0	601	1295.723033753267	4
0	604	1296.428746356222	4
0	606	1297.941004178685	5
0	617	1322.14802534089	3
0	619	1323.120498050406	4
0	630	1338.292960251381	4
0	645	1384.918681491055	4
0	654	1412.519964056525	1
0	663	1429.644800299848	1
0	665	1432.943823798201	2
0	673	1454.825693868242	3
0	675	1456.237201907714	4
0	679	1463.501273298819	5
0	687	1476.895200702336	4
0	691	1478.65248867971	5
0	698	1493.942844496456	5
0	704	1513.068384497825	4
0	710	1530.316331484607	5
0	754	1626.275814319071	1
0	766	1648.090529582688	1
0	768	1648.406833864499	2
0	772	1660.09057612624	3
0	778	1673.738745992098	2
0	780	1676.701949053993	3
0	782	1677.810560318481	4
0	784	1682.363952277894	5
0	791	1701.700788650236	3
0	794	1706.668184001908	3
0	807	1748.582026119455	1
0	826	1779.095334613409	1
0	838	1801.263659048677	1
0	851	1825.874136888878	1
0	856	1830.294960282079	1
0	864	1845.141402175686	1
0	871	1885.574877957284	1
0	911	1962.87460879635	1
0	925	2024.60862566707	1
0	927	2030.819784934859	2
0	937	2055.285658945094	1
0	949	2081.351597619549	1
0	964	2096.782173260599	1
0	969	2106.087901989699	1
0	996	2154.144294006872	1
0	1006	2167.364661838233	1
0	1011	2176.992351096176	1
0	1025	2206.891406240519	1
0	1046	2247.512079356014	1
0	1066	2306.924212961346	1
0	1076	2348.186366084548	1
0	1085	2370.15674638938	1
0	1108	2425.111267728735	1
0	1119	2451.626198357569	1
0	1127	2469.476608553846	1
0	1133	2490.238705866935	1
0	1135	2494.252370332495	2
0	1137	2494.636027121347	3
1	139	352.65760743913	0
1	142	356.875088781009	0
1	144	359.293699558628	0
1	145	359.797084616162	0
1	147	361.689670555923	0
1	152	386.095777747027	0
1	173	423.510220605586	0
1	176	430.243807062564	0
1	190	464.310329824607	0
1	191	473.711057729316	0
1	205	490.311357624162	0
1	208	498.857270590549	0
1	213	503.252965294132	0
1	217	507.787385408353	1
1	221	509.460907223688	2
1	222	513.279912221692	2
1	228	515.59083765368	2
1	230	518.812306809382	3
1	231	519.853083529977	3
1	237	528.789657893763	3
1	239	536.621619676878	4
1	243	539.876371230947	5
1	245	540.011977590143	6
1	248	543.991047772184	6
1	251	556.053842682758	5
1	254	566.031481432337	4
1	257	574.549927188769	3
1	259	576.409290106954	3
1	260	576.927076334639	3
1	261	583.713601807728	2
1	264	586.373026458166	1
1	265	590.135739702053	0
1	273	601.646983798841	0
1	276	603.940919093639	0
1	286	620.5673933378	0
1	288	621.913209437982	1
1	289	625.059754769759	1
1	290	625.817046077047	0
1	299	646.35204339536	0
1	300	654.897410522005	0
1	303	657.379640067769	0
1	306	659.209711066284	0
1	340	733.174320689637	0
1	341	738.832186912168	0
1	351	765.857088538859	0
1	354	777.474289444962	0
1	383	831.36383180455	0
1	385	831.962629369746	1
1	386	832.542674525353	1
1	392	850.840600045191	1
1	398	865.76178541671	2
1	403	894.10889808124	2
1	406	898.214775356803	1
1	407	899.605418246923	0
1	410	901.223484359462	0
1	413	909.136043858879	0
1	431	932.184322298713	0
1	432	934.428803390401	0
1	434	937.929585530627	0
1	435	939.747907689879	0
1	453	971.342649776712	0
1	456	974.279868989657	0
1	464	983.072545625181	0
1	465	990.302828074159	0
1	467	991.427067730116	0
1	472	1003.798414826747	0
1	478	1015.605515033844	0
1	479	1017.237362152313	0
1	486	1025.81114179477	0
1	493	1061.238898779468	0
1	514	1109.798972014767	0
1	519	1116.054330741423	0
1	528	1149.457133924026	0
1	535	1163.002636097197	0
1	550	1196.526696454582	0
1	552	1196.569454728748	1
1	553	1204.7588924689	1
1	555	1210.285144495441	1
1	557	1213.98675580795	2
1	560	1215.450099358919	2
1	564	1231.630065478987	2
1	568	1241.308179746611	3
1	569	1242.959899229858	3
1	577	1263.189796643971	3
1	582	1269.647589553547	3
1	583	1274.342370801066	2
1	584	1275.071780222459	1
1	590	1281.513172219529	1
1	592	1292.096612948606	2
1	595	1294.018831139775	2
1	599	1294.89263798076	2
1	601	1295.723033753267	3
1	602	1296.141075752671	3
1	604	1296.428746356222	3
1	606	1297.941004178685	4
1	607	1306.282967445584	4
1	614	1316.13846398165	3
1	615	1320.675847446719	2
1	617	1322.14802534089	2
1	619	1323.120498050406	3
1	626	1335.132721871621	3
1	630	1338.292960251381	3
1	643	1379.496707060197	3
1	645	1384.918681491055	3
1	646	1388.650209844099	3
1	647	1392.178013688424	2
1	648	1392.48280794117	1
1	651	1404.42397775392	0
1	654	1412.519964056525	0
1	655	1415.54164666074	0
1	663	1429.644800299848	0
1	665	1432.943823798201	1
1	673	1454.825693868242	2
1	675	1456.237201907714	3
1	679	1463.501273298819	4
1	682	1467.218257135589	4
1	683	1468.019589087647	3
1	687	1476.895200702336	3
1	691	1478.65248867971	4
1	692	1483.348773888789	4
1	698	1493.942844496456	4
1	699	1502.083232709901	4
1	700	1510.695364253797	3
1	704	1513.068384497825	3
1	710	1530.316331484607	4
1	715	1538.54961356313	4
1	716	1543.872103949603	3
1	719	1555.60334737913	2
1	724	1566.158030264505	1
1	725	1566.388351020564	0
1	754	1626.275814319071	0
1	757	1634.772840267248	0
1	766	1648.090529582688	0
1	768	1648.406833864499	1
1	772	1660.09057612624	2
1	773	1660.771463059054	2
1	774	1663.138172580759	1
1	778	1673.738745992098	1
1	780	1676.701949053993	2
1	782	1677.810560318481	3
1	784	1682.363952277894	4
1	785	1683.152679214247	4
1	786	1686.277577366634	3
1	787	1689.051114351988	2
1	791	1701.700788650236	2
1	792	1703.944758970058	2
1	794	1706.668184001908	2
1	797	1728.055585139782	2
1	800	1735.904659876616	1
1	801	1740.616389176123	0
1	807	1748.582026119455	0
1	808	1754.572807743754	0
1	826	1779.095334613409	0
1	831	1783.923222276291	0
1	838	1801.263659048677	0
1	839	1805.043030249603	0
1	851	1825.874136888878	0
1	852	1827.859069424741	0
1	856	1830.294960282079	0
1	859	1837.183186258245	0
1	864	1845.141402175686	0
1	869	1883.343747700224	0
1	871	1885.574877957284	0
1	872	1885.697503149244	0
1	911	1962.87460879635	0
1	912	1966.257257939296	0
1	925	2024.60862566707	0
1	927	2030.819784934859	1
1	930	2037.21655756231	1
1	931	2038.991931806781	0
1	937	2055.285658945094	0
1	940	2063.733140584268	0
1	949	2081.351597619549	0
1	950	2081.455651643157	0
1	964	2096.782173260599	0
1	967	2103.806231545962	0
1	969	2106.087901989699	0
1	972	2120.647218457236	0
1	996	2154.144294006872	0
1	999	2157.814940341282	0
1	1006	2167.364661838233	0
1	1009	2173.67308339326	0
1	1011	2176.992351096176	0
1	1014	2181.918993669782	0
1	1025	2206.891406240519	0
1	1028	2212.573587692257	0
1	1046	2247.512079356014	0
1	1047	2253.217935241176	0
1	1066	2306.924212961346	0
1	1067	2320.528847926978	0
1	1076	2348.186366084548	0
1	1077	2351.123527566221	0
1	1085	2370.15674638938	0
1	1088	2373.157086212062	0
1	1108	2425.111267728735	0
1	1111	2435.122385349473	0
1	1119	2451.626198357569	0
1	1120	2452.658478401656	0
1	1127	2469.476608553846	0
1	1128	2480.647967162267	0
1	1133	2490.238705866935	0
1	1135	2494.252370332495	1
1	1137	2494.636027121347	2
2	139	352.65760743913	5
2	144	359.293699558628	6
2	147	361.689670555923	7
2	173	423.510220605586	8
2	190	464.310329824607	9
2	205	490.311357624162	10
2	213	503.252965294132	11
2	273	601.646983798841	12
2	286	620.5673933378	13
2	299	646.35204339536	14
2	303	657.379640067769	15
2	340	733.174320689637	16
2	351	765.857088538859	17
2	410	901.223484359462	18
2	431	932.184322298713	19
2	434	937.929585530627	20
2	453	971.342649776712	21
2	464	983.072545625181	22
2	467	991.427067730116	23
2	478	1015.605515033844	24
2	486	1025.81114179477	25
2	514	1109.798972014767	26
2	528	1149.457133924026	27
2	550	1196.526696454582	28
2	654	1412.519964056525	29
2	663	1429.644800299848	30
2	754	1626.275814319071	31
2	766	1648.090529582688	32
2	807	1748.582026119455	33
2	826	1779.095334613409	34
2	838	1801.263659048677	35
2	851	1825.874136888878	36
2	856	1830.294960282079	37
2	864	1845.141402175686	38
2	871	1885.574877957284	39
2	911	1962.87460879635	40
2	925	2024.60862566707	41
2	937	2055.285658945094	42
2	949	2081.351597619549	43
2	964	2096.782173260599	44
2	969	2106.087901989699	45
2	996	2154.144294006872	46
2	1006	2167.364661838233	47
2	1011	2176.992351096176	48
2	1025	2206.891406240519	49
2	1046	2247.512079356014	50
2	1066	2306.924212961346	51
2	1108	2425.111267728735	52
2	1119	2451.626198357569	53
3	139	352.65760743913	0
3	144	359.293699558628	0
3	147	361.689670555923	0
3	173	423.510220605586	0
3	190	464.310329824607	0
3	205	490.311357624162	0
3	213	503.252965294132	0
3	222	513.279912221692	5.492526813339
3	231	519.853083529977	10.392176306289
3	248	543.991047772184	28.400210118504
3	251	556.053842682758	37.241535873376
3	254	566.031481432337	37.241823538574
3	257	574.549927188769	37.928307511891
3	260	576.927076334639	37.050705103692
3	261	583.713601807728	43.701624217585
3	264	586.373026458166	9.963736351212
3	273	601.646983798841	0
3	286	620.5673933378	0
3	289	625.059754769759	3.146545331777
3	299	646.35204339536	0
3	303	657.379640067769	0
3	340	733.174320689637	0
3	351	765.857088538859	0
3	383	831.36383180455	0
3	386	832.542674525353	0.580045155607
3	403	894.10889808124	43.268298036049
3	406	898.214775356803	32.452989940093
3	410	901.223484359462	0
3	431	932.184322298713	0
3	434	937.929585530627	0
3	453	971.342649776712	0
3	464	983.072545625181	0
3	467	991.427067730116	0
3	478	1015.605515033844	0
3	486	1025.81114179477	0
3	514	1109.798972014767	0
3	528	1149.457133924026	0
3	550	1196.526696454582	0
3	553	1204.7588924689	8.189437740152
3	560	1215.450099358919	5.164954863478
3	569	1242.959899229858	28.973143421908
3	582	1269.647589553547	38.01752407456
3	583	1274.342370801066	33.034191054455
3	584	1275.071780222459	11.881983578488
3	595	1294.018831139775	12.505658920246
3	602	1296.141075752671	4.044462804065
3	607	1306.282967445584	11.390329464824
3	614	1316.13846398165	20.415430228383
3	615	1320.675847446719	24.247101090497
3	626	1335.132721871621	37.191717692936
3	643	1379.496707060197	57.348681719307
3	646	1388.650209844099	65.529711793693
3	647	1392.178013688424	53.885053437043
3	648	1392.48280794117	7.564126450115
3	654	1412.519964056525	0
3	663	1429.644800299848	0
3	682	1467.218257135589	34.274433337388
3	683	1468.019589087647	13.193895219405
3	692	1483.348773888789	27.111571981075
3	699	1502.083232709901	38.581959411082
3	700	1510.695364253797	33.800163551461
3	715	1538.54961356313	59.89712488342
3	716	1543.872103949603	49.929259453147
3	719	1555.60334737913	42.534962881305
3	724	1566.158030264505	35.841698779898
3	754	1626.275814319071	0
3	766	1648.090529582688	0
3	773	1660.771463059054	12.364629194555
3	774	1663.138172580759	3.047596454519
3	785	1683.152679214247	9.413933222149
3	786	1686.277577366634	9.575628312641
3	787	1689.051114351988	11.240554033507
3	792	1703.944758970058	21.580806692164
3	797	1728.055585139782	26.354796489546
3	800	1735.904659876616	29.236475874708
3	807	1748.582026119455	0
3	826	1779.095334613409	0
3	838	1801.263659048677	0
3	851	1825.874136888878	0
3	856	1830.294960282079	0
3	864	1845.141402175686	0
3	871	1885.574877957284	0
3	911	1962.87460879635	0
3	925	2024.60862566707	0
3	930	2037.21655756231	6.396772627451
3	937	2055.285658945094	0
3	949	2081.351597619549	0
3	964	2096.782173260599	0
3	969	2106.087901989699	0
3	996	2154.144294006872	0
3	1006	2167.364661838233	0
3	1011	2176.992351096176	0
3	1025	2206.891406240519	0
3	1046	2247.512079356014	0
3	1066	2306.924212961346	0
3	1076	2348.186366084548	0
3	1085	2370.15674638938	0
3	1108	2425.111267728735	0
3	1119	2451.626198357569	0
3	1127	2469.476608553846	0
3	1133	2490.238705866935	0
4	141	355.05946736505	8
4	149	370.780850023652	9
4	151	386.01824043156	10
4	156	397.684376195028	9
4	162	407.278190585379	6
4	164	407.91544005567	7
4	169	417.79778371846	5
4	171	419.657785982005	6
4	175	424.276063284641	7
4	182	445.699346670034	4
4	184	447.543103794211	5
4	188	460.516704985146	4
4	193	474.19422053615	5
4	198	481.095683169202	3
4	200	486.127831312219	4
4	207	490.485140357307	2
4	211	501.288951545055	2
4	215	505.002956299096	3
4	219	508.839663443019	4
4	224	513.738271046524	5
4	226	514.458292495847	6
4	233	525.229499277953	7
4	235	525.730885217399	8
4	241	537.391873471516	9
4	247	543.219500807899	10
4	250	548.535664666951	11
4	253	560.623706455632	12
4	256	568.939460714816	13
4	263	584.468749162211	14
4	270	599.791279867924	12
4	275	602.50064407349	12
4	279	605.718975695784	12
4	281	616.248476632966	13
4	284	619.18447714698	13
4	293	639.624648878793	13
4	295	641.806301898067	14
4	297	644.169706261645	15
4	305	658.230766056464	15
4	308	659.622136286692	16
4	311	665.804613480816	16
4	316	682.178400840308	14
4	325	700.87674194091	8
4	327	701.285677243009	9
4	332	717.967404583469	7
4	335	722.446726874082	7
4	343	739.610347347772	5
4	348	750.885863105092	3
4	353	769.247020053464	3
4	358	786.806884617963	2
4	362	796.034432044079	1
4	365	801.770196139294	1
4	367	802.643361737249	2
4	369	803.466342464771	3
4	374	821.989938605393	1
4	377	822.971999659924	1
4	379	825.692127493628	2
4	388	837.481048809211	1
4	390	837.528711359265	2
4	394	853.367451096851	3
4	396	864.80791871467	4
4	400	868.699468202168	5
4	402	892.215476562267	6
4	405	896.95419122637	7
4	412	908.783784786466	7
4	419	921.983408396422	4
4	421	923.077491675642	5
4	423	926.313872219769	6
4	426	928.366526091904	6
4	429	931.138786419577	6
4	441	951.775819964726	3
4	443	954.938401825785	4
4	446	960.15791517345	4
4	450	961.941637758824	3
4	455	973.955373969978	3
4	458	974.438970779056	4
4	460	976.208487875792	5
4	469	994.275476802733	4
4	471	998.967850855492	5
4	482	1021.422423220967	1
4	484	1025.61861987627	2
4	488	1034.732109192486	3
4	490	1038.782605635946	4
4	492	1043.159900290471	5
4	495	1064.460086608793	6
4	497	1065.265403748812	7
4	504	1093.886914810011	3
4	506	1095.796884728062	4
4	509	1100.441881947243	4
4	511	1102.411024622887	5
4	516	1110.248847979331	5
4	518	1115.662036455481	6
4	522	1127.991864436109	6
4	530	1150.403494908239	3
4	532	1157.698185414769	4
4	534	1160.726672716901	5
4	540	1179.987550244786	3
4	544	1190.406193379886	2
4	546	1192.060187505366	3
4	559	1214.542207979603	2
4	562	1230.587609546064	3
4	566	1239.074375508244	4
4	571	1257.072305290322	5
4	573	1258.154433461831	6
4	575	1258.463916101759	7
4	579	1268.084140595639	8
4	581	1269.559912571375	9
4	586	1279.343956200392	10
4	588	1281.438934440836	11
4	594	1293.39115214529	12
4	597	1294.09831111435	13
4	609	1306.377084729727	14
4	611	1308.790255576544	15
4	613	1312.306243155178	16
4	621	1325.552127347144	17
4	623	1329.476278199886	18
4	625	1331.977731951153	19
4	628	1335.18914020612	20
4	632	1345.473493177319	21
4	634	1353.837422051082	22
4	636	1355.903882210185	23
4	638	1356.72186603143	24
4	640	1361.4761275669	25
4	642	1367.411236736202	26
4	650	1399.696189430956	27
4	658	1417.078528100198	26
4	660	1420.290782061921	27
4	667	1438.259455455825	27
4	669	1444.792201787484	28
4	671	1449.871614903672	29
4	677	1460.060926220485	30
4	681	1464.592283923065	31
4	685	1476.202711998038	32
4	689	1478.069516448218	33
4	694	1485.640289736562	34
4	696	1487.04370975529	35
4	702	1512.283199849435	36
4	706	1514.492181875754	37
4	708	1525.749158143837	38
4	712	1532.577202008577	39
4	714	1538.005236612714	40
4	718	1551.435827516609	41
4	721	1561.172855466474	42
4	723	1562.687982903677	43
4	731	1576.644626109085	40
4	733	1577.971520441329	41
4	735	1578.224976662378	42
4	737	1580.245655261544	43
4	740	1584.930820075336	43
4	745	1598.806839497624	41
4	748	1609.425566048026	41
4	751	1624.066798678646	41
4	756	1627.508938156312	41
4	763	1644.804533826314	38
4	770	1656.941765470321	38
4	776	1667.440571028196	39
4	789	1696.918963719115	40
4	796	1719.112607261954	41
4	799	1730.314919826024	42
4	803	1747.308895643383	43
4	805	1748.047353153453	44
4	810	1758.501417219979	45
4	812	1759.620362943869	46
4	814	1761.129210365635	47
4	816	1763.813737269511	48
4	819	1770.185782847709	48
4	824	1778.687776808715	46
4	828	1781.263490443706	47
4	830	1783.647511303199	48
4	834	1791.920343721064	48
4	843	1809.927053426328	45
4	849	1824.121326190655	42
4	854	1828.799173711548	43
4	858	1836.776512552437	44
4	866	1863.001971466587	42
4	868	1877.221133022566	43
4	874	1886.960024108163	44
4	876	1894.963428843149	45
4	878	1898.466332015644	46
4	881	1905.001104474535	46
4	885	1918.282732109325	45
4	892	1930.581653249306	41
4	895	1935.826789934323	41
4	899	1942.879357732617	40
4	905	1951.691519557266	37
4	907	1951.845844740435	38
4	909	1955.941756291918	39
4	916	1981.415149903608	38
4	920	1991.932271441198	37
4	929	2036.820239663622	35
4	939	2055.395634036457	32
4	942	2066.336908056797	33
4	944	2068.572735745909	34
4	946	2073.629401755589	35
4	957	2090.373689927269	30
4	959	2091.510531786147	31
4	962	2094.509784816636	31
4	966	2103.10888607586	32
4	971	2109.544519618569	33
4	974	2121.370922174609	34
4	976	2121.865282291356	35
4	985	2140.760935507749	29
4	990	2148.408502014201	27
4	992	2150.88545136286	28
4	994	2153.152701023359	29
4	998	2156.826185249186	30
4	1002	2158.885137271309	30
4	1008	2167.645034195839	29
4	1013	2180.820140528645	30
4	1020	2190.617248134383	27
4	1027	2208.631005398133	25
4	1030	2213.327587140208	26
4	1040	2229.887447686045	19
4	1052	2260.949383513056	13
4	1064	2299.27861517504	4
4	1072	2325.819276184382	2
4	1079	2354.169776292782	1
4	1082	2363.140470416597	1
4	1087	2372.742441384221	1
4	1090	2376.357023247149	2
4	1094	2387.929246926715	1
4	1096	2388.368622764903	2
4	1100	2399.324458944691	1
4	1103	2416.76104363929	1
4	1106	2420.683923370384	1
4	1110	2433.483901769592	2
4	1114	2436.064121627286	2
4	1117	2449.110225251561	2
4	1122	2452.839439866003	3
4	1130	2485.429838161415	1
5	141	355.05946736505	7
5	149	370.780850023652	8
5	151	386.01824043156	9
5	153	386.962855419228	9
5	154	394.216775065066	8
5	156	397.684376195028	8
5	157	398.658495602055	8
5	158	399.217829552148	7
5	159	402.49200075985	6
5	160	404.010865397212	5
5	162	407.278190585379	5
5	164	407.91544005567	6
5	165	413.3996771371	6
5	166	413.448500954249	5
5	167	416.385749578421	4
5	169	417.79778371846	4
5	171	419.657785982005	5
5	175	424.276063284641	6
5	177	431.513478655555	6
5	178	444.084667973069	5
5	179	445.049565616858	4
5	180	445.604072035837	3
5	182	445.699346670034	3
5	184	447.543103794211	4
5	185	453.539066890628	4
5	186	456.865681667339	3
5	188	460.516704985146	3
5	193	474.19422053615	4
5	194	474.340464024207	4
5	195	474.562456783642	3
5	196	476.009067266803	2
5	198	481.095683169202	2
5	200	486.127831312219	3
5	201	486.212036315062	3
5	202	486.385220515298	2
5	203	488.758650862503	1
5	207	490.485140357307	1
5	209	501.107208474448	1
5	211	501.288951545055	1
5	215	505.002956299096	2
5	219	508.839663443019	3
5	224	513.738271046524	4
5	226	514.458292495847	5
5	233	525.229499277953	6
5	235	525.730885217399	7
5	241	537.391873471516	8
5	247	543.219500807899	9
5	250	548.535664666951	10
5	253	560.623706455632	11
5	256	568.939460714816	12
5	263	584.468749162211	13
5	266	590.274932018492	13
5	267	592.273480018871	12
5	268	598.288889211727	11
5	270	599.791279867924	11
5	271	600.347540225961	11
5	275	602.50064407349	11
5	277	605.015159089243	11
5	279	605.718975695784	11
5	281	616.248476632966	12
5	282	619.08136636182	12
5	284	619.18447714698	12
5	291	628.027536646482	12
5	293	639.624648878793	12
5	295	641.806301898067	13
5	297	644.169706261645	14
5	301	655.297541433632	14
5	305	658.230766056464	14
5	308	659.622136286692	15
5	309	662.97972396019	15
5	311	665.804613480816	15
5	312	671.550536646975	15
5	313	673.828711938887	14
5	314	677.872417562499	13
5	316	682.178400840308	13
5	317	683.196734276565	13
5	318	688.740910095888	12
5	319	689.026045177707	11
5	320	690.578866285512	10
5	321	690.65736019751	9
5	322	696.49975881286	8
5	323	696.784294029168	7
5	325	700.87674194091	7
5	327	701.285677243009	8
5	328	701.848101499543	8
5	329	702.357418289516	7
5	330	714.9782799043	6
5	332	717.967404583469	6
5	333	720.633798116195	6
5	335	722.446726874082	6
5	336	725.250071139084	6
5	337	730.127855225197	5
5	338	730.775222416225	4
5	343	739.610347347772	4
5	344	740.029003986564	4
5	345	741.469986061089	3
5	346	745.010661458204	2
5	348	750.885863105092	2
5	349	752.553300953005	2
5	353	769.247020053464	2
5	355	780.711318884702	2
5	356	786.651450202102	1
5	358	786.806884617963	1
5	359	791.947644226102	1
5	360	792.372233048905	0
5	362	796.034432044079	0
5	363	799.868390479853	0
5	365	801.770196139294	0
5	367	802.643361737249	1
5	369	803.466342464771	2
5	370	803.978307566999	2
5	371	804.87709113404	1
5	372	811.48329759133	0
5	374	821.989938605393	0
5	375	822.271910252655	0
5	377	822.971999659924	0
5	379	825.692127493628	1
5	380	829.539876835553	1
5	381	830.263731280088	0
5	388	837.481048809211	0
5	390	837.528711359265	1
5	394	853.367451096851	2
5	396	864.80791871467	3
5	400	868.699468202168	4
5	402	892.215476562267	5
5	405	896.95419122637	6
5	408	900.233465924195	6
5	412	908.783784786466	6
5	414	909.351150085816	6
5	415	910.659523740306	5
5	416	912.579423940859	4
5	417	918.132007615542	3
5	419	921.983408396422	3
5	421	923.077491675642	4
5	423	926.313872219769	5
5	424	927.256411861001	5
5	426	928.366526091904	5
5	427	931.076828421501	5
5	429	931.138786419577	5
5	436	943.457721298407	5
5	437	943.859210172293	4
5	438	944.447472888907	3
5	439	945.991832052734	2
5	441	951.775819964726	2
5	443	954.938401825785	3
5	444	959.410268034368	3
5	446	960.15791517345	3
5	447	960.590411219923	3
5	448	960.632968719	2
5	450	961.941637758824	2
5	451	965.04738877425	2
5	455	973.955373969978	2
5	458	974.438970779056	3
5	460	976.208487875792	4
5	461	977.037542661326	4
5	462	981.965994518476	3
5	469	994.275476802733	3
5	471	998.967850855492	4
5	473	1005.388827674554	4
5	474	1008.661108268485	3
5	475	1012.571209956815	2
5	476	1012.83396028783	1
5	480	1019.299318427478	0
5	482	1021.422423220967	0
5	484	1025.61861987627	1
5	488	1034.732109192486	2
5	490	1038.782605635946	3
5	492	1043.159900290471	4
5	495	1064.460086608793	5
5	497	1065.265403748812	6
5	498	1070.453087782032	6
5	499	1070.472892650066	5
5	500	1087.091472101615	4
5	501	1092.627500738646	3
5	502	1092.655356930362	2
5	504	1093.886914810011	2
5	506	1095.796884728062	3
5	507	1098.223129600259	3
5	509	1100.441881947243	3
5	511	1102.411024622887	4
5	512	1104.054688469993	4
5	516	1110.248847979331	4
5	518	1115.662036455481	5
5	520	1127.466609643924	5
5	522	1127.991864436109	5
5	523	1135.495678058091	5
5	524	1143.371029625094	4
5	525	1145.364784350737	3
5	526	1145.566243544886	2
5	530	1150.403494908239	2
5	532	1157.698185414769	3
5	534	1160.726672716901	4
5	536	1163.395678229777	4
5	537	1164.966785622799	3
5	538	1173.249319438797	2
5	540	1179.987550244786	2
5	541	1184.115176622766	2
5	542	1184.997600689413	1
5	544	1190.406193379886	1
5	546	1192.060187505366	2
5	547	1194.615782579641	2
5	548	1196.085673555335	1
5	559	1214.542207979603	1
5	562	1230.587609546064	2
5	566	1239.074375508244	3
5	571	1257.072305290322	4
5	573	1258.154433461831	5
5	575	1258.463916101759	6
5	579	1268.084140595639	7
5	581	1269.559912571375	8
5	586	1279.343956200392	9
5	588	1281.438934440836	10
5	594	1293.39115214529	11
5	597	1294.09831111435	12
5	609	1306.377084729727	13
5	611	1308.790255576544	14
5	613	1312.306243155178	15
5	621	1325.552127347144	16
5	623	1329.476278199886	17
5	625	1331.977731951153	18
5	628	1335.18914020612	19
5	632	1345.473493177319	20
5	634	1353.837422051082	21
5	636	1355.903882210185	22
5	638	1356.72186603143	23
5	640	1361.4761275669	24
5	642	1367.411236736202	25
5	650	1399.696189430956	26
5	652	1409.164097619472	26
5	656	1416.397994706786	25
5	658	1417.078528100198	25
5	660	1420.290782061921	26
5	661	1429.545833353841	26
5	667	1438.259455455825	26
5	669	1444.792201787484	27
5	671	1449.871614903672	28
5	677	1460.060926220485	29
5	681	1464.592283923065	30
5	685	1476.202711998038	31
5	689	1478.069516448218	32
5	694	1485.640289736562	33
5	696	1487.04370975529	34
5	702	1512.283199849435	35
5	706	1514.492181875754	36
5	708	1525.749158143837	37
5	712	1532.577202008577	38
5	714	1538.005236612714	39
5	718	1551.435827516609	40
5	721	1561.172855466474	41
5	723	1562.687982903677	42
5	726	1569.883022025937	42
5	727	1571.90209783063	41
5	728	1572.990262825699	40
5	729	1574.90948527421	39
5	731	1576.644626109085	39
5	733	1577.971520441329	40
5	735	1578.224976662378	41
5	737	1580.245655261544	42
5	738	1580.50710745638	42
5	740	1584.930820075336	42
5	741	1593.299249080553	42
5	742	1595.209488214796	41
5	743	1598.516242313022	40
5	745	1598.806839497624	40
5	746	1606.319027582682	40
5	748	1609.425566048026	40
5	749	1618.81593693486	40
5	751	1624.066798678646	40
5	752	1625.627536527329	40
5	756	1627.508938156312	40
5	758	1635.561860199154	40
5	759	1636.382519120005	39
5	760	1644.205458460932	38
5	761	1644.346566356733	37
5	763	1644.804533826314	37
5	764	1647.188572868078	37
5	770	1656.941765470321	37
5	776	1667.440571028196	38
5	789	1696.918963719115	39
5	796	1719.112607261954	40
5	799	1730.314919826024	41
5	803	1747.308895643383	42
5	805	1748.047353153453	43
5	810	1758.501417219979	44
5	812	1759.620362943869	45
5	814	1761.129210365635	46
5	816	1763.813737269511	47
5	817	1768.03637682235	47
5	819	1770.185782847709	47
5	820	1772.280512885922	47
5	821	1777.038938911066	46
5	822	1777.157773453026	45
5	824	1778.687776808715	45
5	828	1781.263490443706	46
5	830	1783.647511303199	47
5	832	1785.078372961464	47
5	834	1791.920343721064	47
5	835	1796.43939258268	47
5	836	1799.147959756654	46
5	840	1807.237015567621	45
5	841	1807.504647027688	44
5	843	1809.927053426328	44
5	844	1811.321796106773	44
5	845	1821.199268104017	43
5	846	1822.708167216865	42
5	847	1823.377292772032	41
5	849	1824.121326190655	41
5	854	1828.799173711548	42
5	858	1836.776512552437	43
5	860	1841.941619444587	43
5	861	1842.095464680795	42
5	862	1843.711384575615	41
5	866	1863.001971466587	41
5	868	1877.221133022566	42
5	874	1886.960024108163	43
5	876	1894.963428843149	44
5	878	1898.466332015644	45
5	879	1904.276144619758	45
5	881	1905.001104474535	45
5	882	1916.482853974225	45
5	883	1917.726732155636	44
5	885	1918.282732109325	44
5	886	1920.167882732411	44
5	887	1920.3895103016	43
5	888	1920.527109966794	42
5	889	1924.10489036127	41
5	890	1926.709749501508	40
5	892	1930.581653249306	40
5	893	1933.670629264122	40
5	895	1935.826789934323	40
5	896	1940.393792153351	40
5	897	1940.981509734182	39
5	899	1942.879357732617	39
5	900	1943.647631594022	39
5	901	1946.763183083672	38
5	902	1947.036365790822	37
5	903	1949.495176434585	36
5	905	1951.691519557266	36
5	907	1951.845844740435	37
5	909	1955.941756291918	38
5	913	1969.013962315239	38
5	914	1972.705265641902	37
5	916	1981.415149903608	37
5	917	1981.735171302581	37
5	918	1985.987171319254	36
5	920	1991.932271441198	36
5	921	1998.328752907236	36
5	922	2001.014150682709	35
5	923	2021.521044242656	34
5	929	2036.820239663622	34
5	932	2040.1754320692	34
5	933	2044.142434051087	33
5	934	2045.227578737091	32
5	935	2046.335098782003	31
5	939	2055.395634036457	31
5	942	2066.336908056797	32
5	944	2068.572735745909	33
5	946	2073.629401755589	34
5	947	2080.674083577401	34
5	951	2084.256089381485	33
5	952	2087.463530619431	32
5	953	2088.619503743771	31
5	954	2088.622478709491	30
5	955	2088.728847294471	29
5	957	2090.373689927269	29
5	959	2091.510531786147	30
5	960	2092.889170867268	30
5	962	2094.509784816636	30
5	966	2103.10888607586	31
5	971	2109.544519618569	32
5	974	2121.370922174609	33
5	976	2121.865282291356	34
5	977	2126.557697373421	34
5	978	2127.251530087419	33
5	979	2130.494755239292	32
5	980	2132.532152243744	31
5	981	2136.085061019293	30
5	982	2136.582414587112	29
5	983	2140.649622194079	28
5	985	2140.760935507749	28
5	986	2141.910883524931	28
5	987	2142.615030271195	27
5	988	2144.523186594779	26
5	990	2148.408502014201	26
5	992	2150.88545136286	27
5	994	2153.152701023359	28
5	998	2156.826185249186	29
5	1000	2158.763858673404	29
5	1002	2158.885137271309	29
5	1003	2160.412676794373	29
5	1004	2165.222346720217	28
5	1008	2167.645034195839	28
5	1013	2180.820140528645	29
5	1015	2184.833950993964	29
5	1016	2187.429307080035	28
5	1017	2187.656276453143	27
5	1018	2188.783998323632	26
5	1020	2190.617248134383	26
5	1021	2200.732719299125	26
5	1022	2204.205136455087	25
5	1023	2204.927239313098	24
5	1027	2208.631005398133	24
5	1030	2213.327587140208	25
5	1031	2213.523719332038	25
5	1032	2216.733218710215	24
5	1033	2217.740638967749	23
5	1034	2219.967596711152	22
5	1035	2220.313936681878	21
5	1036	2224.031331912819	20
5	1037	2224.229950989826	19
5	1038	2228.49613719846	18
5	1040	2229.887447686045	18
5	1041	2234.835218357104	18
5	1042	2235.251090476431	17
5	1043	2240.154911112051	16
5	1044	2244.8244032614	15
5	1048	2253.58684209732	14
5	1049	2254.4019068465	13
5	1050	2255.826013102132	12
5	1052	2260.949383513056	12
5	1053	2266.572937878346	12
5	1054	2270.294906635293	11
5	1055	2273.496728297802	10
5	1056	2275.193318407762	9
5	1057	2278.236846502292	8
5	1058	2281.201348656871	7
5	1059	2282.539554618663	6
5	1060	2284.482936240643	5
5	1061	2297.049737886936	4
5	1062	2299.171209247492	3
5	1064	2299.27861517504	3
5	1068	2322.975167591956	3
5	1069	2323.017300194908	2
5	1070	2324.565634775273	1
5	1072	2325.819276184382	1
5	1073	2329.12842959961	1
5	1074	2333.761104613787	0
5	1079	2354.169776292782	0
5	1080	2354.452574711004	0
5	1082	2363.140470416597	0
5	1083	2369.326172205358	0
5	1087	2372.742441384221	0
5	1090	2376.357023247149	1
5	1091	2379.399012677262	1
5	1092	2380.955154322146	0
5	1094	2387.929246926715	0
5	1096	2388.368622764903	1
5	1097	2397.371159287958	1
5	1098	2398.584004485258	0
5	1100	2399.324458944691	0
5	1101	2401.163766489807	0
5	1103	2416.76104363929	0
5	1104	2417.102437696558	0
5	1106	2420.683923370384	0
5	1110	2433.483901769592	1
5	1112	2435.461710965995	1
5	1114	2436.064121627286	1
5	1115	2442.101283538079	1
5	1117	2449.110225251561	1
5	1122	2452.839439866003	2
5	1123	2452.886420297794	2
5	1124	2453.928408211224	1
5	1125	2458.384197623976	0
5	1130	2485.429838161415	0
5	1131	2487.901348938452	0
6	142	356.875088781009	17
6	145	359.797084616162	18
6	152	386.095777747027	19
6	176	430.243807062564	20
6	191	473.711057729316	21
6	208	498.857270590549	22
6	222	513.279912221692	23
6	231	519.853083529977	24
6	248	543.991047772184	25
6	251	556.053842682758	26
6	254	566.031481432337	27
6	257	574.549927188769	28
6	260	576.927076334639	29
6	261	583.713601807728	30
6	264	586.373026458166	31
6	265	590.135739702053	32
6	276	603.940919093639	33
6	289	625.059754769759	34
6	290	625.817046077047	35
6	300	654.897410522005	36
6	306	659.209711066284	37
6	341	738.832186912168	38
6	354	777.474289444962	39
6	386	832.542674525353	40
6	403	894.10889808124	41
6	406	898.214775356803	42
6	407	899.605418246923	43
6	413	909.136043858879	44
6	432	934.428803390401	45
6	435	939.747907689879	46
6	456	974.279868989657	47
6	465	990.302828074159	48
6	472	1003.798414826747	49
6	479	1017.237362152313	50
6	493	1061.238898779468	51
6	519	1116.054330741423	52
6	535	1163.002636097197	53
6	553	1204.7588924689	54
6	560	1215.450099358919	55
6	569	1242.959899229858	56
6	582	1269.647589553547	57
6	583	1274.342370801066	58
6	584	1275.071780222459	59
6	595	1294.018831139775	60
6	602	1296.141075752671	61
6	607	1306.282967445584	62
6	614	1316.13846398165	63
6	615	1320.675847446719	64
6	626	1335.132721871621	65
6	643	1379.496707060197	66
6	646	1388.650209844099	67
6	647	1392.178013688424	68
6	648	1392.48280794117	69
6	651	1404.42397775392	70
6	655	1415.54164666074	71
6	682	1467.218257135589	72
6	683	1468.019589087647	73
6	692	1483.348773888789	74
6	699	1502.083232709901	75
6	700	1510.695364253797	76
6	715	1538.54961356313	77
6	716	1543.872103949603	78
6	719	1555.60334737913	79
6	724	1566.158030264505	80
6	725	1566.388351020564	81
6	757	1634.772840267248	82
6	773	1660.771463059054	83
6	774	1663.138172580759	84
6	785	1683.152679214247	85
6	786	1686.277577366634	86
6	787	1689.051114351988	87
6	792	1703.944758970058	88
6	797	1728.055585139782	89
6	800	1735.904659876616	90
6	801	1740.616389176123	91
6	808	1754.572807743754	92
6	831	1783.923222276291	93
6	839	1805.043030249603	94
6	852	1827.859069424741	95
6	859	1837.183186258245	96
6	869	1883.343747700224	97
6	872	1885.697503149244	98
6	912	1966.257257939296	99
6	930	2037.21655756231	100
6	931	2038.991931806781	101
6	940	2063.733140584268	102
6	950	2081.455651643157	103
6	967	2103.806231545962	104
6	972	2120.647218457236	105
6	999	2157.814940341282	106
6	1009	2173.67308339326	107
6	1014	2181.918993669782	108
6	1028	2212.573587692257	109
6	1047	2253.217935241176	110
6	1067	2320.528847926978	111
6	1077	2351.123527566221	112
6	1088	2373.157086212062	113
6	1111	2435.122385349473	114
6	1120	2452.658478401656	115
6	1128	2480.647967162267	116
7	142	356.875088781009	4.217481341879
7	145	359.797084616162	0.503385057534
7	152	386.095777747027	24.406107191104
7	176	430.243807062564	6.733586456978
7	191	473.711057729316	9.400727904709
7	208	498.857270590549	8.545912966387
7	222	513.279912221692	10.02694692756
7	231	519.853083529977	12.065698121624
7	248	543.991047772184	34.530140548496
7	251	556.053842682758	40.463005029078
7	254	566.031481432337	47.219174622955
7	257	574.549927188769	45.760269295006
7	260	576.927076334639	40.305456657761
7	261	583.713601807728	43.837230576781
7	264	586.373026458166	46.361048868023
7	265	590.135739702053	13.726449595099
7	276	603.940919093639	2.293935294798
7	289	625.059754769759	4.492361431959
7	290	625.817046077047	3.903836639065
7	300	654.897410522005	8.545367126645
7	306	659.209711066284	1.830070998515
7	341	738.832186912168	5.657866222531
7	354	777.474289444962	11.617200906103
7	386	832.542674525353	1.178842720803
7	403	894.10889808124	62.146268711494
7	406	898.214775356803	47.374175311612
7	407	899.605418246923	33.843632830213
7	413	909.136043858879	7.912559499417
7	432	934.428803390401	2.244481091688
7	435	939.747907689879	1.818322159252
7	456	974.279868989657	2.937219212945
7	465	990.302828074159	7.230282448978
7	472	1003.798414826747	12.371347096631
7	479	1017.237362152313	1.631847118469
7	493	1061.238898779468	35.427756984698
7	519	1116.054330741423	6.255358726656
7	535	1163.002636097197	13.545502173171
7	553	1204.7588924689	8.232196014318
7	560	1215.450099358919	18.880644630171
7	569	1242.959899229858	32.674754734417
7	582	1269.647589553547	55.660833745597
7	583	1274.342370801066	42.712305322079
7	584	1275.071780222459	33.763600475848
7	595	1294.018831139775	30.829034495804
7	602	1296.141075752671	14.627903533142
7	607	1306.282967445584	14.186354496978
7	614	1316.13846398165	21.24582600089
7	615	1320.675847446719	24.952813693452
7	626	1335.132721871621	38.703975515399
7	643	1379.496707060197	81.555702881512
7	646	1388.650209844099	66.502184503209
7	647	1392.178013688424	69.057515638018
7	648	1392.48280794117	54.189847689789
7	651	1404.42397775392	19.505296262865
7	655	1415.54164666074	3.021682604215
7	682	1467.218257135589	37.573456835741
7	683	1468.019589087647	35.075765289446
7	692	1483.348773888789	28.523080020547
7	699	1502.083232709901	45.846030802187
7	700	1510.695364253797	47.194090954978
7	715	1538.54961356313	61.654412860794
7	716	1543.872103949603	65.219615269893
7	719	1555.60334737913	61.660502882674
7	724	1566.158030264505	53.08964576668
7	725	1566.388351020564	36.072019535957
7	757	1634.772840267248	8.497025948177
7	773	1660.771463059054	12.680933476366
7	774	1663.138172580759	14.73133871626
7	785	1683.152679214247	23.062103088007
7	786	1686.277577366634	12.538831374536
7	787	1689.051114351988	12.349165297995
7	792	1703.944758970058	26.134198651577
7	797	1728.055585139782	45.691632861888
7	800	1735.904659876616	34.20387122638
7	801	1740.616389176123	33.948205174215
7	808	1754.572807743754	5.990781624299
7	831	1783.923222276291	4.827887662882
7	839	1805.043030249603	3.779371200926
7	852	1827.859069424741	1.984932535863
7	859	1837.183186258245	6.888225976166
7	869	1883.343747700224	38.202345524538
7	872	1885.697503149244	0.12262519196
7	912	1966.257257939296	3.382649142946
7	930	2037.21655756231	12.60793189524
7	931	2038.991931806781	8.172146871922
7	940	2063.733140584268	8.447481639174
7	950	2081.455651643157	0.104054023608
7	967	2103.806231545962	7.024058285363
7	972	2120.647218457236	14.559316467537
7	999	2157.814940341282	3.67064633441
7	1009	2173.67308339326	6.308421555027
7	1014	2181.918993669782	4.926642573606
7	1028	2212.573587692257	5.682181451738
7	1047	2253.217935241176	5.705855885162
7	1067	2320.528847926978	13.604634965632
7	1077	2351.123527566221	2.937161481673
7	1088	2373.157086212062	3.000339822682
7	1111	2435.122385349473	10.011117620738
7	1120	2452.658478401656	1.032280044087
7	1128	2480.647967162267	11.171358608421
8	142	356.875088781009	34.828147579145
8	145	359.797084616162	37.526900560826
8	152	386.095777747027	58.648067461598
8	153	386.962855419228	53.156109409114
8	154	394.216775065066	50.351728211735
8	157	398.658495602055	52.364039628889
8	158	399.217829552148	46.560222113018
8	159	402.49200075985	47.4325333948
8	160	404.010865397212	44.717165838584
8	165	413.3996771371	51.710006581177
8	166	413.448500954249	42.667650930597
8	167	416.385749578421	30.367509146861
8	176	430.243807062564	32.559430867536
8	177	431.513478655555	24.235288070176
8	178	444.084667973069	36.169227917399
8	179	445.049565616858	27.251781898398
8	180	445.604072035837	25.946286053832
8	185	453.539066890628	30.028846285042
8	186	456.865681667339	32.589618382698
8	191	473.711057729316	28.011711059282
8	194	474.340464024207	26.797360229996
8	195	474.562456783642	14.045751798496
8	196	476.009067266803	11.698737442196
8	201	486.212036315062	12.017815778912
8	202	486.385220515298	5.289537346096
8	203	488.758650862503	2.630819550284
8	208	498.857270590549	8.545912966387
8	209	501.107208474448	10.622068117141
8	265	590.135739702053	88.846788156998
8	266	590.274932018492	87.02196672436
8	267	592.273480018871	87.270523719775
8	268	598.288889211727	89.449225768708
8	271	600.347540225961	86.609269179437
8	276	603.940919093639	89.482626597792
8	277	605.015159089243	79.78565981129
8	282	619.08136636182	93.350481144421
8	290	625.817046077047	88.425172605531
8	291	628.027536646482	84.808035838583
8	300	654.897410522005	106.36174585505
8	301	655.297541433632	94.673834978
8	306	659.209711066284	90.270250351468
8	309	662.97972396019	78.510974797979
8	312	671.550536646975	71.759256779051
8	313	673.828711938887	72.181728140046
8	314	677.872417562499	75.371773489009
8	317	683.196734276565	77.477758580781
8	318	688.740910095888	72.492433462922
8	319	689.026045177707	69.841568030727
8	320	690.578866285512	70.011472947712
8	321	690.65736019751	51.032711318717
8	322	696.49975881286	54.693456914793
8	323	696.784294029168	52.614587767523
8	328	701.848101499543	55.496058104183
8	329	702.357418289516	44.977778221747
8	330	714.9782799043	56.747513847836
8	333	720.633798116195	61.011661829503
8	336	725.250071139084	59.445457658268
8	337	730.127855225197	47.949454384889
8	338	730.775222416225	29.898480475315
8	341	738.832186912168	37.546509669159
8	344	740.029003986564	22.061599403095
8	345	741.469986061089	19.023259187007
8	346	745.010661458204	11.836340768567
8	349	752.553300953005	12.942953605233
8	354	777.474289444962	26.58842633987
8	355	780.711318884702	14.854230345843
8	356	786.651450202102	17.404430148638
8	359	791.947644226102	5.140759608139
8	362	796.034432044079	0
8	365	801.770196139294	0
8	370	803.978307566999	1.33494582975
8	371	804.87709113404	1.410748669269
8	374	821.989938605393	0
8	377	822.971999659924	0
8	380	829.539876835553	3.847749341925
8	407	899.605418246923	62.124369437712
8	408	900.233465924195	62.70475456493
8	413	909.136043858879	55.768592762028
8	414	909.351150085816	44.543231371146
8	415	910.659523740306	41.960055538138
8	416	912.579423940859	20.363947378592
8	417	918.132007615542	21.177816389172
8	424	927.256411861001	26.032927501539
8	427	931.076828421501	22.293043635035
8	432	934.428803390401	12.445394993979
8	435	939.747907689879	16.670416014237
8	436	943.457721298407	17.143849078638
8	437	943.859210172293	15.492684080389
8	438	944.447472888907	13.30868646933
8	439	945.991832052734	13.807509754021
8	444	959.410268034368	21.480682503741
8	447	960.590411219923	8.814591255197
8	448	960.632968719	5.694566893215
8	451	965.04738877425	4.8894736008
8	456	974.279868989657	12.338231230833
8	461	977.037542661326	5.694892884614
8	462	981.965994518476	8.010620548498
8	465	990.302828074159	15.863857295103
8	472	1003.798414826747	27.589926950955
8	473	1005.388827674554	22.316282049373
8	474	1008.661108268485	17.234040538369
8	475	1012.571209956815	18.295733154082
8	476	1012.83396028783	13.866109432338
8	479	1017.237362152313	1.631847118469
8	482	1021.422423220967	0
8	493	1061.238898779468	35.620278903198
8	498	1070.453087782032	44.641945987262
8	499	1070.472892650066	35.74078345758
8	500	1087.091472101615	48.308866465669
8	501	1092.627500738646	49.467600448175
8	502	1092.655356930362	28.195270321569
8	507	1098.223129600259	32.957725851447
8	512	1104.054688469993	10.167773659982
8	519	1116.054330741423	20.257446013361
8	520	1127.466609643924	27.024727696681
8	523	1135.495678058091	33.084653435204
8	524	1143.371029625094	33.572057610327
8	525	1145.364784350737	35.115936371406
8	526	1145.566243544886	29.904207089405
8	535	1163.002636097197	35.010771661088
8	536	1163.395678229777	13.938544305751
8	537	1164.966785622799	14.56329071456
8	538	1173.249319438797	15.551134024028
8	541	1184.115176622766	23.388503905865
8	542	1184.997600689413	5.010050444627
8	547	1194.615782579641	4.209589199755
8	548	1196.085673555335	4.025486049969
8	651	1404.42397775392	207.89728129934
8	652	1409.164097619472	194.62188963987
8	655	1415.54164666074	184.95403711468
8	656	1416.397994706786	177.32361919854
8	661	1429.545833353841	172.47352806352
8	725	1566.388351020564	308.23391755873
8	726	1569.883022025937	311.41910592418
8	727	1571.90209783063	303.81795723499
8	728	1572.990262825699	303.43035025432
8	729	1574.90948527421	295.56552907382
8	738	1580.50710745638	299.06817301554
8	741	1593.299249080553	299.90809693526
8	742	1595.209488214796	301.11117710045
8	743	1598.516242313022	292.1391575833
8	746	1606.319027582682	297.52877200614
8	749	1618.81593693486	306.50969377968
8	752	1625.627536527329	300.07540918018
8	757	1634.772840267248	305.29656206736
8	758	1635.561860199154	303.584128248
8	759	1636.382519120005	301.19337891388
8	760	1644.205458460932	298.73196528361
8	761	1644.346566356733	290.50914430565
8	764	1647.188572868078	291.28469065789
8	801	1740.616389176123	383.89452314469
8	808	1754.572807743754	393.09668017685
8	817	1768.03637682235	400.62514008615
8	820	1772.280512885922	372.58432345497
8	821	1777.038938911066	364.51897485454
8	822	1777.157773453026	360.07924535283
8	831	1783.923222276291	363.63244021437
8	832	1785.078372961464	355.43357266162
8	835	1796.43939258268	358.17993712686
8	836	1799.147959756654	354.35575796917
8	839	1805.043030249603	355.17141534593
8	840	1807.237015567621	347.17608934714
8	841	1807.504647027688	342.91236310462
8	844	1811.321796106773	335.11908410873
8	845	1821.199268104017	343.1297516558
8	846	1822.708167216865	337.0678774803
8	847	1823.377292772032	336.33358301674
8	852	1827.859069424741	315.57586957531
8	859	1837.183186258245	322.69100438249
8	860	1841.941619444587	316.19246130075
8	861	1842.095464680795	309.51826267222
8	862	1843.711384575615	305.7061479629
8	869	1883.343747700224	331.90792018361
8	872	1885.697503149244	324.52464768277
8	879	1904.276144619758	341.58816171608
8	882	1916.482853974225	339.83822786514
8	883	1917.726732155636	339.75521171431
8	886	1920.167882732411	341.94290607003
8	887	1920.3895103016	340.14385504006
8	888	1920.527109966794	335.59628989146
8	889	1924.10489036127	325.29805086365
8	890	1926.709749501508	317.28418345348
8	893	1933.670629264122	309.60383058548
8	896	1940.393792153351	314.11797783428
8	897	1940.981509734182	313.47257157787
8	900	1943.647631594022	298.84309776771
8	901	1946.763183083672	298.67265350098
8	902	1947.036365790822	290.0946003205
8	903	1949.495176434585	282.05460540639
8	912	1966.257257939296	269.33829422018
8	913	1969.013962315239	249.90135505328
8	914	1972.705265641902	242.39034581588
8	917	1981.735171302581	234.4262756592
8	918	1985.987171319254	237.9398181658
8	921	1998.328752907236	249.74672678778
8	922	2001.014150682709	242.51273346273
8	923	2021.521044242656	261.90068129879
8	931	2038.991931806781	277.86272144115
8	932	2040.1754320692	276.36169479969
8	933	2044.142434051087	273.95665120338
8	934	2045.227578737091	266.53980192838
8	935	2046.335098782003	267.23976416859
8	940	2063.733140584268	282.46965014056
8	947	2080.674083577401	297.0265722742
8	950	2081.455651643157	289.53530792209
8	951	2084.256089381485	282.99243033281
8	952	2087.463530619431	277.5364771931
8	953	2088.619503743771	264.49817755312
8	954	2088.622478709491	262.74834182061
8	955	2088.728847294471	259.92967358292
8	960	2092.889170867268	262.59421058519
8	967	2103.806231545962	267.02971899352
8	972	2120.647218457236	275.50581628155
8	977	2126.557697373421	263.55572590683
8	978	2127.251530087419	250.03039706485
8	979	2130.494755239292	244.91987728201
8	980	2132.532152243744	245.57212813558
8	981	2136.085061019293	241.12163217614
8	982	2136.582414587112	238.11608257147
8	983	2140.649622194079	235.64851771954
8	986	2141.910883524931	223.62815141561
8	987	2142.615030271195	212.03337702189
8	988	2144.523186594779	208.69639666046
8	999	2157.814940341282	214.93558260866
8	1000	2158.763858673404	207.07233911614
8	1003	2160.412676794373	208.56683205394
8	1004	2165.222346720217	209.2805904283
8	1009	2173.67308339326	210.79847459691
8	1014	2181.918993669782	200.50384376617
8	1015	2184.833950993964	192.90167955277
8	1016	2187.429307080035	162.82068141297
8	1017	2187.656276453143	150.83603678952
8	1018	2188.783998323632	133.49833937854
8	1021	2200.732719299125	145.33708526267
8	1022	2204.205136455087	137.86822839829
8	1023	2204.927239313098	136.35450356719
8	1028	2212.573587692257	138.94418593667
8	1031	2213.523719332038	132.17212171249
8	1032	2216.733218710215	126.35952878295
8	1033	2217.740638967749	126.2301071816
8	1034	2219.967596711152	125.45781189452
8	1035	2220.313936681878	123.53176342128
8	1036	2224.031331912819	120.92244583696
8	1037	2224.229950989826	118.14204900013
8	1038	2228.49613719846	118.95161757989
8	1041	2234.835218357104	113.46429618249
8	1042	2235.251090476431	113.38580818507
8	1043	2240.154911112051	99.393975604302
8	1044	2244.8244032614	96.415901247199
8	1047	2253.217935241176	102.33248387832
8	1048	2253.58684209732	100.43414107396
8	1049	2254.4019068465	100.25761283963
8	1050	2255.826013102132	98.999827852946
8	1053	2266.572937878346	107.68780060704
8	1054	2270.294906635293	102.93024479706
8	1055	2273.496728297802	105.85169410196
8	1056	2275.193318407762	98.200967311586
8	1057	2278.236846502292	97.416705973647
8	1058	2281.201348656871	90.584100522488
8	1059	2282.539554618663	75.648148378144
8	1060	2284.482936240643	75.85193084251
8	1061	2297.049737886936	83.722150746728
8	1062	2299.171209247492	69.283761561447
8	1067	2320.528847926978	73.016768570964
8	1068	2322.975167591956	62.0257840789
8	1069	2323.017300194908	23.738685019868
8	1070	2324.565634775273	17.641421813927
8	1073	2329.12842959961	3.309153415228
8	1079	2354.169776292782	0
8	1082	2363.140470416597	0
8	1088	2373.157086212062	0.414644827841
8	1091	2379.399012677262	3.041989430113
8	1094	2387.929246926715	0
8	1097	2397.371159287958	9.002536523055
8	1100	2399.324458944691	0
8	1103	2416.76104363929	0
8	1106	2420.683923370384	0
8	1111	2435.122385349473	10.011117620738
8	1112	2435.461710965995	1.977809196403
8	1115	2442.101283538079	6.037161910793
8	1120	2452.658478401656	3.548253150095
8	1123	2452.886420297794	1.260221940225
8	1124	2453.928408211224	1.088968345221
8	1130	2485.429838161415	0
9	153	386.962855419228	26
9	154	394.216775065066	27
9	157	398.658495602055	28
9	158	399.217829552148	29
9	159	402.49200075985	30
9	160	404.010865397212	31
9	165	413.3996771371	32
9	166	413.448500954249	33
9	167	416.385749578421	34
9	177	431.513478655555	35
9	178	444.084667973069	36
9	179	445.049565616858	37
9	180	445.604072035837	38
9	185	453.539066890628	39
9	186	456.865681667339	40
9	194	474.340464024207	41
9	195	474.562456783642	42
9	196	476.009067266803	43
9	201	486.212036315062	44
9	202	486.385220515298	45
9	203	488.758650862503	46
9	209	501.107208474448	47
9	266	590.274932018492	48
9	267	592.273480018871	49
9	268	598.288889211727	50
9	271	600.347540225961	51
9	277	605.015159089243	52
9	282	619.08136636182	53
9	291	628.027536646482	54
9	301	655.297541433632	55
9	309	662.97972396019	56
9	312	671.550536646975	57
9	313	673.828711938887	58
9	314	677.872417562499	59
9	317	683.196734276565	60
9	318	688.740910095888	61
9	319	689.026045177707	62
9	320	690.578866285512	63
9	321	690.65736019751	64
9	322	696.49975881286	65
9	323	696.784294029168	66
9	328	701.848101499543	67
9	329	702.357418289516	68
9	330	714.9782799043	69
9	333	720.633798116195	70
9	336	725.250071139084	71
9	337	730.127855225197	72
9	338	730.775222416225	73
9	344	740.029003986564	74
9	345	741.469986061089	75
9	346	745.010661458204	76
9	349	752.553300953005	77
9	355	780.711318884702	78
9	356	786.651450202102	79
9	359	791.947644226102	80
9	360	792.372233048905	81
9	363	799.868390479853	82
9	370	803.978307566999	83
9	371	804.87709113404	84
9	372	811.48329759133	85
9	375	822.271910252655	86
9	380	829.539876835553	87
9	381	830.263731280088	88
9	408	900.233465924195	89
9	414	909.351150085816	90
9	415	910.659523740306	91
9	416	912.579423940859	92
9	417	918.132007615542	93
9	424	927.256411861001	94
9	427	931.076828421501	95
9	436	943.457721298407	96
9	437	943.859210172293	97
9	438	944.447472888907	98
9	439	945.991832052734	99
9	444	959.410268034368	100
9	447	960.590411219923	101
9	448	960.632968719	102
9	451	965.04738877425	103
9	461	977.037542661326	104
9	462	981.965994518476	105
9	473	1005.388827674554	106
9	474	1008.661108268485	107
9	475	1012.571209956815	108
9	476	1012.83396028783	109
9	480	1019.299318427478	110
9	498	1070.453087782032	111
9	499	1070.472892650066	112
9	500	1087.091472101615	113
9	501	1092.627500738646	114
9	502	1092.655356930362	115
9	507	1098.223129600259	116
9	512	1104.054688469993	117
9	520	1127.466609643924	118
9	523	1135.495678058091	119
9	524	1143.371029625094	120
9	525	1145.364784350737	121
9	526	1145.566243544886	122
9	536	1163.395678229777	123
9	537	1164.966785622799	124
9	538	1173.249319438797	125
9	541	1184.115176622766	126
9	542	1184.997600689413	127
9	547	1194.615782579641	128
9	548	1196.085673555335	129
9	652	1409.164097619472	130
9	656	1416.397994706786	131
9	661	1429.545833353841	132
9	726	1569.883022025937	133
9	727	1571.90209783063	134
9	728	1572.990262825699	135
9	729	1574.90948527421	136
9	738	1580.50710745638	137
9	741	1593.299249080553	138
9	742	1595.209488214796	139
9	743	1598.516242313022	140
9	746	1606.319027582682	141
9	749	1618.81593693486	142
9	752	1625.627536527329	143
9	758	1635.561860199154	144
9	759	1636.382519120005	145
9	760	1644.205458460932	146
9	761	1644.346566356733	147
9	764	1647.188572868078	148
9	817	1768.03637682235	149
9	820	1772.280512885922	150
9	821	1777.038938911066	151
9	822	1777.157773453026	152
9	832	1785.078372961464	153
9	835	1796.43939258268	154
9	836	1799.147959756654	155
9	840	1807.237015567621	156
9	841	1807.504647027688	157
9	844	1811.321796106773	158
9	845	1821.199268104017	159
9	846	1822.708167216865	160
9	847	1823.377292772032	161
9	860	1841.941619444587	162
9	861	1842.095464680795	163
9	862	1843.711384575615	164
9	879	1904.276144619758	165
9	882	1916.482853974225	166
9	883	1917.726732155636	167
9	886	1920.167882732411	168
9	887	1920.3895103016	169
9	888	1920.527109966794	170
9	889	1924.10489036127	171
9	890	1926.709749501508	172
9	893	1933.670629264122	173
9	896	1940.393792153351	174
9	897	1940.981509734182	175
9	900	1943.647631594022	176
9	901	1946.763183083672	177
9	902	1947.036365790822	178
9	903	1949.495176434585	179
9	913	1969.013962315239	180
9	914	1972.705265641902	181
9	917	1981.735171302581	182
9	918	1985.987171319254	183
9	921	1998.328752907236	184
9	922	2001.014150682709	185
9	923	2021.521044242656	186
9	932	2040.1754320692	187
9	933	2044.142434051087	188
9	934	2045.227578737091	189
9	935	2046.335098782003	190
9	947	2080.674083577401	191
9	951	2084.256089381485	192
9	952	2087.463530619431	193
9	953	2088.619503743771	194
9	954	2088.622478709491	195
9	955	2088.728847294471	196
9	960	2092.889170867268	197
9	977	2126.557697373421	198
9	978	2127.251530087419	199
9	979	2130.494755239292	200
9	980	2132.532152243744	201
9	981	2136.085061019293	202
9	982	2136.582414587112	203
9	983	2140.649622194079	204
9	986	2141.910883524931	205
9	987	2142.615030271195	206
9	988	2144.523186594779	207
9	1000	2158.763858673404	208
9	1003	2160.412676794373	209
9	1004	2165.222346720217	210
9	1015	2184.833950993964	211
9	1016	2187.429307080035	212
9	1017	2187.656276453143	213
9	1018	2188.783998323632	214
9	1021	2200.732719299125	215
9	1022	2204.205136455087	216
9	1023	2204.927239313098	217
9	1031	2213.523719332038	218
9	1032	2216.733218710215	219
9	1033	2217.740638967749	220
9	1034	2219.967596711152	221
9	1035	2220.313936681878	222
9	1036	2224.031331912819	223
9	1037	2224.229950989826	224
9	1038	2228.49613719846	225
9	1041	2234.835218357104	226
9	1042	2235.251090476431	227
9	1043	2240.154911112051	228
9	1044	2244.8244032614	229
9	1048	2253.58684209732	230
9	1049	2254.4019068465	231
9	1050	2255.826013102132	232
9	1053	2266.572937878346	233
9	1054	2270.294906635293	234
9	1055	2273.496728297802	235
9	1056	2275.193318407762	236
9	1057	2278.236846502292	237
9	1058	2281.201348656871	238
9	1059	2282.539554618663	239
9	1060	2284.482936240643	240
9	1061	2297.049737886936	241
9	1062	2299.171209247492	242
9	1068	2322.975167591956	243
9	1069	2323.017300194908	244
9	1070	2324.565634775273	245
9	1073	2329.12842959961	246
9	1074	2333.761104613787	247
9	1080	2354.452574711004	248
9	1083	2369.326172205358	249
9	1091	2379.399012677262	250
9	1092	2380.955154322146	251
9	1097	2397.371159287958	252
9	1098	2398.584004485258	253
9	1101	2401.163766489807	254
9	1104	2417.102437696558	255
9	1112	2435.461710965995	256
9	1115	2442.101283538079	257
9	1123	2452.886420297794	258
9	1124	2453.928408211224	259
9	1125	2458.384197623976	260
9	1131	2487.901348938452	261
10	153	386.962855419228	59.515145133799
10	154	394.216775065066	60.410029054952
10	157	398.658495602055	54.793448748724
10	158	399.217829552148	52.923373578982
10	159	402.49200075985	49.83439332072
10	160	404.010865397212	48.951398032162
10	165	413.3996771371	54.105977578472
10	166	413.448500954249	51.758830398326
10	167	416.385749578421	45.604899554769
10	177	431.513478655555	33.829102460527
10	178	444.084667973069	36.80647738769
10	179	445.049565616858	37.134125561188
10	180	445.604072035837	27.806288317377
10	185	453.539066890628	33.881280908623
10	186	456.865681667339	33.355461061753
10	194	474.340464024207	28.641117354173
10	195	474.562456783642	27.019352989431
10	196	476.009067266803	15.492362281657
10	201	486.212036315062	21.901706490455
10	202	486.385220515298	12.190999979148
10	203	488.758650862503	7.662967693301
10	209	501.107208474448	10.795850850286
10	266	590.274932018492	88.985980473437
10	267	592.273480018871	89.020514724739
10	268	598.288889211727	93.285932912631
10	271	600.347540225961	91.507876782942
10	277	605.015159089243	90.556866593396
10	282	619.08136636182	93.851867083867
10	291	628.027536646482	90.635663174966
10	301	655.297541433632	106.76187676668
10	309	662.97972396019	94.040263245374
10	312	671.550536646975	87.081787484764
10	313	673.828711938887	74.037432070963
10	314	677.872417562499	76.225433763658
10	317	683.196734276565	80.696090203075
10	318	688.740910095888	83.021934400104
10	319	689.026045177707	72.777568544741
10	320	690.578866285512	71.394389138532
10	321	690.65736019751	70.08996685971
10	322	696.49975881286	56.875109934067
10	323	696.784294029168	54.977992131101
10	328	701.848101499543	57.678395237898
10	329	702.357418289516	56.005374894156
10	330	714.9782799043	57.598639836531
10	333	720.633798116195	62.403032059731
10	336	725.250071139084	65.627934852392
10	337	730.127855225197	64.323241744381
10	338	730.775222416225	48.596821575917
10	344	740.029003986564	38.743326743555
10	345	741.469986061089	23.50258147762
10	346	745.010661458204	22.563934584122
10	349	752.553300953005	19.378980263368
10	355	780.711318884702	29.82545577961
10	356	786.651450202102	20.794361663243
10	359	791.947644226102	22.700624172638
10	360	792.372233048905	5.565348430942
10	363	799.868390479853	3.833958435774
10	370	803.978307566999	2.208111427705
10	371	804.87709113404	2.233729396791
10	372	811.48329759133	8.016955126559
10	375	822.271910252655	0.281971647262
10	380	829.539876835553	6.567877175629
10	381	830.263731280088	4.57160378646
10	408	900.233465924195	62.752417114984
10	414	909.351150085816	55.983698988965
10	415	910.659523740306	45.851605025636
10	416	912.579423940859	43.879955738691
10	417	918.132007615542	25.916531053275
10	424	927.256411861001	30.302220634631
10	427	931.076828421501	29.853344062039
10	436	943.457721298407	20.380229622765
10	437	943.859210172293	17.545337952524
10	438	944.447472888907	16.080946797003
10	439	945.991832052734	14.853045633157
10	444	959.410268034368	27.225945735655
10	447	960.590411219923	22.660825689296
10	448	960.632968719	8.857148754274
10	451	965.04738877425	10.108986948465
10	461	977.037542661326	15.095904902502
10	462	981.965994518476	10.623344741764
10	473	1005.388827674554	29.180339798762
10	474	1008.661108268485	25.588562643304
10	475	1012.571209956815	21.144142226699
10	476	1012.83396028783	18.558483485097
10	480	1019.299318427478	3.693803393634
10	498	1070.453087782032	44.834467905762
10	499	1070.472892650066	44.661750855296
10	500	1087.091472101615	52.359362909129
10	501	1092.627500738646	53.8448951027
10	502	1092.655356930362	49.495456639891
10	507	1098.223129600259	33.763042991466
10	512	1104.054688469993	38.789284721181
10	520	1127.466609643924	31.669724915862
10	523	1135.495678058091	35.053796110848
10	524	1143.371029625094	40.960005002207
10	525	1145.364784350737	35.56581233597
10	526	1145.566243544886	35.317395565555
10	536	1163.395678229777	35.403813793668
10	537	1164.966785622799	15.509651698773
10	538	1173.249319438797	22.845824530558
10	541	1184.115176622766	26.416991207997
10	542	1184.997600689413	24.270927972512
10	547	1194.615782579641	14.628232334855
10	548	1196.085673555335	5.679480175449
10	652	1409.164097619472	212.63740116489
10	656	1416.397994706786	185.81038516072
10	661	1429.545833353841	190.4714578456
10	726	1569.883022025937	311.72858856411
10	727	1571.90209783063	313.43818172887
10	728	1572.990262825699	304.90612223006
10	729	1574.90948527421	305.34957270284
10	738	1580.50710745638	301.16315125599
10	741	1593.299249080553	311.86031463972
10	742	1595.209488214796	301.81833606951
10	743	1598.516242313022	304.41793119867
10	746	1606.319027582682	299.94194285295
10	749	1618.81593693486	310.02568135832
10	752	1625.627536527329	313.32129337215
10	758	1635.561860199154	306.08558199927
10	759	1636.382519120005	304.40478716885
10	760	1644.205458460932	309.01631825481
10	761	1644.346566356733	298.87307317941
10	764	1647.188572868078	293.351150817
10	817	1768.03637682235	406.56024925545
10	820	1772.280512885922	404.86927614972
10	821	1777.038938911066	377.34274948011
10	822	1777.157773453026	364.6378093965
10	832	1785.078372961464	364.78759089954
10	835	1796.43939258268	366.79459228283
10	836	1799.147959756654	360.88850430083
10	840	1807.237015567621	357.36540066395
10	841	1807.504647027688	347.4437208072
10	844	1811.321796106773	346.72951218371
10	845	1821.199268104017	344.99655610598
10	846	1822.708167216865	344.63865076865
10	847	1823.377292772032	337.73700303547
10	860	1841.941619444587	327.44943756883
10	861	1842.095464680795	316.34630653696
10	862	1843.711384575615	311.13418256704
10	879	1904.276144619758	343.10328915328
10	882	1916.482853974225	353.79487107055
10	883	1917.726732155636	341.08210604655
10	886	1920.167882732411	342.19636229108
10	887	1920.3895103016	342.16453363922
10	888	1920.527109966794	340.28145470525
10	889	1924.10489036127	339.17407028593
10	890	1926.709749501508	327.90291000388
10	893	1933.670629264122	324.2450632161
10	896	1940.393792153351	316.3269934747
10	897	1940.981509734182	314.70569541511
10	900	1943.647631594022	316.13869343771
10	901	1946.763183083672	301.95864925736
10	902	1947.036365790822	298.94583620813
10	903	1949.495176434585	292.55341096426
10	913	1969.013962315239	272.09499859612
10	914	1972.705265641902	253.59265837995
10	917	1981.735171302581	251.42025147656
10	918	1985.987171319254	238.67827567587
10	921	1998.328752907236	250.28139975378
10	922	2001.014150682709	252.43212456325
10	923	2021.521044242656	263.01962702268
10	932	2040.1754320692	279.04622170356
10	933	2044.142434051087	280.32869678158
10	934	2045.227578737091	275.04179588938
10	935	2046.335098782003	267.64732197329
10	947	2080.674083577401	299.41059313369
10	951	2084.256089381485	292.33574566042
10	952	2087.463530619431	286.19987157075
10	953	2088.619503743771	278.69245031744
10	954	2088.622478709491	264.50115251884
10	955	2088.728847294471	262.85471040559
10	960	2092.889170867268	264.08999715572
10	977	2126.557697373421	281.41629519773
10	978	2127.251530087419	264.24955862083
10	979	2130.494755239292	253.27362221673
10	980	2132.532152243744	246.95727428646
10	981	2136.085061019293	249.12503691113
10	982	2136.582414587112	241.61898574396
10	983	2140.649622194079	242.18329017843
10	986	2141.910883524931	236.9097790504
10	987	2142.615030271195	224.33229816187
10	988	2144.523186594779	213.94153334547
10	1000	2158.763858673404	215.88450094079
10	1003	2160.412676794373	208.72115723711
10	1004	2165.222346720217	213.37650197978
10	1015	2184.833950993964	203.41880109036
10	1016	2187.429307080035	195.49703563884
10	1017	2187.656276453143	163.04765078607
10	1018	2188.783998323632	151.96375866001
10	1021	2200.732719299125	145.44706035403
10	1022	2204.205136455087	148.80950241863
10	1023	2204.927239313098	138.5903312563
10	1031	2213.523719332038	139.89431757645
10	1032	2216.733218710215	135.38162109067
10	1033	2217.740638967749	127.36694904048
10	1034	2219.967596711152	128.457064925
10	1035	2220.313936681878	125.80415186524
10	1036	2224.031331912819	127.24915865222
10	1037	2224.229950989826	121.12106491397
10	1038	2228.49613719846	122.40823520876
10	1041	2234.835218357104	125.29069873853
10	1042	2235.251090476431	113.88016830182
10	1043	2240.154911112051	118.2896288207
10	1044	2244.8244032614	104.06346775365
10	1048	2253.58684209732	102.70139073446
10	1049	2254.4019068465	101.24920582314
10	1050	2255.826013102132	101.68171909526
10	1053	2266.572937878346	109.74675262916
10	1054	2270.294906635293	111.40976936398
10	1055	2273.496728297802	106.13206645957
10	1056	2275.193318407762	107.54828421192
10	1057	2278.236846502292	101.24449540612
10	1058	2281.201348656871	100.38120812823
10	1059	2282.539554618663	91.92230648428
10	1060	2284.482936240643	77.591530000124
10	1061	2297.049737886936	88.418732488803
10	1062	2299.171209247492	85.843622107284
10	1068	2322.975167591956	75.463088235942
10	1069	2323.017300194908	62.067916681852
10	1070	2324.565634775273	25.287019600233
10	1073	2329.12842959961	22.204216638264
10	1074	2333.761104613787	7.941828429405
10	1080	2354.452574711004	0.282798418222
10	1083	2369.326172205358	6.185701788761
10	1091	2379.399012677262	6.656571293041
10	1092	2380.955154322146	4.598131074997
10	1097	2397.371159287958	9.441912361243
10	1098	2398.584004485258	10.215381720355
10	1101	2401.163766489807	1.839307545116
10	1104	2417.102437696558	0.341394057268
10	1112	2435.461710965995	10.35044323726
10	1115	2442.101283538079	8.617381768487
10	1123	2452.886420297794	3.776195046233
10	1124	2453.928408211224	2.302209853655
10	1125	2458.384197623976	5.544757757973
10	1131	2487.901348938452	2.471510777037
11	1138	2500	0.1044
12	1138	2500	0.0464

