file 64443 1678560236                                           
version 2
run experiments_hard_game_mode1-1269-20230311-19:43:56-11394
attr configname experiments_hard_game_mode1
attr datetime 20230311-19:43:56
attr experiment experiments_hard_game_mode1
attr inifile omnetpp.ini
attr iterationvars "$0=9.5, $1=4, $2=0"
attr iterationvarsf 9.5,4,0-
attr measurement "$0=9.5, $1=4, $2=0"
attr network Network
attr processid 11394
attr repetition 9
attr replication #9
attr resultdir results
attr runnumber 1269
attr seedset 9
param *.boss.arrival_mean 20
param *.boss.service_mean 9.5
param *.minion.arrival_mean 10
param *.minion.service_mean 4
param *.player.recover_rate_x 0
param **.minion.arrival_distribution 0
param **.minion.service_distribution 0
param **.boss.arrival_distribution 0
param **.boss.service_distribution 0

vector 0 Network.player boss_defeated_stat:vector ETV
attr source signal_boss_defeated
vector 1 Network.player boss_jobs_queue_number_stat:vector ETV
attr source signal_boss_jobs_queue_number
vector 2 Network.player boss_response_time_stat:vector ETV
attr source signal_boss_response_time
vector 3 Network.player minion_waiting_time_stat:vector ETV
attr source signal_minion_waiting_time
vector 4 Network.player minion_jobs_number_stat:vector ETV
attr source signal_minion_jobs_number
vector 5 Network.player minion_jobs_queue_number_stat:vector ETV
attr source signal_minion_jobs_queue_number
vector 6 Network.player minion_defeated_stat:vector ETV
attr source signal_minion_defeated
vector 7 Network.player minion_response_time_stat:vector ETV
attr source signal_minion_response_time
vector 8 Network.player boss_jobs_number_stat:vector ETV
attr source signal_boss_jobs_number
vector 9 Network.player minion_recovered_stat:vector ETV
attr source signal_minion_recovered
vector 10 Network.player boss_waiting_time_stat:vector ETV
attr source signal_boss_waiting_time
vector 11 Network.player minion_throughput:vector ETV
attr source signal_minion_throughput
vector 12 Network.player boss_throughput:vector ETV
attr source signal_boss_throughput
0	2012 3093 127 1110 357.05659685201 2462.857087594323 115 10 124 7705 642965
1	5105 5908 127 1115 357.05659685201 2481.626538504285 230 0 5 216 572
2	11013 4499 127 1110 357.05659685201 2462.857087594323 115 0.385069395495 70.152722183918 1995.4411330953 57776.390684178
3	15512 9850 127 1113 357.05659685201 2473.188824793482 258 0 264.58933257643 19145.343894343 2616161.7191314
4	25362 5630 129 1117 358.869815898493 2498.157739472885 216 1 31 2247 38137
5	30992 11201 129 1117 358.869815898493 2498.157739472885 430 0 30 4057 67705
6	42193 5853 130 1113 358.94858259329 2473.188824793482 214 32 245 29639 4921679
7	48046 8427 130 1113 358.94858259329 2473.188824793482 214 0.456726232311 264.91516756851 16653.264565596 2268162.1808845
8	56473 2955 136 1115 366.90674060042 2481.626538504285 115 1 6 223 617
9	59428 1166 136 1115 366.90674060042 2481.626538504285 44 4 47 1122 35706
10	60594 3809 136 1115 366.90674060042 2481.626538504285 115 0 58.489339971424 927.66782196973 24403.107813802
11	64403 19 1118 1118 2500 2500 1 0.098 0.098 0.098 0.009604
12	64422 20 1118 1118 2500 2500 1 0.0496 0.0496 0.0496 0.00246016

