version 2
run experiments_hard_game_mode1-1330-20230311-19:44:11-11699
attr configname experiments_hard_game_mode1
attr datetime 20230311-19:44:11
attr experiment experiments_hard_game_mode1
attr inifile omnetpp.ini
attr iterationvars "$0=9.5, $1=5, $2=0"
attr iterationvarsf 9.5,5,0-
attr measurement "$0=9.5, $1=5, $2=0"
attr network Network
attr processid 11699
attr repetition 10
attr replication #10
attr resultdir results
attr runnumber 1330
attr seedset 10
param *.boss.arrival_mean 20
param *.boss.service_mean 9.5
param *.minion.arrival_mean 10
param *.minion.service_mean 5
param *.player.recover_rate_x 0
param **.minion.arrival_distribution 0
param **.minion.service_distribution 0
param **.boss.arrival_distribution 0
param **.boss.service_distribution 0

vector 0 Network.player boss_defeated_stat:vector ETV
attr source signal_boss_defeated
vector 1 Network.player boss_jobs_queue_number_stat:vector ETV
attr source signal_boss_jobs_queue_number
vector 2 Network.player boss_response_time_stat:vector ETV
attr source signal_boss_response_time
vector 3 Network.player boss_waiting_time_stat:vector ETV
attr source signal_boss_waiting_time
vector 4 Network.player minion_waiting_time_stat:vector ETV
attr source signal_minion_waiting_time
vector 5 Network.player minion_defeated_stat:vector ETV
attr source signal_minion_defeated
vector 6 Network.player minion_jobs_queue_number_stat:vector ETV
attr source signal_minion_jobs_queue_number
vector 7 Network.player minion_response_time_stat:vector ETV
attr source signal_minion_response_time
vector 8 Network.player minion_jobs_number_stat:vector ETV
attr source signal_minion_jobs_number
vector 9 Network.player boss_jobs_number_stat:vector ETV
attr source signal_boss_jobs_number
vector 10 Network.player minion_recovered_stat:vector ETV
attr source signal_minion_recovered
vector 11 Network.player minion_throughput:vector ETV
attr source signal_minion_throughput
vector 12 Network.player boss_throughput:vector ETV
attr source signal_boss_throughput
0	171	350.916567284451	20
0	172	355.689787304325	21
0	173	357.204343178517	22
0	202	435.211687919477	23
0	209	445.534711093745	24
0	219	483.944620086349	25
0	244	542.944602731948	26
0	245	543.500989026236	27
0	256	572.906960916426	28
0	263	592.047255415783	29
0	291	650.560808875221	30
0	292	652.933732657028	31
0	304	676.089757257931	32
0	307	681.021930589481	33
0	312	700.557319900575	34
0	317	710.784173379763	35
0	318	712.541514684402	36
0	324	719.385054091349	37
0	327	724.492535354833	38
0	343	743.58138381884	39
0	348	753.636628888685	40
0	366	777.74086850804	41
0	371	786.947218274752	42
0	374	820.735174681801	43
0	379	825.647898743654	44
0	382	830.271986360927	45
0	406	873.33521080375	46
0	415	902.688140111224	47
0	418	910.381493136205	48
0	421	915.987961015174	49
0	422	921.30996205494	50
0	425	931.834333764451	51
0	430	933.632091349596	52
0	433	937.475365462952	53
0	437	948.783600518714	54
0	446	982.341112213375	55
0	467	1044.588650353345	56
0	476	1063.814045699106	57
0	491	1088.246779732374	58
0	492	1091.136913222787	59
0	505	1117.131117824722	60
0	512	1132.049011286345	61
0	532	1160.000947166436	62
0	533	1167.444340881116	63
0	546	1176.112620397074	64
0	547	1182.24480958794	65
0	560	1198.790414965387	66
0	584	1241.2187768043	67
0	598	1290.310666658238	68
0	648	1392.384183805628	69
0	649	1397.184829652032	70
0	670	1428.388486894564	71
0	673	1448.090342377002	72
0	686	1470.981997296017	73
0	699	1502.41156151116	74
0	706	1509.488860847848	75
0	709	1524.54933314459	76
0	710	1525.592775291051	77
0	711	1526.790497996135	78
0	714	1528.686383718504	79
0	715	1555.034348293879	80
0	730	1584.08975491058	81
0	731	1585.67241608669	82
0	734	1590.716425658495	83
0	735	1596.800592616345	84
0	738	1615.82536228893	85
0	741	1624.746264885971	86
0	752	1635.341446888786	87
0	755	1638.260064856448	88
0	760	1647.674336950943	89
0	767	1671.906288130618	90
0	768	1674.96865721102	91
0	785	1712.285980158896	92
0	796	1733.856448564417	93
0	797	1735.23223575744	94
0	802	1737.434288978592	95
0	805	1752.940664959209	96
0	808	1757.863515323883	97
0	815	1781.493216192811	98
0	830	1829.441317693428	99
0	833	1836.663355194472	100
0	834	1849.30569799163	101
0	847	1872.210549326569	102
0	861	1904.152974151237	103
0	872	1919.326563803402	104
0	892	1974.421778000487	105
0	905	1990.877401447742	106
0	920	2026.739424908681	107
0	944	2078.39004745449	108
0	962	2104.513712157418	109
0	976	2126.078860424505	110
0	998	2173.994886835155	111
0	1002	2177.555797736641	112
0	1007	2189.450891345099	113
0	1013	2201.264229950839	114
0	1014	2212.852485103808	115
0	1021	2229.09866857112	116
0	1022	2238.033234812966	117
0	1041	2280.792710272519	118
0	1052	2296.037651019462	119
0	1087	2342.3991385455	120
0	1088	2344.591500119421	121
0	1098	2379.099901236109	122
0	1101	2381.209812679913	123
0	1114	2406.723059608373	124
0	1125	2435.470646650607	125
0	1132	2444.967091288869	126
0	1135	2450.138023518271	127
1	171	350.916567284451	2
1	172	355.689787304325	1
1	173	357.204343178517	0
1	199	419.824288542282	0
1	202	435.211687919477	0
1	208	445.426883461239	0
1	209	445.534711093745	0
1	218	481.155473799364	0
1	219	483.944620086349	0
1	239	536.946986058516	0
1	241	541.720738592907	1
1	243	541.736319955185	2
1	244	542.944602731948	2
1	245	543.500989026236	1
1	247	545.749899725905	1
1	256	572.906960916426	1
1	263	592.047255415783	0
1	286	642.852204457678	0
1	288	646.904432915695	1
1	291	650.560808875221	1
1	292	652.933732657028	0
1	301	666.123998518003	0
1	303	673.379073049835	1
1	304	676.089757257931	1
1	307	681.021930589481	0
1	311	692.296201596188	0
1	312	700.557319900575	0
1	314	707.174758416955	0
1	316	707.316586279335	1
1	317	710.784173379763	1
1	318	712.541514684402	0
1	321	718.627327699064	0
1	323	719.093978241006	1
1	324	719.385054091349	1
1	327	724.492535354833	0
1	330	725.978438086876	0
1	340	740.857761909457	1
1	343	743.58138381884	1
1	348	753.636628888685	0
1	351	759.785179545867	0
1	359	769.99705848	1
1	363	773.001749095169	2
1	365	773.957541426202	3
1	366	777.74086850804	3
1	370	780.867851638882	3
1	371	786.947218274752	3
1	374	820.735174681801	2
1	379	825.647898743654	1
1	382	830.271986360927	0
1	391	853.673845421965	0
1	395	862.799389841877	1
1	403	868.098797839271	2
1	406	873.33521080375	2
1	410	880.277491819915	2
1	412	882.177038103687	3
1	415	902.688140111224	3
1	418	910.381493136205	2
1	420	912.935758198835	2
1	421	915.987961015174	2
1	422	921.30996205494	1
1	425	931.834333764451	0
1	427	932.202672012874	0
1	430	933.632091349596	0
1	432	936.657389288969	0
1	433	937.475365462952	0
1	436	946.297682443241	0
1	437	948.783600518714	0
1	441	960.738265453186	0
1	446	982.341112213375	0
1	466	1042.502595974247	0
1	467	1044.588650353345	0
1	475	1060.452690583967	0
1	476	1063.814045699106	0
1	482	1073.028472791389	0
1	484	1073.979749661901	1
1	491	1088.246779732374	1
1	492	1091.136913222787	0
1	504	1113.293494763991	0
1	505	1117.131117824722	0
1	511	1132.000155132253	0
1	512	1132.049011286345	0
1	527	1154.808071207918	0
1	531	1158.547296278815	1
1	532	1160.000947166436	1
1	533	1167.444340881116	0
1	537	1170.522199205898	0
1	541	1171.867477851254	1
1	543	1172.13455232041	2
1	546	1176.112620397074	2
1	547	1182.24480958794	1
1	560	1198.790414965387	0
1	583	1231.608305717097	0
1	584	1241.2187768043	0
1	597	1288.624242739881	0
1	598	1290.310666658238	0
1	643	1356.036850805122	0
1	645	1372.606487445524	1
1	648	1392.384183805628	1
1	649	1397.184829652032	0
1	655	1405.653119015198	0
1	657	1415.389328740932	1
1	661	1422.655085990457	2
1	663	1422.976987813847	3
1	667	1425.03253417898	4
1	670	1428.388486894564	4
1	672	1430.283059070374	4
1	673	1448.090342377002	4
1	679	1453.338074498799	4
1	681	1458.853815662555	5
1	685	1470.455632448849	6
1	686	1470.981997296017	6
1	696	1493.449335598144	6
1	698	1496.052380205525	7
1	699	1502.41156151116	7
1	706	1509.488860847848	6
1	708	1514.884379549808	6
1	709	1524.54933314459	6
1	710	1525.592775291051	5
1	711	1526.790497996135	4
1	713	1528.555324124831	4
1	714	1528.686383718504	4
1	715	1555.034348293879	3
1	717	1564.373909976404	3
1	719	1565.073784446035	4
1	721	1568.88161662372	5
1	730	1584.08975491058	5
1	731	1585.67241608669	4
1	734	1590.716425658495	3
1	735	1596.800592616345	2
1	738	1615.82536228893	1
1	740	1616.890074396541	1
1	741	1624.746264885971	1
1	743	1626.810805176556	1
1	749	1632.799960695581	2
1	752	1635.341446888786	2
1	754	1636.823592669957	2
1	755	1638.260064856448	2
1	760	1647.674336950943	1
1	766	1658.548708404319	1
1	767	1671.906288130618	1
1	768	1674.96865721102	0
1	774	1686.708174305305	0
1	776	1694.179105853179	1
1	784	1705.252233173425	2
1	785	1712.285980158896	2
1	789	1719.93445107556	2
1	791	1724.59685573388	3
1	796	1733.856448564417	3
1	797	1735.23223575744	2
1	802	1737.434288978592	1
1	804	1740.42133159935	1
1	805	1752.940664959209	1
1	807	1757.194056480443	1
1	808	1757.863515323883	1
1	810	1761.281828584842	1
1	812	1761.918109262225	2
1	815	1781.493216192811	2
1	830	1829.441317693428	1
1	832	1831.77425238343	1
1	833	1836.663355194472	1
1	834	1849.30569799163	0
1	846	1868.713537013691	0
1	847	1872.210549326569	0
1	858	1898.558444776125	0
1	861	1904.152974151237	0
1	871	1910.506246022932	0
1	872	1919.326563803402	0
1	887	1966.608133512492	0
1	892	1974.421778000487	0
1	896	1976.663636876505	0
1	905	1990.877401447742	0
1	917	2021.706676798273	0
1	920	2026.739424908681	0
1	943	2073.959348802285	0
1	944	2078.39004745449	0
1	955	2092.180436930985	0
1	962	2104.513712157418	0
1	971	2118.166042985004	0
1	976	2126.078860424505	0
1	997	2169.154750841632	0
1	998	2173.994886835155	0
1	1001	2177.061307273094	0
1	1002	2177.555797736641	0
1	1004	2178.914416394662	0
1	1007	2189.450891345099	0
1	1010	2195.814478513715	0
1	1012	2200.177172437229	1
1	1013	2201.264229950839	1
1	1014	2212.852485103808	0
1	1016	2214.891347264506	0
1	1018	2215.816986545285	1
1	1021	2229.09866857112	1
1	1022	2238.033234812966	0
1	1040	2280.78927417951	0
1	1041	2280.792710272519	0
1	1051	2288.659915777357	0
1	1052	2296.037651019462	0
1	1078	2325.886460952761	0
1	1082	2335.729066720743	1
1	1087	2342.3991385455	1
1	1088	2344.591500119421	0
1	1091	2363.241703758442	0
1	1093	2369.572912620892	1
1	1098	2379.099901236109	1
1	1101	2381.209812679913	0
1	1107	2385.090107213244	0
1	1114	2406.723059608373	0
1	1120	2420.381264551342	0
1	1125	2435.470646650607	0
1	1131	2438.055371942036	0
1	1132	2444.967091288869	0
1	1134	2446.879911890008	0
1	1135	2450.138023518271	0
2	171	350.916567284451	2.740715074245
2	172	355.689787304325	7.097948842875
2	173	357.204343178517	7.451200718694
2	202	435.211687919477	15.387399377195
2	209	445.534711093745	0.107827632506
2	219	483.944620086349	2.789146286985
2	244	542.944602731948	5.997616673432
2	245	543.500989026236	1.780250433329
2	256	572.906960916426	31.170640961241
2	263	592.047255415783	46.297355689878
2	291	650.560808875221	7.708604417543
2	292	652.933732657028	6.029299741333
2	304	676.089757257931	9.965758739928
2	307	681.021930589481	7.642857539646
2	312	700.557319900575	8.261118304387
2	317	710.784173379763	3.609414962808
2	318	712.541514684402	5.224928405067
2	324	719.385054091349	0.757726392285
2	327	724.492535354833	5.398557113827
2	343	743.58138381884	17.602945731964
2	348	753.636628888685	12.778866979228
2	366	777.74086850804	17.955688962173
2	371	786.947218274752	16.950159794752
2	374	820.735174681801	47.733425586632
2	379	825.647898743654	51.690357317452
2	382	830.271986360927	49.404134722045
2	406	873.33521080375	19.661365381785
2	415	902.688140111224	39.888750269347
2	418	910.381493136205	42.282695296934
2	421	915.987961015174	35.710469195259
2	422	921.30996205494	39.132923951253
2	425	931.834333764451	18.898575565616
2	430	933.632091349596	1.429419336722
2	433	937.475365462952	0.817976173983
2	437	948.783600518714	2.485918075473
2	446	982.341112213375	21.602846760189
2	467	1044.588650353345	2.086054379098
2	476	1063.814045699106	3.361355115139
2	491	1088.246779732374	15.218306940985
2	492	1091.136913222787	17.157163560886
2	505	1117.131117824722	3.837623060731
2	512	1132.049011286345	0.048856154092
2	532	1160.000947166436	5.192875958518
2	533	1167.444340881116	8.897044602301
2	546	1176.112620397074	5.590421191176
2	547	1182.24480958794	10.377331736686
2	560	1198.790414965387	26.655862644977
2	584	1241.2187768043	9.610471087203
2	598	1290.310666658238	1.686423918357
2	648	1392.384183805628	36.347333000506
2	649	1397.184829652032	24.578342206508
2	670	1428.388486894564	22.735367879366
2	673	1448.090342377002	32.70101363607
2	686	1470.981997296017	48.32691130556
2	699	1502.41156151116	79.434573697313
2	706	1509.488860847848	84.456326668868
2	709	1524.54933314459	94.266274074216
2	710	1525.592775291051	72.254700792252
2	711	1526.790497996135	67.93668233358
2	714	1528.686383718504	58.230751269655
2	715	1555.034348293879	61.585012695735
2	730	1584.08975491058	88.037374705055
2	731	1585.67241608669	70.788036536882
2	734	1590.716425658495	62.161101533664
2	735	1596.800592616345	32.426682639941
2	738	1615.82536228893	50.751577842895
2	741	1624.746264885971	55.864648262251
2	752	1635.341446888786	18.451372492245
2	755	1638.260064856448	11.449259679892
2	760	1647.674336950943	14.874376255362
2	767	1671.906288130618	35.082695460661
2	768	1674.96865721102	16.419948806701
2	785	1712.285980158896	25.577805853591
2	796	1733.856448564417	39.677342711238
2	797	1735.23223575744	29.980002584015
2	802	1737.434288978592	17.499837903032
2	805	1752.940664959209	28.343809225329
2	808	1757.863515323883	17.442183724533
2	815	1781.493216192811	24.299159712368
2	830	1829.441317693428	68.159489108586
2	833	1836.663355194472	74.745245932247
2	834	1849.30569799163	17.5314456082
2	847	1872.210549326569	3.497012312878
2	861	1904.152974151237	5.594529375112
2	872	1919.326563803402	8.82031778047
2	892	1974.421778000487	7.813644487995
2	905	1990.877401447742	14.213764571237
2	920	2026.739424908681	5.032748110408
2	944	2078.39004745449	4.430698652205
2	962	2104.513712157418	12.333275226433
2	976	2126.078860424505	7.912817439501
2	998	2173.994886835155	4.840135993523
2	1002	2177.555797736641	0.494490463547
2	1007	2189.450891345099	10.536474950437
2	1013	2201.264229950839	5.449751437124
2	1014	2212.852485103808	12.675312666579
2	1021	2229.09866857112	14.207321306614
2	1022	2238.033234812966	22.216248267681
2	1041	2280.792710272519	0.003436093009
2	1052	2296.037651019462	7.377735242105
2	1087	2342.3991385455	16.512677592739
2	1088	2344.591500119421	8.862433398678
2	1098	2379.099901236109	15.858197477667
2	1101	2381.209812679913	11.636900059021
2	1114	2406.723059608373	21.632952395129
2	1125	2435.470646650607	15.089382099265
2	1132	2444.967091288869	6.911719346833
2	1135	2450.138023518271	3.258111628263
3	171	350.916567284451	2.324728823001
3	172	355.689787304325	5.936644844502
3	199	419.824288542282	0
3	208	445.426883461239	0
3	218	481.155473799364	0
3	239	536.946986058516	0
3	244	542.944602731948	1.223864139041
3	245	543.500989026236	1.764669071051
3	256	572.906960916426	27.157061190521
3	286	642.852204457678	0
3	291	650.560808875221	3.656375959526
3	301	666.123998518003	0
3	304	676.089757257931	2.710684208096
3	311	692.296201596188	0
3	314	707.174758416955	0
3	317	710.784173379763	3.467587100428
3	321	718.627327699064	0
3	324	719.385054091349	0.291075850343
3	330	725.978438086876	0
3	343	743.58138381884	2.723621909383
3	351	759.785179545867	0
3	366	777.74086850804	7.74381002804
3	371	786.947218274752	13.945469179583
3	374	820.735174681801	46.777633255599
3	379	825.647898743654	44.780047104772
3	391	853.673845421965	0
3	406	873.33521080375	10.535820961873
3	415	902.688140111224	34.589342271953
3	418	910.381493136205	30.10400131629
3	421	915.987961015174	33.810922911487
3	422	921.30996205494	8.374203856105
3	427	932.202672012874	0
3	432	936.657389288969	0
3	436	946.297682443241	0
3	441	960.738265453186	0
3	466	1042.502595974247	0
3	475	1060.452690583967	0
3	482	1073.028472791389	0
3	491	1088.246779732374	14.267030070473
3	504	1113.293494763991	0
3	511	1132.000155132253	0
3	527	1154.808071207918	0
3	532	1160.000947166436	1.453650887621
3	537	1170.522199205898	0
3	546	1176.112620397074	4.24514254582
3	547	1182.24480958794	10.11025726753
3	583	1231.608305717097	0
3	597	1288.624242739881	0
3	643	1356.036850805122	0
3	648	1392.384183805628	19.777696360104
3	655	1405.653119015198	0
3	670	1428.388486894564	12.999158153632
3	673	1448.090342377002	25.435256386545
3	686	1470.981997296017	48.00500948217
3	699	1502.41156151116	77.37902733218
3	706	1509.488860847848	79.205801777474
3	709	1524.54933314459	71.211258645791
3	710	1525.592775291051	66.738959628496
3	711	1526.790497996135	56.334865547286
3	714	1528.686383718504	35.23704812036
3	715	1555.034348293879	58.981968088354
3	730	1584.08975491058	69.205375360772
3	731	1585.67241608669	57.117091961859
3	734	1590.716425658495	26.342515682091
3	735	1596.800592616345	31.72680817031
3	738	1615.82536228893	46.94374566521
3	741	1624.746264885971	7.85619048943
3	752	1635.341446888786	8.53064171223
3	755	1638.260064856448	5.460104160867
3	760	1647.674336950943	10.850744280986
3	767	1671.906288130618	13.357579726299
3	774	1686.708174305305	0
3	785	1712.285980158896	18.106874305717
3	796	1733.856448564417	28.604215390992
3	797	1735.23223575744	15.29778468188
3	802	1737.434288978592	12.837433244712
3	805	1752.940664959209	12.519333359859
3	808	1757.863515323883	0.66945884344
3	815	1781.493216192811	20.211387607969
3	830	1829.441317693428	67.523208431203
3	833	1836.663355194472	4.889102811042
3	846	1868.713537013691	0
3	858	1898.558444776125	0
3	871	1910.506246022932	0
3	887	1966.608133512492	0
3	896	1976.663636876505	0
3	917	2021.706676798273	0
3	943	2073.959348802285	0
3	955	2092.180436930985	0
3	971	2118.166042985004	0
3	997	2169.154750841632	0
3	1001	2177.061307273094	0
3	1004	2178.914416394662	0
3	1010	2195.814478513715	0
3	1013	2201.264229950839	1.08705751361
3	1016	2214.891347264506	0
3	1021	2229.09866857112	13.281682025835
3	1040	2280.78927417951	0
3	1051	2288.659915777357	0
3	1078	2325.886460952761	0
3	1087	2342.3991385455	6.670071824757
3	1091	2363.241703758442	0
3	1098	2379.099901236109	9.526988615217
3	1107	2385.090107213244	0
3	1120	2420.381264551342	0
3	1131	2438.055371942036	0
3	1134	2446.879911890008	0
4	173	357.204343178517	7.864199528476
4	176	367.376450425266	0
4	179	384.176460755635	0
4	182	386.695305918133	0.259267230678
4	185	391.952056832985	0
4	188	398.388360470621	4.522244648662
4	191	404.473974224828	0
4	194	410.436848643051	0
4	197	418.962261761174	0
4	202	435.211687919477	15.387399377195
4	203	440.105445524476	10.062774472742
4	206	442.844259929131	1.400452645484
4	209	445.534711093745	0.107827632506
4	212	473.00260902335	0
4	215	475.506228254706	0.136950174969
4	221	493.286867919828	0
4	224	501.939221806893	0
4	227	509.038289566614	0
4	230	518.619025209951	0
4	233	528.562184431506	0
4	236	530.896398739765	0.486912119293
4	263	592.047255415783	43.617568177905
4	266	596.427872644013	43.575681797695
4	269	602.43744045834	43.655277802272
4	270	602.964417317801	43.179292266049
4	275	617.708140986691	43.555957695622
4	276	624.469574798619	42.692434065394
4	277	629.348394994803	37.439871527879
4	278	629.782713367553	34.536828447864
4	279	631.751391854265	32.006698109964
4	280	632.426047697274	18.371074542012
4	281	632.830424231176	18.628633091477
4	284	639.373022439287	0
4	292	652.933732657028	10.08152819935
4	293	653.412580542194	6.231027114704
4	296	658.56165987175	0.149315124374
4	299	662.241880940892	0
4	307	681.021930589481	14.897932071478
4	312	700.557319900575	20.822230230782
4	318	712.541514684402	31.239999813015
4	319	714.190995787865	21.894794191677
4	327	724.492535354833	17.317776937878
4	328	725.07569505828	6.448367359216
4	348	753.636628888685	33.882572018218
4	349	754.714756450386	28.73631836351
4	382	830.271986360927	102.55744554573
4	383	834.63604350908	106.07288485757
4	384	837.820954774124	107.18163292149
4	389	848.123113898014	110.07119682951
4	425	931.834333764451	188.69112143975
4	430	933.632091349596	187.58822414421
4	433	937.475365462952	188.68662708217
4	434	938.705428872944	178.92024932708
4	437	948.783600518714	187.61012473409
4	438	956.094518902685	194.5476078872
4	439	958.222517122119	196.06275606008
4	446	982.341112213375	211.77543613098
4	447	988.732809802244	209.67642141205
4	450	999.077548554109	194.41216081931
4	451	1001.261695713647	180.12021859401
4	452	1001.787042526426	178.67257251843
4	453	1004.874313356393	175.04041079848
4	454	1010.777368351806	168.80061897854
4	455	1012.178568596671	167.42460878686
4	456	1016.158403975341	162.48455855338
4	457	1018.009864393945	160.52579072011
4	458	1019.670913495088	155.58038743773
4	459	1021.985606063809	157.5795125893
4	460	1030.737200710322	166.32715019471
4	461	1031.019943560532	157.86739096484
4	464	1041.392083525971	161.21156286512
4	467	1044.588650353345	152.44551705715
4	468	1045.35888965994	139.45774552308
4	469	1045.809167416211	115.84483487868
4	470	1047.452186606103	115.24951459323
4	471	1054.871378818828	121.85430293012
4	472	1057.549329618773	120.8919403298
4	473	1059.002233710332	112.70455126709
4	476	1063.814045699106	103.07578024592
4	492	1091.136913222787	124.09846085215
4	493	1094.860896389167	124.09413480448
4	494	1099.973995742435	111.14482427164
4	501	1111.530004589576	77.817051349919
4	502	1112.94028844501	70.437692470763
4	505	1117.131117824722	56.678427240755
4	506	1120.252025772773	56.35492197512
4	507	1124.864285933646	57.659228442512
4	508	1127.184234014918	54.155761223529
4	509	1127.485836548739	53.221989527639
4	512	1132.049011286345	55.978589101202
4	515	1139.247548254387	61.014225426626
4	516	1140.908121394908	40.087488339423
4	517	1141.815029881098	40.272509039293
4	518	1143.433355217033	32.091021417916
4	521	1148.282392514455	34.988897750464
4	533	1167.444340881116	35.444185748863
4	534	1168.814984095767	31.463322029521
4	535	1169.664699049107	25.906890654014
4	560	1198.790414965387	50.067874007434
4	561	1204.240487920488	53.634887628701
4	564	1205.169703988475	50.361632780557
4	565	1205.279970335311	49.428999287147
4	572	1219.586717860078	49.06451865418
4	575	1221.862867899542	50.098655878733
4	580	1225.651645748155	52.01322775519
4	581	1231.369508177741	48.325520636427
4	584	1241.2187768043	56.755176505617
4	587	1251.157018680085	64.862327823062
4	588	1252.60248052623	59.17468697462
4	589	1264.726616568428	70.774387547037
4	590	1269.875904536758	71.757239787276
4	591	1278.32211260629	74.080769367368
4	592	1278.727500607322	68.381180118643
4	593	1287.579874711636	73.247250760266
4	594	1288.340506360609	73.509665197093
4	595	1288.477861066148	68.528774143959
4	598	1290.310666658238	67.396370856427
4	601	1291.689089948594	68.395819148243
4	606	1294.893113624612	63.284807907515
4	607	1302.348599543051	53.660394706095
4	608	1303.897057526326	15.272814786445
4	613	1307.002087341613	16.10395721826
4	614	1309.062603904326	17.239441781164
4	615	1311.454488131316	16.878085587789
4	616	1315.747437724356	11.677293042801
4	617	1319.009879951661	13.168964808147
4	622	1327.652597699695	7.895436099299
4	623	1329.591355535198	6.158409660927
4	628	1336.971106796542	7.222483230393
4	629	1339.843985123297	9.161479288034
4	632	1340.718512005517	0
4	635	1345.187440574485	0
4	638	1350.785968730655	0
4	641	1353.287462273704	2.415281422886
4	649	1397.184829652032	41.14797884691
4	650	1397.979745196184	15.372723003571
4	653	1402.29661053132	1.379968106246
4	768	1674.96865721102	269.31553819582
4	771	1678.394452465773	256.28709586198
4	772	1680.769488614466	255.79787404853
4	834	1849.30569799163	423.07616930071
4	835	1850.444573647791	398.97286994465
4	840	1856.120027118441	403.84219283388
4	841	1858.384549704431	395.41937603013
4	844	1865.93121796507	380.41469471647
4	847	1872.210549326569	384.48801087275
4	850	1879.003729335718	391.15963364237
4	853	1885.686816868162	395.76740994897
4	856	1893.013738425359	389.40024269825
4	861	1904.152974151237	399.84974614089
4	862	1905.391247185738	399.6525232034
4	865	1905.919210911952	334.13939918927
4	866	1908.626992611672	335.24839254623
4	867	1909.671015180381	334.80364043684
4	872	1919.326563803402	338.37646226204
4	875	1922.944603416385	333.53259112125
4	878	1932.700016336499	325.92512479491
4	879	1942.368798015984	315.45774480412
4	880	1961.874169282929	329.8265462684
4	881	1962.039939251847	328.23723431983
4	884	1964.645845510972	320.09830089567
4	885	1965.712170911775	320.51234964594
4	892	1974.421778000487	324.3839128028
4	905	1990.877401447742	340.59439718884
4	906	1995.714267661152	318.51044898977
4	907	2002.992270331606	316.2840960263
4	908	2014.370180329382	320.14192688296
4	909	2014.821658897643	319.06880877727
4	912	2018.560602657473	321.63203466701
4	915	2020.784506066395	303.71720825112
4	920	2026.739424908681	301.00140197665
4	921	2029.574113777635	297.04031135633
4	924	2032.428083041276	296.70903561625
4	925	2033.170584817149	296.02350125029
4	926	2036.561164339863	267.62841250952
4	927	2040.125972999464	250.29343436417
4	928	2043.431134720145	243.22920967431
4	929	2043.875265147907	242.47744122854
4	930	2044.677054368614	231.25978646966
4	931	2046.040825938632	225.19487388853
4	932	2050.177013377476	229.0680133354
4	933	2052.613192155423	228.16495335789
4	936	2056.401106302284	204.63773031537
4	937	2059.539200271397	205.77609922013
4	940	2070.358489656631	208.74275529199
4	941	2073.257709103627	204.54417208994
4	944	2078.39004745449	205.78722625647
4	945	2079.052376269996	199.69630268311
4	946	2080.376843707617	193.68848202429
4	947	2080.680216048397	182.12177127227
4	948	2080.873259416169	178.43124036405
4	949	2083.427777422396	177.56646293567
4	952	2085.467577929821	175.69016993398
4	953	2091.505478402313	180.99923237938
4	962	2104.513712157418	182.33101672107
4	963	2109.69289139815	179.53427751189
4	964	2111.715913686063	147.803772363
4	965	2113.89197330386	147.28383979137
4	976	2126.078860424505	152.75988382385
4	977	2126.357441943963	152.9961321764
4	978	2128.601709791545	153.48512767056
4	979	2130.644884807413	153.98124793091
4	980	2137.250174898824	159.67720782556
4	983	2139.196591543269	160.11995635197
4	984	2139.837686004812	154.57574271393
4	985	2140.769991709003	151.46653684876
4	986	2146.157282704988	130.80260077144
4	987	2148.23168663604	127.68324741455
4	988	2150.775469122736	129.06879232446
4	991	2161.859268007681	136.13345327054
4	992	2165.998540125421	133.97945563683
4	995	2167.658287510073	112.15566724346
4	998	2173.994886835155	113.41938325147
4	999	2174.945862066443	100.98651326416
4	1002	2177.555797736641	92.846091358499
4	1007	2189.450891345099	97.270454414114
4	1008	2194.967575453935	102.0277309051
4	1014	2212.852485103808	113.81539568886
4	1022	2238.033234812966	135.44209720195
4	1025	2247.996602013258	131.62782174884
4	1028	2255.136448962519	138.65384791375
4	1029	2255.610960377497	137.44491739249
4	1030	2264.103633618881	144.77956997717
4	1031	2266.113809881239	142.43953523598
4	1034	2274.424358340942	136.38367539556
4	1035	2275.859103271767	124.97346529372
4	1036	2279.596049439783	112.22893476758
4	1041	2280.792710272519	111.63795943089
4	1046	2285.334819028128	108.27351175503
4	1047	2285.805913564549	106.89149716989
4	1052	2296.037651019462	110.00275702158
4	1055	2298.111670703534	102.29719218982
4	1056	2298.562099946947	83.670752682441
4	1057	2298.624174140853	77.397094210532
4	1058	2301.265449230614	62.376179627962
4	1059	2303.629621140385	49.146553042548
4	1060	2304.073922291029	32.99851237428
4	1061	2307.009680128459	26.237854025093
4	1064	2311.423636889593	30.634362710083
4	1069	2315.465106570378	31.601021874385
4	1070	2317.738824821366	33.369074980076
4	1075	2319.398280871006	30.955785014124
4	1076	2322.501440988117	33.84152521076
4	1088	2344.591500119421	47.011254094733
4	1089	2345.852813008658	36.071003146243
4	1101	2381.209812679913	68.436999925041
4	1102	2382.24564870144	68.724325473185
4	1103	2382.906969795288	64.574402341592
4	1114	2406.723059608373	87.854507156198
4	1125	2435.470646650607	109.58418569785
4	1128	2436.146988596356	108.24025716335
4	1129	2436.643658310047	99.777757876313
4	1132	2444.967091288869	105.16326678964
4	1135	2450.138023518271	86.896319759829
4	1136	2451.239064987608	80.0912981676
4	1137	2452.330198863373	81.178164483406
4	1138	2453.04333790111	72.156134119405
4	1145	2469.499540990073	86.310556730266
4	1146	2469.726814254659	84.636707041415
4	1155	2487.951682058541	101.55400829887
4	1156	2489.128382860972	98.009750650532
4	1157	2495.301902812439	94.710596914056
5	174	357.916424860284	36
5	177	374.214448602846	37
5	182	386.695305918133	38
5	183	389.234562798553	39
5	188	398.388360470621	40
5	189	403.073717053572	41
5	192	408.006834514268	42
5	195	416.955013107115	43
5	203	440.105445524476	44
5	206	442.844259929131	45
5	210	447.147673956547	46
5	215	475.506228254706	47
5	216	478.252819204791	48
5	222	494.608144913463	49
5	225	503.349809996756	50
5	228	511.952266703662	51
5	231	524.594767862017	52
5	236	530.896398739765	53
5	237	531.47715146688	54
5	266	596.427872644013	55
5	269	602.43744045834	56
5	270	602.964417317801	57
5	275	617.708140986691	58
5	276	624.469574798619	59
5	277	629.348394994803	60
5	278	629.782713367553	61
5	279	631.751391854265	62
5	280	632.426047697274	63
5	281	632.830424231176	64
5	282	634.780043206682	65
5	293	653.412580542194	66
5	296	658.56165987175	67
5	297	661.703479153815	68
5	319	714.190995787865	69
5	328	725.07569505828	70
5	349	754.714756450386	71
5	383	834.63604350908	72
5	384	837.820954774124	73
5	389	848.123113898014	74
5	434	938.705428872944	75
5	438	956.094518902685	76
5	439	958.222517122119	77
5	447	988.732809802244	78
5	450	999.077548554109	79
5	451	1001.261695713647	80
5	452	1001.787042526426	81
5	453	1004.874313356393	82
5	454	1010.777368351806	83
5	455	1012.178568596671	84
5	456	1016.158403975341	85
5	457	1018.009864393945	86
5	458	1019.670913495088	87
5	459	1021.985606063809	88
5	460	1030.737200710322	89
5	461	1031.019943560532	90
5	464	1041.392083525971	91
5	468	1045.35888965994	92
5	469	1045.809167416211	93
5	470	1047.452186606103	94
5	471	1054.871378818828	95
5	472	1057.549329618773	96
5	473	1059.002233710332	97
5	493	1094.860896389167	98
5	494	1099.973995742435	99
5	501	1111.530004589576	100
5	502	1112.94028844501	101
5	506	1120.252025772773	102
5	507	1124.864285933646	103
5	508	1127.184234014918	104
5	509	1127.485836548739	105
5	515	1139.247548254387	106
5	516	1140.908121394908	107
5	517	1141.815029881098	108
5	518	1143.433355217033	109
5	521	1148.282392514455	110
5	534	1168.814984095767	111
5	535	1169.664699049107	112
5	561	1204.240487920488	113
5	564	1205.169703988475	114
5	565	1205.279970335311	115
5	572	1219.586717860078	116
5	575	1221.862867899542	117
5	580	1225.651645748155	118
5	581	1231.369508177741	119
5	587	1251.157018680085	120
5	588	1252.60248052623	121
5	589	1264.726616568428	122
5	590	1269.875904536758	123
5	591	1278.32211260629	124
5	592	1278.727500607322	125
5	593	1287.579874711636	126
5	594	1288.340506360609	127
5	595	1288.477861066148	128
5	601	1291.689089948594	129
5	606	1294.893113624612	130
5	607	1302.348599543051	131
5	608	1303.897057526326	132
5	613	1307.002087341613	133
5	614	1309.062603904326	134
5	615	1311.454488131316	135
5	616	1315.747437724356	136
5	617	1319.009879951661	137
5	622	1327.652597699695	138
5	623	1329.591355535198	139
5	628	1336.971106796542	140
5	629	1339.843985123297	141
5	630	1340.532623873598	142
5	633	1344.803784902136	143
5	636	1345.896131616664	144
5	641	1353.287462273704	145
5	650	1397.979745196184	146
5	653	1402.29661053132	147
5	771	1678.394452465773	148
5	772	1680.769488614466	149
5	835	1850.444573647791	150
5	840	1856.120027118441	151
5	841	1858.384549704431	152
5	844	1865.93121796507	153
5	850	1879.003729335718	154
5	853	1885.686816868162	155
5	856	1893.013738425359	156
5	862	1905.391247185738	157
5	865	1905.919210911952	158
5	866	1908.626992611672	159
5	867	1909.671015180381	160
5	875	1922.944603416385	161
5	878	1932.700016336499	162
5	879	1942.368798015984	163
5	880	1961.874169282929	164
5	881	1962.039939251847	165
5	884	1964.645845510972	166
5	885	1965.712170911775	167
5	906	1995.714267661152	168
5	907	2002.992270331606	169
5	908	2014.370180329382	170
5	909	2014.821658897643	171
5	912	2018.560602657473	172
5	915	2020.784506066395	173
5	921	2029.574113777635	174
5	924	2032.428083041276	175
5	925	2033.170584817149	176
5	926	2036.561164339863	177
5	927	2040.125972999464	178
5	928	2043.431134720145	179
5	929	2043.875265147907	180
5	930	2044.677054368614	181
5	931	2046.040825938632	182
5	932	2050.177013377476	183
5	933	2052.613192155423	184
5	936	2056.401106302284	185
5	937	2059.539200271397	186
5	940	2070.358489656631	187
5	941	2073.257709103627	188
5	945	2079.052376269996	189
5	946	2080.376843707617	190
5	947	2080.680216048397	191
5	948	2080.873259416169	192
5	949	2083.427777422396	193
5	952	2085.467577929821	194
5	953	2091.505478402313	195
5	963	2109.69289139815	196
5	964	2111.715913686063	197
5	965	2113.89197330386	198
5	977	2126.357441943963	199
5	978	2128.601709791545	200
5	979	2130.644884807413	201
5	980	2137.250174898824	202
5	983	2139.196591543269	203
5	984	2139.837686004812	204
5	985	2140.769991709003	205
5	986	2146.157282704988	206
5	987	2148.23168663604	207
5	988	2150.775469122736	208
5	991	2161.859268007681	209
5	992	2165.998540125421	210
5	995	2167.658287510073	211
5	999	2174.945862066443	212
5	1008	2194.967575453935	213
5	1025	2247.996602013258	214
5	1028	2255.136448962519	215
5	1029	2255.610960377497	216
5	1030	2264.103633618881	217
5	1031	2266.113809881239	218
5	1034	2274.424358340942	219
5	1035	2275.859103271767	220
5	1036	2279.596049439783	221
5	1046	2285.334819028128	222
5	1047	2285.805913564549	223
5	1055	2298.111670703534	224
5	1056	2298.562099946947	225
5	1057	2298.624174140853	226
5	1058	2301.265449230614	227
5	1059	2303.629621140385	228
5	1060	2304.073922291029	229
5	1061	2307.009680128459	230
5	1064	2311.423636889593	231
5	1069	2315.465106570378	232
5	1070	2317.738824821366	233
5	1075	2319.398280871006	234
5	1076	2322.501440988117	235
5	1089	2345.852813008658	236
5	1102	2382.24564870144	237
5	1103	2382.906969795288	238
5	1128	2436.146988596356	239
5	1129	2436.643658310047	240
5	1136	2451.239064987608	241
5	1137	2452.330198863373	242
5	1138	2453.04333790111	243
5	1145	2469.499540990073	244
5	1146	2469.726814254659	245
5	1155	2487.951682058541	246
5	1156	2489.128382860972	247
5	1157	2495.301902812439	248
6	174	357.916424860284	0
6	176	367.376450425266	0
6	177	374.214448602846	0
6	179	384.176460755635	0
6	181	386.436038687455	1
6	182	386.695305918133	1
6	183	389.234562798553	0
6	185	391.952056832985	0
6	187	393.866115821959	1
6	188	398.388360470621	1
6	189	403.073717053572	0
6	191	404.473974224828	0
6	192	408.006834514268	0
6	194	410.436848643051	0
6	195	416.955013107115	0
6	197	418.962261761174	0
6	201	430.042671051734	1
6	203	440.105445524476	1
6	205	441.443807283647	1
6	206	442.844259929131	1
6	210	447.147673956547	0
6	212	473.00260902335	0
6	214	475.369278079737	1
6	215	475.506228254706	1
6	216	478.252819204791	0
6	221	493.286867919828	0
6	222	494.608144913463	0
6	224	501.939221806893	0
6	225	503.349809996756	0
6	227	509.038289566614	0
6	228	511.952266703662	0
6	230	518.619025209951	0
6	231	524.594767862017	0
6	233	528.562184431506	0
6	235	530.409486620472	1
6	236	530.896398739765	1
6	237	531.47715146688	0
6	249	548.429687237878	0
6	251	552.852190846318	1
6	253	558.782162656068	2
6	255	559.785125051752	3
6	258	574.152183291069	4
6	260	581.777140733225	5
6	262	591.908523466924	6
6	265	595.245884919689	7
6	266	596.427872644013	7
6	268	599.744693744301	7
6	269	602.43744045834	7
6	270	602.964417317801	6
6	272	614.054973155262	6
6	274	614.201791139699	7
6	275	617.708140986691	7
6	276	624.469574798619	6
6	277	629.348394994803	5
6	278	629.782713367553	4
6	279	631.751391854265	3
6	280	632.426047697274	2
6	281	632.830424231176	1
6	282	634.780043206682	0
6	284	639.373022439287	0
6	290	647.18155342749	1
6	293	653.412580542194	1
6	295	658.412344747376	1
6	296	658.56165987175	1
6	297	661.703479153815	0
6	299	662.241880940892	0
6	306	679.735089669793	1
6	309	681.301514871387	2
6	319	714.190995787865	2
6	326	719.754056870467	2
6	328	725.07569505828	2
6	332	727.714540815194	2
6	334	728.563158651515	3
6	336	730.639321852629	4
6	338	738.051917068501	5
6	342	743.143212324701	6
6	345	746.043867205386	7
6	347	748.788738380785	8
6	349	754.714756450386	8
6	353	761.173475784625	8
6	355	761.546911015483	9
6	357	762.159761062042	10
6	361	770.565676082391	11
6	368	779.056388390191	12
6	373	804.665387734801	13
6	376	821.141477119636	14
6	378	823.114470007992	15
6	381	829.833902557911	16
6	383	834.63604350908	16
6	384	837.820954774124	15
6	386	841.976749373265	15
6	388	844.753959809814	16
6	389	848.123113898014	16
6	393	857.484073673838	16
6	397	864.090526057359	17
6	399	864.406093474509	18
6	401	864.410050515611	19
6	405	873.152552595688	20
6	408	880.180520660851	21
6	414	892.143133296193	22
6	417	905.901144136857	23
6	424	929.964332537532	24
6	429	933.017075888709	25
6	434	938.705428872944	25
6	438	956.094518902685	24
6	439	958.222517122119	23
6	443	967.038452370635	23
6	445	970.766761584691	24
6	447	988.732809802244	24
6	449	988.829171470794	24
6	450	999.077548554109	24
6	451	1001.261695713647	23
6	452	1001.787042526426	22
6	453	1004.874313356393	21
6	454	1010.777368351806	20
6	455	1012.178568596671	19
6	456	1016.158403975341	18
6	457	1018.009864393945	17
6	458	1019.670913495088	16
6	459	1021.985606063809	15
6	460	1030.737200710322	14
6	461	1031.019943560532	13
6	463	1033.712953239657	13
6	464	1041.392083525971	13
6	468	1045.35888965994	12
6	469	1045.809167416211	11
6	470	1047.452186606103	10
6	471	1054.871378818828	9
6	472	1057.549329618773	8
6	473	1059.002233710332	7
6	478	1063.897103797653	7
6	480	1067.205057491134	8
6	486	1074.2638470211	9
6	488	1076.070422185143	10
6	490	1078.233322827761	11
6	493	1094.860896389167	11
6	494	1099.973995742435	10
6	496	1100.820633055485	10
6	498	1101.542520841805	11
6	500	1111.342333799117	12
6	501	1111.530004589576	12
6	502	1112.94028844501	11
6	506	1120.252025772773	10
6	507	1124.864285933646	9
6	508	1127.184234014918	8
6	509	1127.485836548739	7
6	514	1137.351662066246	7
6	515	1139.247548254387	7
6	516	1140.908121394908	6
6	517	1141.815029881098	5
6	518	1143.433355217033	4
6	520	1143.757808395093	4
6	521	1148.282392514455	4
6	523	1148.722540957953	4
6	525	1150.605600291787	5
6	529	1155.850971048164	6
6	534	1168.814984095767	6
6	535	1169.664699049107	5
6	539	1171.764212020809	5
6	545	1173.638417992965	6
6	549	1183.043987541314	7
6	551	1184.463600298683	8
6	553	1186.294690857023	9
6	555	1193.42779355161	10
6	557	1193.952229021391	11
6	559	1198.118664749482	12
6	561	1204.240487920488	12
6	563	1204.241343238922	12
6	564	1205.169703988475	12
6	565	1205.279970335311	11
6	567	1210.346320488679	11
6	569	1214.33262395137	12
6	571	1214.830841163516	13
6	572	1219.586717860078	13
6	574	1219.949086922189	13
6	575	1221.862867899542	13
6	577	1222.914295801811	13
6	579	1223.293270800351	14
6	580	1225.651645748155	14
6	581	1231.369508177741	13
6	586	1248.688204836956	13
6	587	1251.157018680085	13
6	588	1252.60248052623	12
6	589	1264.726616568428	11
6	590	1269.875904536758	10
6	591	1278.32211260629	9
6	592	1278.727500607322	8
6	593	1287.579874711636	7
6	594	1288.340506360609	6
6	595	1288.477861066148	5
6	600	1290.898130123353	5
6	601	1291.689089948594	5
6	603	1291.823162123162	5
6	605	1294.576402543527	6
6	606	1294.893113624612	6
6	607	1302.348599543051	5
6	608	1303.897057526326	4
6	610	1304.070144681555	4
6	612	1305.840915143514	5
6	613	1307.002087341613	5
6	614	1309.062603904326	4
6	615	1311.454488131316	3
6	616	1315.747437724356	2
6	617	1319.009879951661	1
6	619	1319.757161600396	1
6	621	1323.432945874271	2
6	622	1327.652597699695	2
6	623	1329.591355535198	1
6	625	1329.748623566149	1
6	627	1330.682505835263	2
6	628	1336.971106796542	2
6	629	1339.843985123297	1
6	630	1340.532623873598	0
6	632	1340.718512005517	0
6	633	1344.803784902136	0
6	635	1345.187440574485	0
6	636	1345.896131616664	0
6	638	1350.785968730655	0
6	640	1350.872180850818	1
6	641	1353.287462273704	1
6	647	1382.607022192613	1
6	650	1397.979745196184	1
6	652	1400.916642425074	1
6	653	1402.29661053132	1
6	659	1422.107356603794	1
6	665	1424.971614565931	2
6	669	1426.229528690923	3
6	675	1451.471703703142	4
6	677	1452.277834284563	5
6	683	1462.965173674297	6
6	688	1485.516523248597	7
6	690	1487.722538453823	8
6	692	1487.844095693352	9
6	694	1489.919406919192	10
6	701	1503.613495727106	11
6	703	1504.303228010345	12
6	705	1505.738723982334	13
6	723	1571.779811722683	14
6	725	1573.37860006544	15
6	727	1574.86737474354	16
6	729	1580.95010154136	17
6	733	1589.412012295137	18
6	737	1606.774891541585	19
6	745	1626.911053211865	20
6	747	1632.047623014525	21
6	751	1633.802704932022	22
6	757	1644.547544615298	23
6	759	1645.199821265832	24
6	762	1650.037865197686	25
6	764	1650.283004258902	26
6	770	1677.203818671379	27
6	771	1678.394452465773	27
6	772	1680.769488614466	26
6	778	1694.228253446423	26
6	780	1695.752850120378	27
6	782	1696.928567990461	28
6	787	1717.067297815278	29
6	793	1725.738022932032	30
6	795	1732.5338024213	31
6	799	1735.719047425022	32
6	801	1737.147083566854	33
6	814	1768.93275183034	34
6	817	1789.832538635294	35
6	819	1800.201925045835	36
6	821	1801.397823919369	37
6	823	1813.417267898949	38
6	825	1820.845952050105	39
6	827	1821.109000042073	40
6	829	1824.448238797531	41
6	835	1850.444573647791	41
6	837	1851.763375986915	41
6	839	1853.763101051265	42
6	840	1856.120027118441	42
6	841	1858.384549704431	41
6	843	1861.615734364642	41
6	844	1865.93121796507	41
6	849	1872.60282119802	41
6	850	1879.003729335718	41
6	852	1879.356073586884	41
6	853	1885.686816868162	41
6	855	1886.688361683324	41
6	856	1893.013738425359	41
6	860	1902.442019052124	41
6	862	1905.391247185738	41
6	864	1905.861314486726	41
6	865	1905.919210911952	41
6	866	1908.626992611672	40
6	867	1909.671015180381	39
6	869	1909.777407995839	39
6	874	1922.182695436346	40
6	875	1922.944603416385	40
6	877	1930.15861388626	40
6	878	1932.700016336499	40
6	879	1942.368798015984	39
6	880	1961.874169282929	38
6	881	1962.039939251847	37
6	883	1963.91214132306	37
6	884	1964.645845510972	37
6	885	1965.712170911775	36
6	889	1973.318976600654	36
6	891	1973.361309767564	37
6	894	1975.116582120982	38
6	898	1977.572967073261	39
6	900	1979.076635191296	40
6	902	1985.261943290884	41
6	904	1989.30345486024	42
6	906	1995.714267661152	42
6	907	2002.992270331606	41
6	908	2014.370180329382	40
6	909	2014.821658897643	39
6	911	2015.354681933544	39
6	912	2018.560602657473	39
6	914	2020.548439221487	39
6	915	2020.784506066395	39
6	919	2025.725814737138	39
6	921	2029.574113777635	39
6	923	2032.01908448859	39
6	924	2032.428083041276	39
6	925	2033.170584817149	38
6	926	2036.561164339863	37
6	927	2040.125972999464	36
6	928	2043.431134720145	35
6	929	2043.875265147907	34
6	930	2044.677054368614	33
6	931	2046.040825938632	32
6	932	2050.177013377476	31
6	933	2052.613192155423	30
6	935	2055.502620266609	30
6	936	2056.401106302284	30
6	937	2059.539200271397	29
6	939	2060.575503583687	29
6	940	2070.358489656631	29
6	941	2073.257709103627	28
6	945	2079.052376269996	27
6	946	2080.376843707617	26
6	947	2080.680216048397	25
6	948	2080.873259416169	24
6	949	2083.427777422396	23
6	951	2084.709706378142	23
6	952	2085.467577929821	23
6	953	2091.505478402313	22
6	957	2092.939844548836	22
6	959	2099.037089414943	23
6	961	2102.591137611019	24
6	963	2109.69289139815	24
6	964	2111.715913686063	23
6	965	2113.89197330386	22
6	967	2116.368780264422	22
6	969	2116.482601048769	23
6	973	2119.324063641712	24
6	975	2123.674274645256	25
6	977	2126.357441943963	25
6	978	2128.601709791545	24
6	979	2130.644884807413	23
6	980	2137.250174898824	22
6	982	2138.040682945383	22
6	983	2139.196591543269	22
6	984	2139.837686004812	21
6	985	2140.769991709003	20
6	986	2146.157282704988	19
6	987	2148.23168663604	18
6	988	2150.775469122736	17
6	990	2150.885637978048	17
6	991	2161.859268007681	17
6	992	2165.998540125421	16
6	994	2167.367114672204	16
6	995	2167.658287510073	16
6	999	2174.945862066443	15
6	1006	2186.034893997877	15
6	1008	2194.967575453935	15
6	1020	2221.227079930321	15
6	1024	2238.889269602652	16
6	1025	2247.996602013258	16
6	1027	2254.483068097837	16
6	1028	2255.136448962519	16
6	1029	2255.610960377497	15
6	1030	2264.103633618881	14
6	1031	2266.113809881239	13
6	1033	2271.075409916749	13
6	1034	2274.424358340942	13
6	1035	2275.859103271767	12
6	1036	2279.596049439783	11
6	1038	2280.771826103366	11
6	1043	2283.864084695993	12
6	1045	2284.36974984129	13
6	1046	2285.334819028128	13
6	1047	2285.805913564549	12
6	1049	2288.442495856882	12
6	1054	2297.580246024688	13
6	1055	2298.111670703534	13
6	1056	2298.562099946947	12
6	1057	2298.624174140853	11
6	1058	2301.265449230614	10
6	1059	2303.629621140385	9
6	1060	2304.073922291029	8
6	1061	2307.009680128459	7
6	1063	2309.781809862415	7
6	1064	2311.423636889593	7
6	1066	2312.772812754872	7
6	1068	2313.521323228255	8
6	1069	2315.465106570378	8
6	1070	2317.738824821366	7
6	1072	2318.332567453696	7
6	1074	2318.868552452175	8
6	1075	2319.398280871006	8
6	1076	2322.501440988117	7
6	1080	2327.906731433003	7
6	1084	2336.865900433734	8
6	1086	2339.803824499231	9
6	1089	2345.852813008658	9
6	1095	2371.147766820008	9
6	1097	2371.152034379967	10
6	1100	2380.887203781705	11
6	1102	2382.24564870144	11
6	1103	2382.906969795288	10
6	1105	2383.188984259807	10
6	1109	2386.397673759669	11
6	1111	2391.11863221044	12
6	1113	2400.591305898383	13
6	1116	2407.515928351927	14
6	1118	2418.130008716	15
6	1122	2423.878827139453	16
6	1124	2430.033569373347	17
6	1127	2435.545057738834	18
6	1128	2436.146988596356	18
6	1129	2436.643658310047	17
6	1136	2451.239064987608	16
6	1137	2452.330198863373	15
6	1138	2453.04333790111	14
6	1140	2457.691458169595	14
6	1142	2461.138953990144	15
6	1144	2462.293654580893	16
6	1145	2469.499540990073	16
6	1146	2469.726814254659	15
6	1148	2473.557527797445	15
6	1150	2474.41331895417	16
6	1152	2483.314383275376	17
6	1154	2487.898238471302	18
6	1155	2487.951682058541	18
6	1156	2489.128382860972	17
6	1157	2495.301902812439	16
7	174	357.916424860284	8.576281210243
7	177	374.214448602846	6.83799817758
7	182	386.695305918133	2.518845162498
7	183	389.234562798553	2.798524111098
7	188	398.388360470621	6.436303637636
7	189	403.073717053572	9.207601231613
7	192	408.006834514268	3.53286028944
7	195	416.955013107115	6.518164464064
7	203	440.105445524476	20.281156982194
7	206	442.844259929131	12.801588877397
7	210	447.147673956547	1.720790495308
7	215	475.506228254706	2.503619231356
7	216	478.252819204791	2.883541125054
7	222	494.608144913463	1.321276993635
7	225	503.349809996756	1.410588189863
7	228	511.952266703662	2.913977137048
7	231	524.594767862017	5.975742652066
7	236	530.896398739765	2.334214308259
7	237	531.47715146688	1.067664846408
7	266	596.427872644013	47.998185406135
7	269	602.43744045834	49.585249612022
7	270	602.964417317801	44.182254661733
7	275	617.708140986691	57.923015934939
7	276	624.469574798619	50.31739150755
7	277	629.348394994803	47.571254261578
7	278	629.782713367553	37.874189900629
7	279	631.751391854265	36.505506934576
7	280	632.426047697274	32.681353952973
7	281	632.830424231176	18.775451075914
7	282	634.780043206682	20.578252066983
7	293	653.412580542194	10.560376084516
7	296	658.56165987175	11.38010644426
7	297	661.703479153815	3.291134406439
7	319	714.190995787865	32.889480916478
7	328	725.07569505828	17.900936641325
7	349	754.714756450386	34.960699579919
7	383	834.63604350908	106.92150269389
7	384	837.820954774124	109.25779612261
7	389	848.123113898014	117.48379204539
7	434	938.705428872944	189.91669049216
7	438	956.094518902685	194.92104311806
7	439	958.222517122119	196.67560610664
7	447	988.732809802244	218.16713371985
7	450	999.077548554109	220.02116016392
7	451	1001.261695713647	196.59630797885
7	452	1001.787042526426	180.64556540679
7	453	1004.874313356393	181.7598433484
7	454	1010.777368351806	180.9434657939
7	455	1012.178568596671	170.20181922341
7	456	1016.158403975341	171.40444416553
7	457	1018.009864393945	164.33601897198
7	458	1019.670913495088	162.18683982125
7	459	1021.985606063809	157.89508000645
7	460	1030.737200710322	166.33110723581
7	461	1031.019943560532	166.60989304492
7	464	1041.392083525971	168.23953093028
7	468	1045.35888965994	153.21575636375
7	469	1045.809167416211	139.90802327935
7	470	1047.452186606103	117.48785406857
7	471	1054.871378818828	122.66870680595
7	472	1057.549329618773	124.53225373006
7	473	1059.002233710332	122.34484442136
7	493	1094.860896389167	127.82244401853
7	494	1099.973995742435	129.20723415774
7	501	1111.530004589576	122.70083311878
7	502	1112.94028844501	79.227335205353
7	506	1120.252025772773	59.799335188806
7	507	1124.864285933646	60.967182135993
7	508	1127.184234014918	59.979176523784
7	509	1127.485836548739	54.45736375735
7	515	1139.247548254387	63.177126069244
7	516	1140.908121394908	62.674798567147
7	517	1141.815029881098	40.994396825613
7	518	1143.433355217033	41.890834375228
7	521	1148.282392514455	36.940058715338
7	534	1168.814984095767	36.814828963514
7	535	1169.664699049107	32.313036982861
7	561	1204.240487920488	55.517946962535
7	564	1205.169703988475	54.564103696688
7	565	1205.279970335311	50.471899127393
7	572	1219.586717860078	63.735746811914
7	575	1221.862867899542	51.340668693644
7	580	1225.651645748155	53.887433727346
7	581	1231.369508177741	57.731090184776
7	587	1251.157018680085	66.693418381402
7	588	1252.60248052623	66.307789669207
7	589	1264.726616568428	71.298823016818
7	590	1269.875904536758	75.923675515367
7	591	1278.32211260629	80.203447856808
7	592	1278.727500607322	74.4861573684
7	593	1287.579874711636	77.233554222957
7	594	1288.340506360609	74.007882409239
7	595	1288.477861066148	73.647019902632
7	601	1291.689089948594	68.774794146783
7	606	1294.893113624612	71.599842824261
7	607	1302.348599543051	70.740293825954
7	608	1303.897057526326	55.20885268937
7	613	1307.002087341613	18.377844601732
7	614	1309.062603904326	18.164473780973
7	615	1311.454488131316	19.631326008154
7	616	1315.747437724356	21.171035180829
7	617	1319.009879951661	14.939735270106
7	622	1327.652597699695	21.811682556181
7	623	1329.591355535198	9.834193934802
7	628	1336.971106796542	13.538160922271
7	629	1339.843985123297	10.095361557148
7	630	1340.532623873598	9.850118038335
7	633	1344.803784902136	4.085272896619
7	636	1345.896131616664	0.708691042179
7	641	1353.287462273704	2.501493543049
7	650	1397.979745196184	41.942894391062
7	653	1402.29661053132	19.689588338707
7	771	1678.394452465773	272.74133345057
7	772	1680.769488614466	258.66213201067
7	835	1850.444573647791	424.21504495687
7	840	1856.120027118441	404.6483234153
7	841	1858.384549704431	406.10671541987
7	844	1865.93121796507	402.96604429077
7	850	1879.003729335718	391.28119088189
7	853	1885.686816868162	397.84272117481
7	856	1893.013738425359	403.09433150617
7	862	1905.391247185738	401.08801917539
7	865	1905.919210911952	400.18048692962
7	866	1908.626992611672	336.84718088899
7	867	1909.671015180381	336.29241511494
7	875	1922.944603416385	341.99450187502
7	878	1932.700016336499	343.28800404136
7	879	1942.368798015984	335.5939064744
7	880	1961.874169282929	334.96311607106
7	881	1962.039939251847	329.99231623732
7	884	1964.645845510972	330.84314057895
7	885	1965.712170911775	321.16462629648
7	906	1995.714267661152	345.43126340225
7	907	2002.992270331606	325.78845166023
7	908	2014.370180329382	327.66200602408
7	909	2014.821658897643	320.59340545122
7	912	2018.560602657473	322.80775253709
7	915	2020.784506066395	323.85593807593
7	921	2029.574113777635	303.8360908456
7	924	2032.428083041276	299.89428061998
7	925	2033.170584817149	297.45153739213
7	926	2036.561164339863	299.41408077301
7	927	2040.125972999464	271.19322116912
7	928	2043.431134720145	253.59859608485
7	929	2043.875265147907	243.67334010207
7	930	2044.677054368614	243.27923044925
7	931	2046.040825938632	232.62355803968
7	932	2050.177013377476	229.33106132737
7	933	2052.613192155423	231.50419211335
7	936	2056.401106302284	231.95286750475
7	937	2059.539200271397	207.77582428448
7	940	2070.358489656631	216.59538860537
7	941	2073.257709103627	211.64197473898
7	945	2079.052376269996	206.44955507198
7	946	2080.376843707617	201.02077012073
7	947	2080.680216048397	193.99185436507
7	948	2080.873259416169	182.31481464004
7	949	2083.427777422396	180.98575837027
7	952	2085.467577929821	179.6062634431
7	953	2091.505478402313	181.72807040647
7	963	2109.69289139815	187.5101959618
7	964	2111.715913686063	181.5572997998
7	965	2113.89197330386	149.9798319808
7	977	2126.357441943963	153.03846534331
7	978	2128.601709791545	155.24040002398
7	979	2130.644884807413	155.52830268643
7	980	2137.250174898824	160.58653802232
7	983	2139.196591543269	161.62362447001
7	984	2139.837686004812	160.76105081352
7	985	2140.769991709003	155.50804841812
7	986	2146.157282704988	156.85382784475
7	987	2148.23168663604	132.8770047025
7	988	2150.775469122736	130.22702990125
7	991	2161.859268007681	140.15259120941
7	992	2165.998540125421	140.27272538828
7	995	2167.658287510073	135.63920302148
7	999	2174.945862066443	114.37035848276
7	1008	2194.967575453935	102.78713852295
7	1025	2247.996602013258	145.40546440224
7	1028	2255.136448962519	138.7676686981
7	1029	2255.610960377497	139.12835932873
7	1030	2264.103633618881	145.93759063388
7	1031	2266.113809881239	146.78974623953
7	1034	2274.424358340942	150.75008369569
7	1035	2275.859103271767	137.81842032638
7	1036	2279.596049439783	128.71041146173
7	1046	2285.334819028128	116.1800681865
7	1047	2285.805913564549	108.74460629145
7	1055	2298.111670703534	112.07677670566
7	1056	2298.562099946947	102.74762143323
7	1057	2298.624174140853	83.732826876347
7	1058	2301.265449230614	80.038369300293
7	1059	2303.629621140385	64.740351537733
7	1060	2304.073922291029	49.590854193192
7	1061	2307.009680128459	35.93427021171
7	1064	2311.423636889593	30.651810786227
7	1069	2315.465106570378	34.675832390868
7	1070	2317.738824821366	33.874740125373
7	1075	2319.398280871006	35.028531029716
7	1076	2322.501440988117	34.058945131235
7	1089	2345.852813008658	48.27256698397
7	1102	2382.24564870144	69.472835946568
7	1103	2382.906969795288	69.385646567033
7	1128	2436.146988596356	110.26052764359
7	1129	2436.643658310047	108.73692687704
7	1136	2451.239064987608	87.997361229166
7	1137	2452.330198863373	81.182432043365
7	1138	2453.04333790111	81.891303521143
7	1145	2469.499540990073	88.612337208368
7	1146	2469.726814254659	86.537829994852
7	1155	2487.951682058541	102.8615748453
7	1156	2489.128382860972	102.7307091013
7	1157	2495.301902812439	104.183270602
8	176	367.376450425266	1
8	179	384.176460755635	1
8	181	386.436038687455	2
8	185	391.952056832985	1
8	187	393.866115821959	2
8	191	404.473974224828	1
8	194	410.436848643051	1
8	197	418.962261761174	1
8	201	430.042671051734	2
8	205	441.443807283647	2
8	212	473.00260902335	1
8	214	475.369278079737	2
8	221	493.286867919828	1
8	224	501.939221806893	1
8	227	509.038289566614	1
8	230	518.619025209951	1
8	233	528.562184431506	1
8	235	530.409486620472	2
8	249	548.429687237878	1
8	251	552.852190846318	2
8	253	558.782162656068	3
8	255	559.785125051752	4
8	258	574.152183291069	5
8	260	581.777140733225	6
8	262	591.908523466924	7
8	265	595.245884919689	8
8	268	599.744693744301	8
8	272	614.054973155262	7
8	274	614.201791139699	8
8	284	639.373022439287	1
8	290	647.18155342749	2
8	295	658.412344747376	2
8	299	662.241880940892	1
8	306	679.735089669793	2
8	309	681.301514871387	3
8	326	719.754056870467	3
8	332	727.714540815194	3
8	334	728.563158651515	4
8	336	730.639321852629	5
8	338	738.051917068501	6
8	342	743.143212324701	7
8	345	746.043867205386	8
8	347	748.788738380785	9
8	353	761.173475784625	9
8	355	761.546911015483	10
8	357	762.159761062042	11
8	361	770.565676082391	12
8	368	779.056388390191	13
8	373	804.665387734801	14
8	376	821.141477119636	15
8	378	823.114470007992	16
8	381	829.833902557911	17
8	386	841.976749373265	16
8	388	844.753959809814	17
8	393	857.484073673838	17
8	397	864.090526057359	18
8	399	864.406093474509	19
8	401	864.410050515611	20
8	405	873.152552595688	21
8	408	880.180520660851	22
8	414	892.143133296193	23
8	417	905.901144136857	24
8	424	929.964332537532	25
8	429	933.017075888709	26
8	443	967.038452370635	24
8	445	970.766761584691	25
8	449	988.829171470794	25
8	463	1033.712953239657	14
8	478	1063.897103797653	8
8	480	1067.205057491134	9
8	486	1074.2638470211	10
8	488	1076.070422185143	11
8	490	1078.233322827761	12
8	496	1100.820633055485	11
8	498	1101.542520841805	12
8	500	1111.342333799117	13
8	514	1137.351662066246	8
8	520	1143.757808395093	5
8	523	1148.722540957953	5
8	525	1150.605600291787	6
8	529	1155.850971048164	7
8	539	1171.764212020809	6
8	545	1173.638417992965	7
8	549	1183.043987541314	8
8	551	1184.463600298683	9
8	553	1186.294690857023	10
8	555	1193.42779355161	11
8	557	1193.952229021391	12
8	559	1198.118664749482	13
8	563	1204.241343238922	13
8	567	1210.346320488679	12
8	569	1214.33262395137	13
8	571	1214.830841163516	14
8	574	1219.949086922189	14
8	577	1222.914295801811	14
8	579	1223.293270800351	15
8	586	1248.688204836956	14
8	600	1290.898130123353	6
8	603	1291.823162123162	6
8	605	1294.576402543527	7
8	610	1304.070144681555	5
8	612	1305.840915143514	6
8	619	1319.757161600396	2
8	621	1323.432945874271	3
8	625	1329.748623566149	2
8	627	1330.682505835263	3
8	632	1340.718512005517	1
8	635	1345.187440574485	1
8	638	1350.785968730655	1
8	640	1350.872180850818	2
8	647	1382.607022192613	2
8	652	1400.916642425074	2
8	659	1422.107356603794	2
8	665	1424.971614565931	3
8	669	1426.229528690923	4
8	675	1451.471703703142	5
8	677	1452.277834284563	6
8	683	1462.965173674297	7
8	688	1485.516523248597	8
8	690	1487.722538453823	9
8	692	1487.844095693352	10
8	694	1489.919406919192	11
8	701	1503.613495727106	12
8	703	1504.303228010345	13
8	705	1505.738723982334	14
8	723	1571.779811722683	15
8	725	1573.37860006544	16
8	727	1574.86737474354	17
8	729	1580.95010154136	18
8	733	1589.412012295137	19
8	737	1606.774891541585	20
8	745	1626.911053211865	21
8	747	1632.047623014525	22
8	751	1633.802704932022	23
8	757	1644.547544615298	24
8	759	1645.199821265832	25
8	762	1650.037865197686	26
8	764	1650.283004258902	27
8	770	1677.203818671379	28
8	778	1694.228253446423	27
8	780	1695.752850120378	28
8	782	1696.928567990461	29
8	787	1717.067297815278	30
8	793	1725.738022932032	31
8	795	1732.5338024213	32
8	799	1735.719047425022	33
8	801	1737.147083566854	34
8	814	1768.93275183034	35
8	817	1789.832538635294	36
8	819	1800.201925045835	37
8	821	1801.397823919369	38
8	823	1813.417267898949	39
8	825	1820.845952050105	40
8	827	1821.109000042073	41
8	829	1824.448238797531	42
8	837	1851.763375986915	42
8	839	1853.763101051265	43
8	843	1861.615734364642	42
8	849	1872.60282119802	42
8	852	1879.356073586884	42
8	855	1886.688361683324	42
8	860	1902.442019052124	42
8	864	1905.861314486726	42
8	869	1909.777407995839	40
8	874	1922.182695436346	41
8	877	1930.15861388626	41
8	883	1963.91214132306	38
8	889	1973.318976600654	37
8	891	1973.361309767564	38
8	894	1975.116582120982	39
8	898	1977.572967073261	40
8	900	1979.076635191296	41
8	902	1985.261943290884	42
8	904	1989.30345486024	43
8	911	2015.354681933544	40
8	914	2020.548439221487	40
8	919	2025.725814737138	40
8	923	2032.01908448859	40
8	935	2055.502620266609	31
8	939	2060.575503583687	30
8	951	2084.709706378142	24
8	957	2092.939844548836	23
8	959	2099.037089414943	24
8	961	2102.591137611019	25
8	967	2116.368780264422	23
8	969	2116.482601048769	24
8	973	2119.324063641712	25
8	975	2123.674274645256	26
8	982	2138.040682945383	23
8	990	2150.885637978048	18
8	994	2167.367114672204	17
8	1006	2186.034893997877	16
8	1020	2221.227079930321	16
8	1024	2238.889269602652	17
8	1027	2254.483068097837	17
8	1033	2271.075409916749	14
8	1038	2280.771826103366	12
8	1043	2283.864084695993	13
8	1045	2284.36974984129	14
8	1049	2288.442495856882	13
8	1054	2297.580246024688	14
8	1063	2309.781809862415	8
8	1066	2312.772812754872	8
8	1068	2313.521323228255	9
8	1072	2318.332567453696	8
8	1074	2318.868552452175	9
8	1080	2327.906731433003	8
8	1084	2336.865900433734	9
8	1086	2339.803824499231	10
8	1095	2371.147766820008	10
8	1097	2371.152034379967	11
8	1100	2380.887203781705	12
8	1105	2383.188984259807	11
8	1109	2386.397673759669	12
8	1111	2391.11863221044	13
8	1113	2400.591305898383	14
8	1116	2407.515928351927	15
8	1118	2418.130008716	16
8	1122	2423.878827139453	17
8	1124	2430.033569373347	18
8	1127	2435.545057738834	19
8	1140	2457.691458169595	15
8	1142	2461.138953990144	16
8	1144	2462.293654580893	17
8	1148	2473.557527797445	16
8	1150	2474.41331895417	17
8	1152	2483.314383275376	18
8	1154	2487.898238471302	19
9	199	419.824288542282	1
9	208	445.426883461239	1
9	218	481.155473799364	1
9	239	536.946986058516	1
9	241	541.720738592907	2
9	243	541.736319955185	3
9	247	545.749899725905	2
9	286	642.852204457678	1
9	288	646.904432915695	2
9	301	666.123998518003	1
9	303	673.379073049835	2
9	311	692.296201596188	1
9	314	707.174758416955	1
9	316	707.316586279335	2
9	321	718.627327699064	1
9	323	719.093978241006	2
9	330	725.978438086876	1
9	340	740.857761909457	2
9	351	759.785179545867	1
9	359	769.99705848	2
9	363	773.001749095169	3
9	365	773.957541426202	4
9	370	780.867851638882	4
9	391	853.673845421965	1
9	395	862.799389841877	2
9	403	868.098797839271	3
9	410	880.277491819915	3
9	412	882.177038103687	4
9	420	912.935758198835	3
9	427	932.202672012874	1
9	432	936.657389288969	1
9	436	946.297682443241	1
9	441	960.738265453186	1
9	466	1042.502595974247	1
9	475	1060.452690583967	1
9	482	1073.028472791389	1
9	484	1073.979749661901	2
9	504	1113.293494763991	1
9	511	1132.000155132253	1
9	527	1154.808071207918	1
9	531	1158.547296278815	2
9	537	1170.522199205898	1
9	541	1171.867477851254	2
9	543	1172.13455232041	3
9	583	1231.608305717097	1
9	597	1288.624242739881	1
9	643	1356.036850805122	1
9	645	1372.606487445524	2
9	655	1405.653119015198	1
9	657	1415.389328740932	2
9	661	1422.655085990457	3
9	663	1422.976987813847	4
9	667	1425.03253417898	5
9	672	1430.283059070374	5
9	679	1453.338074498799	5
9	681	1458.853815662555	6
9	685	1470.455632448849	7
9	696	1493.449335598144	7
9	698	1496.052380205525	8
9	708	1514.884379549808	7
9	713	1528.555324124831	5
9	717	1564.373909976404	4
9	719	1565.073784446035	5
9	721	1568.88161662372	6
9	740	1616.890074396541	2
9	743	1626.810805176556	2
9	749	1632.799960695581	3
9	754	1636.823592669957	3
9	766	1658.548708404319	2
9	774	1686.708174305305	1
9	776	1694.179105853179	2
9	784	1705.252233173425	3
9	789	1719.93445107556	3
9	791	1724.59685573388	4
9	804	1740.42133159935	2
9	807	1757.194056480443	2
9	810	1761.281828584842	2
9	812	1761.918109262225	3
9	832	1831.77425238343	2
9	846	1868.713537013691	1
9	858	1898.558444776125	1
9	871	1910.506246022932	1
9	887	1966.608133512492	1
9	896	1976.663636876505	1
9	917	2021.706676798273	1
9	943	2073.959348802285	1
9	955	2092.180436930985	1
9	971	2118.166042985004	1
9	997	2169.154750841632	1
9	1001	2177.061307273094	1
9	1004	2178.914416394662	1
9	1010	2195.814478513715	1
9	1012	2200.177172437229	2
9	1016	2214.891347264506	1
9	1018	2215.816986545285	2
9	1040	2280.78927417951	1
9	1051	2288.659915777357	1
9	1078	2325.886460952761	1
9	1082	2335.729066720743	2
9	1091	2363.241703758442	1
9	1093	2369.572912620892	2
9	1107	2385.090107213244	1
9	1120	2420.381264551342	1
9	1131	2438.055371942036	1
9	1134	2446.879911890008	1
10	199	419.824288542282	7
10	208	445.426883461239	8
10	286	642.852204457678	9
10	301	666.123998518003	10
10	311	692.296201596188	11
10	314	707.174758416955	12
10	321	718.627327699064	13
10	330	725.978438086876	14
10	351	759.785179545867	15
10	391	853.673845421965	16
10	427	932.202672012874	17
10	432	936.657389288969	18
10	436	946.297682443241	19
10	441	960.738265453186	20
10	466	1042.502595974247	21
10	475	1060.452690583967	22
10	482	1073.028472791389	23
10	504	1113.293494763991	24
10	511	1132.000155132253	25
10	527	1154.808071207918	26
10	537	1170.522199205898	27
10	583	1231.608305717097	28
10	597	1288.624242739881	29
10	643	1356.036850805122	30
10	655	1405.653119015198	31
10	774	1686.708174305305	32
10	846	1868.713537013691	33
10	858	1898.558444776125	34
10	871	1910.506246022932	35
10	887	1966.608133512492	36
10	896	1976.663636876505	37
10	917	2021.706676798273	38
10	943	2073.959348802285	39
10	955	2092.180436930985	40
10	971	2118.166042985004	41
10	997	2169.154750841632	42
10	1001	2177.061307273094	43
10	1004	2178.914416394662	44
10	1010	2195.814478513715	45
10	1016	2214.891347264506	46
10	1040	2280.78927417951	47
10	1051	2288.659915777357	48
10	1078	2325.886460952761	49
10	1091	2363.241703758442	50
10	1107	2385.090107213244	51
10	1120	2420.381264551342	52
10	1131	2438.055371942036	53
10	1134	2446.879911890008	54
11	1158	2500	0.0992
12	1158	2500	0.0508

