version 2
run experiments_hard_game_mode1-517-20230311-19:41:11-7279
attr configname experiments_hard_game_mode1
attr datetime 20230311-19:41:11
attr experiment experiments_hard_game_mode1
attr inifile omnetpp.ini
attr iterationvars "$0=8, $1=6, $2=100"
attr iterationvarsf 8,6,100-
attr measurement "$0=8, $1=6, $2=100"
attr network Network
attr processid 7279
attr repetition 7
attr replication #7
attr resultdir results
attr runnumber 517
attr seedset 7
param *.boss.arrival_mean 20
param *.boss.service_mean 8
param *.minion.arrival_mean 10
param *.minion.service_mean 6
param *.player.recover_rate_x 100
param **.minion.arrival_distribution 0
param **.minion.service_distribution 0
param **.boss.arrival_distribution 0
param **.boss.service_distribution 0

vector 0 Network.player boss_jobs_number_stat:vector ETV
attr source signal_boss_jobs_number
vector 1 Network.player boss_jobs_queue_number_stat:vector ETV
attr source signal_boss_jobs_queue_number
vector 2 Network.player boss_waiting_time_stat:vector ETV
attr source signal_boss_waiting_time
vector 3 Network.player minion_jobs_number_stat:vector ETV
attr source signal_minion_jobs_number
vector 4 Network.player minion_jobs_queue_number_stat:vector ETV
attr source signal_minion_jobs_queue_number
vector 5 Network.player boss_defeated_stat:vector ETV
attr source signal_boss_defeated
vector 6 Network.player boss_response_time_stat:vector ETV
attr source signal_boss_response_time
vector 7 Network.player minion_waiting_time_stat:vector ETV
attr source signal_minion_waiting_time
vector 8 Network.player minion_defeated_stat:vector ETV
attr source signal_minion_defeated
vector 9 Network.player minion_response_time_stat:vector ETV
attr source signal_minion_response_time
vector 10 Network.player minion_recovered_stat:vector ETV
attr source signal_minion_recovered
vector 11 Network.player minion_throughput:vector ETV
attr source signal_minion_throughput
vector 12 Network.player boss_throughput:vector ETV
attr source signal_boss_throughput
0	122	354.444077836132	1
0	134	406.898104172744	1
0	138	412.257206650644	2
0	153	436.114629776888	1
0	161	453.737651697012	2
0	163	454.215286568968	3
0	171	464.656055005741	2
0	174	476.260410756314	2
0	176	479.189485801982	3
0	181	483.085877055807	1
0	188	498.797104969028	1
0	191	504.528118920206	1
0	197	519.131660745384	1
0	218	592.360836225431	1
0	224	621.482739564962	1
0	226	622.989798236534	2
0	247	677.30644856781	1
0	255	692.35140995363	1
0	257	694.23110564586	2
0	259	699.495877799079	3
0	264	703.853308695614	3
0	267	710.741952008659	3
0	304	813.718144071485	1
0	310	827.514843339431	1
0	314	832.877151770902	1
0	316	834.115971989249	2
0	325	839.578052108125	2
0	339	879.643308591697	1
0	346	899.479755191889	1
0	376	976.565614317659	1
0	386	1003.12254496667	1
0	388	1003.62455407805	2
0	392	1026.941684101135	1
0	394	1030.833821058568	2
0	397	1031.466333288233	2
0	402	1039.284372261193	2
0	419	1085.845270508107	1
0	424	1100.918783639256	1
0	428	1107.668427627462	2
0	450	1161.237628372735	1
0	457	1177.458798046421	1
0	476	1243.026575003035	1
0	481	1252.472146928695	1
0	517	1354.658220514177	1
0	519	1355.197924768725	2
0	529	1382.867144682827	1
0	535	1396.497411846483	2
0	539	1406.293757776049	1
0	545	1442.295449873716	1
0	552	1451.72734647732	1
0	558	1460.872643203582	1
0	566	1481.237026826022	1
0	570	1495.724918166403	1
0	572	1499.13631228092	2
0	581	1511.92385810321	1
0	605	1581.533932958997	1
0	608	1591.294094495414	1
0	634	1665.178439283615	1
0	646	1692.44070236867	1
0	648	1693.608171517466	2
0	653	1701.774818324175	2
0	660	1707.872550576227	2
0	675	1725.971570480458	1
0	678	1730.598897677657	1
0	682	1738.198745412658	1
0	687	1744.347793922827	1
0	693	1752.848412235259	1
0	698	1757.78363004108	1
0	702	1763.399925835698	1
0	704	1764.921157897889	2
0	715	1788.864423319195	1
0	721	1799.117948212139	2
0	723	1803.885143658398	3
0	728	1812.247238961048	3
0	730	1818.46743115362	4
0	745	1847.235945382245	2
0	751	1856.600659787436	1
0	768	1884.986909974073	1
0	771	1902.010481329994	1
0	775	1909.821559344625	2
0	791	1959.686324650859	1
0	793	1961.530443557048	2
0	805	1995.712949519735	1
0	809	2010.305708730489	1
0	813	2013.868655704263	2
0	820	2033.511827931655	1
0	824	2034.000853631123	2
0	827	2042.018879043449	2
0	849	2072.729029228804	1
0	851	2074.942192120614	2
0	855	2081.096007312855	1
0	866	2101.959760183306	1
0	870	2110.250898302535	1
0	873	2116.31426357427	1
0	884	2149.994215450844	1
0	892	2162.535855115292	1
0	903	2195.484333627378	1
0	906	2206.573676180957	1
0	913	2220.180729233857	1
0	925	2234.82324390748	1
0	940	2272.150202713364	1
0	951	2294.213482175366	1
0	961	2303.302072368365	2
0	992	2403.073108456165	1
0	994	2404.053361099046	2
0	1002	2423.00394114612	1
0	1004	2429.138406406712	2
0	1009	2436.588983293494	1
0	1016	2449.056449732793	1
0	1023	2456.915004370078	1
0	1036	2480.556299264915	1
1	122	354.444077836132	0
1	125	373.564382143381	0
1	134	406.898104172744	0
1	138	412.257206650644	1
1	145	426.913381585297	1
1	146	427.482243987095	0
1	153	436.114629776888	0
1	161	453.737651697012	1
1	163	454.215286568968	2
1	166	458.127667961006	2
1	167	458.754238391376	1
1	171	464.656055005741	1
1	172	473.240975847592	1
1	174	476.260410756314	1
1	176	479.189485801982	2
1	177	479.514916530955	2
1	178	480.46674000992	1
1	179	481.215949948189	0
1	181	483.085877055807	0
1	186	497.495467905715	0
1	188	498.797104969028	0
1	189	502.652331981644	0
1	191	504.528118920206	0
1	192	511.277609271807	0
1	197	519.131660745384	0
1	198	527.966139259257	0
1	218	592.360836225431	0
1	219	594.605754867331	0
1	224	621.482739564962	0
1	226	622.989798236534	1
1	227	625.968036603313	1
1	228	627.139639125064	0
1	247	677.30644856781	0
1	248	677.666061881518	0
1	255	692.35140995363	0
1	257	694.23110564586	1
1	259	699.495877799079	2
1	262	702.595201915263	2
1	264	703.853308695614	2
1	265	704.323413307064	2
1	267	710.741952008659	2
1	274	743.07805196553	2
1	275	747.812305670641	1
1	276	748.9124164246	0
1	304	813.718144071485	0
1	305	814.235077563445	0
1	310	827.514843339431	0
1	311	829.506268506417	0
1	314	832.877151770902	0
1	316	834.115971989249	1
1	319	835.702797050258	1
1	325	839.578052108125	1
1	326	841.561414525324	1
1	331	864.568087669131	0
1	339	879.643308591697	0
1	340	884.536204016726	0
1	346	899.479755191889	0
1	349	902.139083112345	0
1	376	976.565614317659	0
1	377	976.907958871644	0
1	386	1003.12254496667	0
1	388	1003.62455407805	1
1	389	1005.614994544805	1
1	390	1013.325930664566	0
1	392	1026.941684101135	0
1	394	1030.833821058568	1
1	395	1031.125126220516	1
1	397	1031.466333288233	1
1	398	1037.222364537078	1
1	402	1039.284372261193	1
1	403	1051.211523224204	1
1	404	1053.345688975573	0
1	419	1085.845270508107	0
1	420	1091.498383409342	0
1	424	1100.918783639256	0
1	428	1107.668427627462	1
1	429	1113.394093439226	1
1	432	1115.906032225051	0
1	450	1161.237628372735	0
1	451	1165.269976161892	0
1	457	1177.458798046421	0
1	458	1180.78520419562	0
1	476	1243.026575003035	0
1	477	1243.267075233933	0
1	481	1252.472146928695	0
1	488	1281.815934047709	0
1	517	1354.658220514177	0
1	519	1355.197924768725	1
1	522	1373.655252315098	1
1	523	1375.284966302907	0
1	529	1382.867144682827	0
1	535	1396.497411846483	1
1	536	1399.160112276143	1
1	537	1401.37956045787	0
1	539	1406.293757776049	0
1	540	1412.997679259451	0
1	545	1442.295449873716	0
1	550	1451.676775847285	0
1	552	1451.72734647732	0
1	555	1455.313371057884	0
1	558	1460.872643203582	0
1	559	1464.747869175105	0
1	566	1481.237026826022	0
1	567	1486.772050125941	0
1	570	1495.724918166403	0
1	572	1499.13631228092	1
1	573	1500.675805476913	1
1	578	1508.639674180479	0
1	581	1511.92385810321	0
1	584	1520.920838966721	0
1	605	1581.533932958997	0
1	606	1589.931353967043	0
1	608	1591.294094495414	0
1	609	1592.011134519737	0
1	634	1665.178439283615	0
1	639	1681.448322691171	0
1	646	1692.44070236867	0
1	648	1693.608171517466	1
1	649	1694.573461053444	1
1	653	1701.774818324175	1
1	658	1704.556306760133	1
1	660	1707.872550576227	1
1	661	1710.469146777505	1
1	666	1717.97375157863	0
1	675	1725.971570480458	0
1	676	1726.544541145338	0
1	678	1730.598897677657	0
1	679	1731.966661319173	0
1	682	1738.198745412658	0
1	685	1738.955311962602	0
1	687	1744.347793922827	0
1	688	1752.226246726749	0
1	693	1752.848412235259	0
1	694	1753.550042881141	0
1	698	1757.78363004108	0
1	699	1758.838634502768	0
1	702	1763.399925835698	0
1	704	1764.921157897889	1
1	705	1766.518241397537	1
1	708	1778.649875973048	0
1	715	1788.864423319195	0
1	721	1799.117948212139	1
1	723	1803.885143658398	2
1	724	1808.208696138992	2
1	728	1812.247238961048	2
1	730	1818.46743115362	3
1	733	1819.520789502417	3
1	740	1833.790644458899	2
1	741	1836.22543693003	1
1	745	1847.235945382245	1
1	746	1847.318360774373	1
1	749	1854.964542248423	0
1	751	1856.600659787436	0
1	752	1861.66843063432	0
1	768	1884.986909974073	0
1	769	1901.351271783367	0
1	771	1902.010481329994	0
1	775	1909.821559344625	1
1	778	1918.169265580891	1
1	779	1922.770976806723	0
1	791	1959.686324650859	0
1	793	1961.530443557048	1
1	794	1962.306448934838	1
1	795	1962.507622318087	0
1	805	1995.712949519735	0
1	806	1996.394242005731	0
1	809	2010.305708730489	0
1	813	2013.868655704263	1
1	814	2015.865224351875	1
1	815	2017.157957826561	0
1	820	2033.511827931655	0
1	824	2034.000853631123	1
1	825	2037.94035840714	1
1	827	2042.018879043449	1
1	830	2043.402251571191	1
1	835	2054.354136104961	0
1	849	2072.729029228804	0
1	851	2074.942192120614	1
1	852	2075.624963743685	1
1	853	2079.074991396337	0
1	855	2081.096007312855	0
1	856	2083.969625261902	0
1	866	2101.959760183306	0
1	867	2102.725201461968	0
1	870	2110.250898302535	0
1	871	2110.310212978192	0
1	873	2116.31426357427	0
1	880	2139.927848905986	0
1	884	2149.994215450844	0
1	887	2156.924004858528	0
1	892	2162.535855115292	0
1	893	2168.889743234902	0
1	903	2195.484333627378	0
1	904	2205.620147436555	0
1	906	2206.573676180957	0
1	909	2212.601603761501	0
1	913	2220.180729233857	0
1	916	2224.364771689594	0
1	925	2234.82324390748	0
1	926	2237.055333904647	0
1	940	2272.150202713364	0
1	943	2273.573310206582	0
1	951	2294.213482175366	0
1	961	2303.302072368365	1
1	962	2304.063960086686	1
1	965	2305.952844990498	0
1	992	2403.073108456165	0
1	994	2404.053361099046	1
1	995	2410.220697867267	1
1	1000	2421.641730711188	0
1	1002	2423.00394114612	0
1	1004	2429.138406406712	1
1	1005	2429.586027080371	1
1	1006	2433.128723404653	0
1	1009	2436.588983293494	0
1	1014	2442.25475965376	0
1	1016	2449.056449732793	0
1	1019	2452.972239910655	0
1	1023	2456.915004370078	0
1	1024	2458.249587085372	0
1	1036	2480.556299264915	0
1	1037	2491.773203780517	0
2	122	354.444077836132	0
2	134	406.898104172744	0
2	145	426.913381585297	14.656174934653
2	153	436.114629776888	0
2	166	458.127667961006	4.390016263994
2	167	458.754238391376	4.538951822408
2	172	473.240975847592	8.584920841851
2	177	479.514916530955	3.254505774641
2	178	480.46674000992	1.277254207938
2	181	483.085877055807	0
2	188	498.797104969028	0
2	191	504.528118920206	0
2	197	519.131660745384	0
2	218	592.360836225431	0
2	224	621.482739564962	0
2	227	625.968036603313	2.978238366779
2	247	677.30644856781	0
2	255	692.35140995363	0
2	262	702.595201915263	8.364096269403
2	265	704.323413307064	4.827535507985
2	274	743.07805196553	39.224743269916
2	275	747.812305670641	37.070353661982
2	304	813.718144071485	0
2	310	827.514843339431	0
2	314	832.877151770902	0
2	319	835.702797050258	1.586825061009
2	326	841.561414525324	1.983362417199
2	339	879.643308591697	0
2	346	899.479755191889	0
2	376	976.565614317659	0
2	386	1003.12254496667	0
2	389	1005.614994544805	1.990440466755
2	392	1026.941684101135	0
2	395	1031.125126220516	0.291305161948
2	398	1037.222364537078	5.756031248845
2	403	1051.211523224204	11.927150963011
2	419	1085.845270508107	0
2	424	1100.918783639256	0
2	429	1113.394093439226	5.725665811764
2	450	1161.237628372735	0
2	457	1177.458798046421	0
2	476	1243.026575003035	0
2	481	1252.472146928695	0
2	517	1354.658220514177	0
2	522	1373.655252315098	18.457327546373
2	529	1382.867144682827	0
2	536	1399.160112276143	2.66270042966
2	539	1406.293757776049	0
2	545	1442.295449873716	0
2	552	1451.72734647732	0
2	558	1460.872643203582	0
2	566	1481.237026826022	0
2	570	1495.724918166403	0
2	573	1500.675805476913	1.539493195993
2	581	1511.92385810321	0
2	605	1581.533932958997	0
2	608	1591.294094495414	0
2	634	1665.178439283615	0
2	646	1692.44070236867	0
2	649	1694.573461053444	0.965289535978
2	658	1704.556306760133	2.781488435958
2	661	1710.469146777505	2.596596201278
2	675	1725.971570480458	0
2	678	1730.598897677657	0
2	682	1738.198745412658	0
2	687	1744.347793922827	0
2	693	1752.848412235259	0
2	698	1757.78363004108	0
2	702	1763.399925835698	0
2	705	1766.518241397537	1.597083499648
2	715	1788.864423319195	0
2	724	1808.208696138992	9.090747926853
2	733	1819.520789502417	15.635645844019
2	740	1833.790644458899	21.543405497851
2	741	1836.22543693003	17.75800577641
2	746	1847.318360774373	0.082415392128
2	751	1856.600659787436	0
2	768	1884.986909974073	0
2	771	1902.010481329994	0
2	778	1918.169265580891	8.347706236266
2	791	1959.686324650859	0
2	794	1962.306448934838	0.77600537779
2	805	1995.712949519735	0
2	809	2010.305708730489	0
2	814	2015.865224351875	1.996568647612
2	820	2033.511827931655	0
2	825	2037.94035840714	3.939504776017
2	830	2043.402251571191	1.383372527742
2	849	2072.729029228804	0
2	852	2075.624963743685	0.682771623071
2	855	2081.096007312855	0
2	866	2101.959760183306	0
2	870	2110.250898302535	0
2	873	2116.31426357427	0
2	884	2149.994215450844	0
2	892	2162.535855115292	0
2	903	2195.484333627378	0
2	906	2206.573676180957	0
2	913	2220.180729233857	0
2	925	2234.82324390748	0
2	940	2272.150202713364	0
2	951	2294.213482175366	0
2	962	2304.063960086686	0.761887718321
2	992	2403.073108456165	0
2	995	2410.220697867267	6.167336768221
2	1002	2423.00394114612	0
2	1005	2429.586027080371	0.447620673659
2	1009	2436.588983293494	0
2	1016	2449.056449732793	0
2	1023	2456.915004370078	0
2	1036	2480.556299264915	0
3	124	362.779012560417	1
3	127	378.94232276728	2
3	131	404.417573523671	1
3	136	410.945070117655	1
3	140	414.426127238478	2
3	142	424.720149536488	3
3	144	426.538650611217	4
3	151	434.202318365371	2
3	155	439.234578117422	3
3	157	440.99737043903	4
3	159	448.144546700357	5
3	165	456.290829722043	6
3	169	459.9730609396	7
3	183	489.431553173651	8
3	185	495.045180807425	9
3	195	515.019738422812	9
3	200	532.743390214778	10
3	204	545.080840038026	9
3	206	553.345193350048	10
3	208	558.53515728906	11
3	212	576.30711615312	10
3	214	578.772894273072	11
3	230	636.631361304735	7
3	232	642.183143198286	8
3	235	646.226482758435	8
3	239	655.747145422117	7
3	241	656.701336655666	8
3	251	687.32047340833	4
3	261	702.185225875771	3
3	269	712.640532632296	4
3	271	714.2584742481	5
3	273	738.109972685136	6
3	278	751.032734217623	7
3	280	752.077991711549	8
3	290	783.121513972541	1
3	292	786.99886226362	2
3	294	787.757912559629	3
3	299	804.658261068389	1
3	302	810.585177372074	1
3	307	817.045913734827	2
3	318	835.441852948545	1
3	321	835.817226806073	2
3	323	837.390078834879	3
3	328	844.859932121541	4
3	330	859.353191058201	5
3	337	879.526058134851	2
3	343	894.748798914436	2
3	348	901.429111008363	2
3	352	912.670828928672	2
3	356	921.083001103788	1
3	359	922.495206296778	1
3	361	924.426246535187	2
3	363	924.827210553039	3
3	368	941.643193032314	1
3	371	952.314999984398	1
3	374	976.309122619328	1
3	379	979.201723983299	2
3	383	993.234354209163	1
3	400	1037.817714041834	1
3	406	1054.86377306729	2
3	408	1062.486238876957	3
3	410	1067.586314668505	4
3	412	1068.196298550826	5
3	415	1081.781918852097	5
3	422	1093.780243235995	4
3	426	1105.299906099446	5
3	431	1115.166361282277	6
3	435	1117.585575416514	6
3	438	1140.197947428563	6
3	441	1143.245327056085	6
3	443	1145.011799952512	7
3	445	1150.608804235597	8
3	448	1160.034678423633	8
3	453	1171.021977446639	9
3	455	1174.834363420373	10
3	460	1184.835546820342	11
3	464	1199.243714448613	10
3	466	1200.03451206652	11
3	468	1201.733882664147	12
3	473	1226.655835093917	10
3	483	1253.232387214677	8
3	485	1263.300329930188	9
3	487	1270.188107608062	10
3	492	1301.695075724682	9
3	497	1319.606710615869	7
3	499	1323.221393193487	8
3	501	1325.834643875292	9
3	503	1326.375745945546	10
3	505	1327.505305647438	11
3	507	1327.930719510784	12
3	509	1339.130112043044	13
3	513	1345.566230223337	12
3	515	1354.217056812716	13
3	521	1364.753652170588	14
3	531	1385.61624942652	11
3	533	1385.873721217589	12
3	547	1444.399947274309	10
3	549	1451.077245172219	11
3	554	1454.297307664281	12
3	561	1466.369209094997	12
3	564	1479.941857648679	12
3	575	1502.106389304741	12
3	577	1505.457368391863	13
3	583	1519.645900163428	13
3	590	1532.601251588089	10
3	594	1539.939842688134	9
3	597	1546.694297322603	9
3	603	1579.360818638479	6
3	611	1599.611571199337	7
3	614	1615.238231094837	7
3	616	1617.008726374054	8
3	618	1618.803667111087	9
3	624	1654.320999339294	6
3	626	1654.530132778208	7
3	628	1655.031343022317	8
3	636	1668.119471991487	5
3	638	1680.17741353523	6
3	641	1685.45785398811	7
3	651	1696.0117990378	5
3	655	1704.068347513425	6
3	657	1704.544076971741	7
3	663	1711.975374516738	8
3	665	1714.173127754168	9
3	669	1718.559366824822	9
3	671	1722.573206414053	10
3	673	1724.64832324279	11
3	684	1738.617628260856	11
3	691	1752.532885940149	11
3	696	1757.074418285213	12
3	707	1775.650069026053	12
3	711	1783.216712739424	12
3	717	1791.646316524924	11
3	719	1796.018681398212	12
3	726	1811.394057054295	13
3	732	1818.623402905251	14
3	735	1820.470659874128	15
3	737	1823.504701725267	16
3	739	1824.776611398249	17
3	743	1843.864454562918	18
3	748	1853.020426018164	19
3	754	1862.781928549067	20
3	756	1862.910194214946	21
3	759	1866.541002019037	21
3	761	1868.111340479915	22
3	763	1883.049181367715	23
3	765	1884.18179652135	24
3	773	1906.77245399804	24
3	777	1913.148113594738	25
3	782	1926.519640148576	25
3	785	1930.890122130338	25
3	787	1950.238507299322	26
3	797	1965.645265703979	25
3	801	1982.800215019916	24
3	811	2013.535855516251	22
3	822	2033.577040077019	20
3	829	2042.019035780318	21
3	832	2046.833801616255	22
3	834	2048.471088520238	23
3	838	2057.923317528761	23
3	843	2063.518800961812	21
3	846	2068.888887785074	21
3	860	2093.375820763635	19
3	862	2096.148318178671	20
3	875	2126.611538650229	18
3	877	2127.243610642487	19
3	879	2131.285105288694	20
3	882	2148.296038955969	21
3	886	2155.411754794041	22
3	889	2160.25086735818	23
3	895	2171.715046139006	23
3	908	2210.271698978259	18
3	911	2215.909237306194	19
3	915	2220.719843061578	20
3	918	2224.656285819337	21
3	923	2234.602854882523	19
3	929	2256.889795796327	19
3	931	2262.748014258532	20
3	933	2264.790023649927	21
3	935	2265.048559352724	22
3	937	2269.762694224587	23
3	942	2272.418185729447	23
3	945	2276.902444097247	24
3	949	2292.009618507136	23
3	953	2294.720392956889	24
3	955	2296.583318064366	25
3	957	2297.701144502198	26
3	959	2303.055250043694	27
3	964	2305.874375309216	28
3	967	2314.908121836742	29
3	977	2340.920934181234	22
3	980	2365.097535760258	22
3	982	2369.544204619743	23
3	984	2376.604331874898	24
3	986	2393.123895236844	25
3	989	2398.897702729902	25
3	997	2411.913131361185	25
3	999	2412.241381802257	26
3	1011	2437.405041906015	26
3	1013	2439.998051360079	27
3	1018	2452.886610574733	28
3	1021	2454.890705118865	29
3	1027	2466.209201325361	29
3	1030	2468.987260939911	29
3	1034	2476.660273799729	28
3	1041	2493.238974334309	27
4	124	362.779012560417	0
4	127	378.94232276728	1
4	128	379.224384989686	1
4	129	380.197867782702	0
4	131	404.417573523671	0
4	132	406.191172579672	0
4	136	410.945070117655	0
4	140	414.426127238478	1
4	142	424.720149536488	2
4	144	426.538650611217	3
4	147	427.63477639056	3
4	148	429.65325400793	2
4	149	430.079970232779	1
4	151	434.202318365371	1
4	155	439.234578117422	2
4	157	440.99737043903	3
4	159	448.144546700357	4
4	165	456.290829722043	5
4	169	459.9730609396	6
4	183	489.431553173651	7
4	185	495.045180807425	8
4	193	513.540743714326	8
4	195	515.019738422812	8
4	200	532.743390214778	9
4	201	534.254141005861	9
4	202	534.254522000602	8
4	204	545.080840038026	8
4	206	553.345193350048	9
4	208	558.53515728906	10
4	209	566.206935611012	10
4	210	567.980606701512	9
4	212	576.30711615312	9
4	214	578.772894273072	10
4	215	583.412034991808	10
4	216	584.049746113667	9
4	220	598.431408032038	8
4	221	605.223693089679	7
4	222	615.093000632027	6
4	230	636.631361304735	6
4	232	642.183143198286	7
4	233	645.882724855178	7
4	235	646.226482758435	7
4	236	648.906839958409	7
4	237	652.885213678429	6
4	239	655.747145422117	6
4	241	656.701336655666	7
4	242	660.552532783692	7
4	243	664.814756149423	6
4	244	669.104782915889	5
4	245	675.623237239382	4
4	249	685.607256201226	3
4	251	687.32047340833	3
4	252	688.408160769107	3
4	253	692.173577390922	2
4	261	702.185225875771	2
4	269	712.640532632296	3
4	271	714.2584742481	4
4	273	738.109972685136	5
4	278	751.032734217623	6
4	280	752.077991711549	7
4	281	755.69389454928	7
4	282	757.706570062701	6
4	283	767.528910987176	5
4	284	769.179348205957	4
4	285	772.636735703968	3
4	286	772.737684789306	2
4	287	773.566638562834	1
4	288	783.007409675599	0
4	290	783.121513972541	0
4	292	786.99886226362	1
4	294	787.757912559629	2
4	295	789.287371777405	2
4	296	800.295974768857	1
4	297	804.203904412254	0
4	299	804.658261068389	0
4	300	807.198121479875	0
4	302	810.585177372074	0
4	307	817.045913734827	1
4	308	819.150670516973	1
4	312	830.570531884551	0
4	318	835.441852948545	0
4	321	835.817226806073	1
4	323	837.390078834879	2
4	328	844.859932121541	3
4	330	859.353191058201	4
4	332	865.090284225342	4
4	333	865.458153130886	3
4	334	871.997075881979	2
4	335	878.177822588409	1
4	337	879.526058134851	1
4	341	894.285638324744	1
4	343	894.748798914436	1
4	344	897.806640711628	1
4	348	901.429111008363	1
4	350	910.254364222956	1
4	352	912.670828928672	1
4	353	917.257345032683	1
4	354	920.607710787554	0
4	356	921.083001103788	0
4	357	921.125476779757	0
4	359	922.495206296778	0
4	361	924.426246535187	1
4	363	924.827210553039	2
4	364	924.896375796065	2
4	365	931.254522662653	1
4	366	935.151601774512	0
4	368	941.643193032314	0
4	369	942.12076070411	0
4	371	952.314999984398	0
4	372	967.434737392673	0
4	374	976.309122619328	0
4	379	979.201723983299	1
4	380	990.976936507099	1
4	381	993.181943153109	0
4	383	993.234354209163	0
4	384	995.384562567839	0
4	400	1037.817714041834	0
4	406	1054.86377306729	1
4	408	1062.486238876957	2
4	410	1067.586314668505	3
4	412	1068.196298550826	4
4	413	1078.511725252654	4
4	415	1081.781918852097	4
4	416	1082.848535265408	4
4	417	1083.573012903204	3
4	422	1093.780243235995	3
4	426	1105.299906099446	4
4	431	1115.166361282277	5
4	433	1116.796143023127	5
4	435	1117.585575416514	5
4	436	1130.509188714141	5
4	438	1140.197947428563	5
4	439	1142.907708440876	5
4	441	1143.245327056085	5
4	443	1145.011799952512	6
4	445	1150.608804235597	7
4	446	1159.853723322455	7
4	448	1160.034678423633	7
4	453	1171.021977446639	8
4	455	1174.834363420373	9
4	460	1184.835546820342	10
4	461	1185.665461457542	10
4	462	1187.285061942882	9
4	464	1199.243714448613	9
4	466	1200.03451206652	10
4	468	1201.733882664147	11
4	469	1203.60018348613	11
4	470	1215.292179621834	10
4	471	1221.972913611583	9
4	473	1226.655835093917	9
4	474	1231.736416929592	9
4	478	1243.888557243768	8
4	479	1244.956178844856	7
4	483	1253.232387214677	7
4	485	1263.300329930188	8
4	487	1270.188107608062	9
4	489	1282.245410186365	9
4	490	1284.351493818851	8
4	492	1301.695075724682	8
4	493	1306.590870110691	8
4	494	1311.614266804712	7
4	495	1316.390560132074	6
4	497	1319.606710615869	6
4	499	1323.221393193487	7
4	501	1325.834643875292	8
4	503	1326.375745945546	9
4	505	1327.505305647438	10
4	507	1327.930719510784	11
4	509	1339.130112043044	12
4	510	1342.421782647892	12
4	511	1345.546937342793	11
4	513	1345.566230223337	11
4	515	1354.217056812716	12
4	521	1364.753652170588	13
4	524	1375.548722232865	13
4	525	1375.780566048792	12
4	526	1379.785474610401	11
4	527	1382.459652766337	10
4	531	1385.61624942652	10
4	533	1385.873721217589	11
4	541	1422.862963356458	11
4	542	1431.02646058116	10
4	543	1440.459355954449	9
4	547	1444.399947274309	9
4	549	1451.077245172219	10
4	554	1454.297307664281	11
4	556	1456.106743855153	11
4	561	1466.369209094997	11
4	562	1472.78724909905	11
4	564	1479.941857648679	11
4	568	1489.836165775406	11
4	575	1502.106389304741	11
4	577	1505.457368391863	12
4	579	1511.204124200171	12
4	583	1519.645900163428	12
4	585	1525.756956433153	12
4	586	1526.056553829367	11
4	587	1528.190222235711	10
4	588	1532.066300501746	9
4	590	1532.601251588089	9
4	591	1534.398739535842	9
4	592	1537.797975067688	8
4	594	1539.939842688134	8
4	595	1541.995220765301	8
4	597	1546.694297322603	8
4	598	1553.873025247376	8
4	599	1560.660418940257	7
4	600	1575.579090176547	6
4	601	1578.560201577805	5
4	603	1579.360818638479	5
4	611	1599.611571199337	6
4	612	1614.379717981719	6
4	614	1615.238231094837	6
4	616	1617.008726374054	7
4	618	1618.803667111087	8
4	619	1621.577003404037	8
4	620	1621.803943305476	7
4	621	1627.266590054909	6
4	622	1646.157696220051	5
4	624	1654.320999339294	5
4	626	1654.530132778208	6
4	628	1655.031343022317	7
4	629	1657.63331774991	7
4	630	1658.783337125765	6
4	631	1660.88697585482	5
4	632	1663.795056869923	4
4	636	1668.119471991487	4
4	638	1680.17741353523	5
4	641	1685.45785398811	6
4	642	1685.663876399198	6
4	643	1688.863606432186	5
4	644	1691.641934423165	4
4	651	1696.0117990378	4
4	655	1704.068347513425	5
4	657	1704.544076971741	6
4	663	1711.975374516738	7
4	665	1714.173127754168	8
4	667	1718.226209524746	8
4	669	1718.559366824822	8
4	671	1722.573206414053	9
4	673	1724.64832324279	10
4	680	1736.413754395886	10
4	684	1738.617628260856	10
4	689	1752.255355664922	10
4	691	1752.532885940149	10
4	696	1757.074418285213	11
4	700	1762.464537813505	11
4	707	1775.650069026053	11
4	709	1781.349098221359	11
4	711	1783.216712739424	11
4	712	1783.909494562652	11
4	713	1785.887462479825	10
4	717	1791.646316524924	10
4	719	1796.018681398212	11
4	726	1811.394057054295	12
4	732	1818.623402905251	13
4	735	1820.470659874128	14
4	737	1823.504701725267	15
4	739	1824.776611398249	16
4	743	1843.864454562918	17
4	748	1853.020426018164	18
4	754	1862.781928549067	19
4	756	1862.910194214946	20
4	757	1865.297463141541	20
4	759	1866.541002019037	20
4	761	1868.111340479915	21
4	763	1883.049181367715	22
4	765	1884.18179652135	23
4	766	1884.918714439045	23
4	773	1906.77245399804	23
4	777	1913.148113594738	24
4	780	1925.978111904295	24
4	782	1926.519640148576	24
4	783	1929.029127754187	24
4	785	1930.890122130338	24
4	787	1950.238507299322	25
4	788	1959.630690461177	25
4	789	1959.649923457902	24
4	797	1965.645265703979	24
4	798	1969.181250283879	24
4	799	1973.02895263965	23
4	801	1982.800215019916	23
4	802	1988.13881326436	23
4	803	1992.801565586311	22
4	807	2006.327953581217	21
4	811	2013.535855516251	21
4	816	2019.974636375556	21
4	817	2022.85893940094	20
4	818	2023.230813662588	19
4	822	2033.577040077019	19
4	829	2042.019035780318	20
4	832	2046.833801616255	21
4	834	2048.471088520238	22
4	836	2055.025260325454	22
4	838	2057.923317528761	22
4	839	2059.151042215332	22
4	840	2059.166043252185	21
4	841	2061.913063086435	20
4	843	2063.518800961812	20
4	844	2065.305166099149	20
4	846	2068.888887785074	20
4	847	2071.975345856381	20
4	857	2087.740787472122	19
4	858	2090.773577044918	18
4	860	2093.375820763635	18
4	862	2096.148318178671	19
4	863	2096.730728809604	19
4	864	2097.643250550966	18
4	868	2104.025325867344	17
4	875	2126.611538650229	17
4	877	2127.243610642487	18
4	879	2131.285105288694	19
4	882	2148.296038955969	20
4	886	2155.411754794041	21
4	889	2160.25086735818	22
4	890	2162.463215881491	22
4	895	2171.715046139006	22
4	896	2175.414613900132	22
4	897	2179.940018688586	21
4	898	2191.108992318364	20
4	899	2191.226469101212	19
4	900	2191.429644584521	18
4	901	2192.787394954652	17
4	908	2210.271698978259	17
4	911	2215.909237306194	18
4	915	2220.719843061578	19
4	918	2224.656285819337	20
4	919	2228.889492611649	20
4	920	2229.991733929018	19
4	921	2233.750638075439	18
4	923	2234.602854882523	18
4	927	2241.628193000696	18
4	929	2256.889795796327	18
4	931	2262.748014258532	19
4	933	2264.790023649927	20
4	935	2265.048559352724	21
4	937	2269.762694224587	22
4	938	2271.517630049782	22
4	942	2272.418185729447	22
4	945	2276.902444097247	23
4	946	2279.001912847658	23
4	947	2280.962242708089	22
4	949	2292.009618507136	22
4	953	2294.720392956889	23
4	955	2296.583318064366	24
4	957	2297.701144502198	25
4	959	2303.055250043694	26
4	964	2305.874375309216	27
4	967	2314.908121836742	28
4	968	2317.022791464426	28
4	969	2317.534870112402	27
4	970	2322.953221245486	26
4	971	2326.711993710408	25
4	972	2326.949876254335	24
4	973	2327.561011548727	23
4	974	2333.874267769339	22
4	975	2335.027101007529	21
4	977	2340.920934181234	21
4	978	2354.444007132425	21
4	980	2365.097535760258	21
4	982	2369.544204619743	22
4	984	2376.604331874898	23
4	986	2393.123895236844	24
4	987	2396.592408955853	24
4	989	2398.897702729902	24
4	990	2400.590596942685	24
4	997	2411.913131361185	24
4	999	2412.241381802257	25
4	1007	2433.684978181399	25
4	1011	2437.405041906015	25
4	1013	2439.998051360079	26
4	1018	2452.886610574733	27
4	1021	2454.890705118865	28
4	1025	2461.42801135314	28
4	1027	2466.209201325361	28
4	1028	2467.956801420646	28
4	1030	2468.987260939911	28
4	1031	2473.144370315815	28
4	1032	2476.431224181811	27
4	1034	2476.660273799729	27
4	1038	2491.976180462347	27
4	1039	2492.004402222405	26
4	1041	2493.238974334309	26
4	1042	2496.177294816826	26
4	1043	2497.940606211785	25
5	125	373.564382143381	13
5	145	426.913381585297	14
5	146	427.482243987095	15
5	166	458.127667961006	16
5	167	458.754238391376	17
5	172	473.240975847592	18
5	177	479.514916530955	19
5	178	480.46674000992	20
5	179	481.215949948189	21
5	186	497.495467905715	22
5	189	502.652331981644	23
5	192	511.277609271807	24
5	198	527.966139259257	25
5	219	594.605754867331	26
5	227	625.968036603313	27
5	228	627.139639125064	28
5	248	677.666061881518	29
5	262	702.595201915263	30
5	265	704.323413307064	31
5	274	743.07805196553	32
5	275	747.812305670641	33
5	276	748.9124164246	34
5	305	814.235077563445	35
5	311	829.506268506417	36
5	319	835.702797050258	37
5	326	841.561414525324	38
5	331	864.568087669131	39
5	340	884.536204016726	40
5	349	902.139083112345	41
5	377	976.907958871644	42
5	389	1005.614994544805	43
5	390	1013.325930664566	44
5	395	1031.125126220516	45
5	398	1037.222364537078	46
5	403	1051.211523224204	47
5	404	1053.345688975573	48
5	420	1091.498383409342	49
5	429	1113.394093439226	50
5	432	1115.906032225051	51
5	451	1165.269976161892	52
5	458	1180.78520419562	53
5	477	1243.267075233933	54
5	488	1281.815934047709	55
5	522	1373.655252315098	56
5	523	1375.284966302907	57
5	536	1399.160112276143	58
5	537	1401.37956045787	59
5	540	1412.997679259451	60
5	550	1451.676775847285	61
5	555	1455.313371057884	62
5	559	1464.747869175105	63
5	567	1486.772050125941	64
5	573	1500.675805476913	65
5	578	1508.639674180479	66
5	584	1520.920838966721	67
5	606	1589.931353967043	68
5	609	1592.011134519737	69
5	639	1681.448322691171	70
5	649	1694.573461053444	71
5	658	1704.556306760133	72
5	661	1710.469146777505	73
5	666	1717.97375157863	74
5	676	1726.544541145338	75
5	679	1731.966661319173	76
5	685	1738.955311962602	77
5	688	1752.226246726749	78
5	694	1753.550042881141	79
5	699	1758.838634502768	80
5	705	1766.518241397537	81
5	708	1778.649875973048	82
5	724	1808.208696138992	83
5	733	1819.520789502417	84
5	740	1833.790644458899	85
5	741	1836.22543693003	86
5	746	1847.318360774373	87
5	749	1854.964542248423	88
5	752	1861.66843063432	89
5	769	1901.351271783367	90
5	778	1918.169265580891	91
5	779	1922.770976806723	92
5	794	1962.306448934838	93
5	795	1962.507622318087	94
5	806	1996.394242005731	95
5	814	2015.865224351875	96
5	815	2017.157957826561	97
5	825	2037.94035840714	98
5	830	2043.402251571191	99
5	835	2054.354136104961	100
5	852	2075.624963743685	101
5	853	2079.074991396337	102
5	856	2083.969625261902	103
5	867	2102.725201461968	104
5	871	2110.310212978192	105
5	880	2139.927848905986	106
5	887	2156.924004858528	107
5	893	2168.889743234902	108
5	904	2205.620147436555	109
5	909	2212.601603761501	110
5	916	2224.364771689594	111
5	926	2237.055333904647	112
5	943	2273.573310206582	113
5	962	2304.063960086686	114
5	965	2305.952844990498	115
5	995	2410.220697867267	116
5	1000	2421.641730711188	117
5	1005	2429.586027080371	118
5	1006	2433.128723404653	119
5	1014	2442.25475965376	120
5	1019	2452.972239910655	121
5	1024	2458.249587085372	122
5	1037	2491.773203780517	123
6	125	373.564382143381	19.120304307249
6	145	426.913381585297	20.015277412553
6	146	427.482243987095	15.225037336451
6	166	458.127667961006	22.013038184118
6	167	458.754238391376	5.016586694364
6	172	473.240975847592	19.025689278624
6	177	479.514916530955	14.858861525214
6	178	480.46674000992	4.206329253606
6	179	481.215949948189	2.026464146207
6	186	497.495467905715	14.409590849908
6	189	502.652331981644	3.855227012616
6	192	511.277609271807	6.749490351601
6	198	527.966139259257	8.834478513873
6	219	594.605754867331	2.2449186419
6	227	625.968036603313	4.485297038351
6	228	627.139639125064	4.14984088853
6	248	677.666061881518	0.359613313708
6	262	702.595201915263	10.243791961633
6	265	704.323413307064	10.092307661204
6	274	743.07805196553	43.582174166451
6	275	747.812305670641	43.958996975027
6	276	748.9124164246	38.170464415941
6	305	814.235077563445	0.51693349196
6	311	829.506268506417	1.991425166986
6	319	835.702797050258	2.825645279356
6	326	841.561414525324	7.445442536075
6	331	864.568087669131	24.990035561006
6	340	884.536204016726	4.892895425029
6	349	902.139083112345	2.659327920456
6	377	976.907958871644	0.342344553985
6	389	1005.614994544805	2.492449578135
6	390	1013.325930664566	9.701376586516
6	395	1031.125126220516	4.183442119381
6	398	1037.222364537078	6.38854347851
6	403	1051.211523224204	19.745189935971
6	404	1053.345688975573	14.06131671438
6	420	1091.498383409342	5.653112901235
6	429	1113.394093439226	12.47530979997
6	432	1115.906032225051	8.237604597589
6	451	1165.269976161892	4.032347789157
6	458	1180.78520419562	3.326406149199
6	477	1243.267075233933	0.240500230898
6	488	1281.815934047709	29.343787119014
6	522	1373.655252315098	18.997031800921
6	523	1375.284966302907	20.087041534182
6	536	1399.160112276143	16.292967593316
6	537	1401.37956045787	4.882148611387
6	540	1412.997679259451	6.703921483402
6	550	1451.676775847285	9.381325973569
6	555	1455.313371057884	3.586024580564
6	559	1464.747869175105	3.875225971523
6	567	1486.772050125941	5.535023299919
6	573	1500.675805476913	4.95088731051
6	578	1508.639674180479	9.503361899559
6	584	1520.920838966721	8.996980863511
6	606	1589.931353967043	8.397421008046
6	609	1592.011134519737	0.717040024323
6	639	1681.448322691171	16.269883407556
6	649	1694.573461053444	2.132758684774
6	658	1704.556306760133	10.948135242667
6	661	1710.469146777505	8.69432845333
6	666	1717.97375157863	10.101201002403
6	676	1726.544541145338	0.57297066488
6	679	1731.966661319173	1.367763641516
6	685	1738.955311962602	0.756566549944
6	688	1752.226246726749	7.878452803922
6	694	1753.550042881141	0.701630645882
6	699	1758.838634502768	1.055004461688
6	705	1766.518241397537	3.118315561839
6	708	1778.649875973048	13.728718075159
6	724	1808.208696138992	19.344272819797
6	733	1819.520789502417	20.402841290278
6	740	1833.790644458899	29.905500800501
6	741	1836.22543693003	23.978197968982
6	746	1847.318360774373	28.850929620753
6	749	1854.964542248423	7.728596866178
6	752	1861.66843063432	5.067770846884
6	769	1901.351271783367	16.364361809294
6	778	1918.169265580891	16.158784250897
6	779	1922.770976806723	12.949417462098
6	794	1962.306448934838	2.620124283979
6	795	1962.507622318087	0.977178761039
6	806	1996.394242005731	0.681292485996
6	814	2015.865224351875	5.559515621386
6	815	2017.157957826561	3.289302122298
6	825	2037.94035840714	4.428530475485
6	830	2043.402251571191	9.401397940068
6	835	2054.354136104961	12.335257061512
6	852	2075.624963743685	2.895934514881
6	853	2079.074991396337	4.132799275723
6	856	2083.969625261902	2.873617949047
6	867	2102.725201461968	0.765441278662
6	871	2110.310212978192	0.059314675657
6	880	2139.927848905986	23.613585331716
6	887	2156.924004858528	6.929789407684
6	893	2168.889743234902	6.35388811961
6	904	2205.620147436555	10.135813809177
6	909	2212.601603761501	6.027927580544
6	916	2224.364771689594	4.184042455737
6	926	2237.055333904647	2.232089997167
6	943	2273.573310206582	1.423107493218
6	962	2304.063960086686	9.85047791132
6	965	2305.952844990498	2.650772622133
6	995	2410.220697867267	7.147589411102
6	1000	2421.641730711188	17.588369612142
6	1005	2429.586027080371	6.582085934251
6	1006	2433.128723404653	3.990316997941
6	1014	2442.25475965376	5.665776360266
6	1019	2452.972239910655	3.915790177862
6	1024	2458.249587085372	1.334582715294
6	1037	2491.773203780517	11.216904515602
7	125	373.564382143381	10.785369582964
7	128	379.224384989686	0.282062222406
7	131	404.417573523671	0
7	146	427.482243987095	16.53717386944
7	147	427.63477639056	13.208649152082
7	148	429.65325400793	4.933104471442
7	149	430.079970232779	3.541319621562
7	179	481.215949948189	47.013631582818
7	186	497.495467905715	61.380838128827
7	189	502.652331981644	63.417753864222
7	192	511.277609271807	70.280238832777
7	193	513.540743714326	65.396197013969
7	198	527.966139259257	71.675309537214
7	201	534.254141005861	74.281080066261
7	202	534.254522000602	51.168644944795
7	209	566.206935611012	76.775382437361
7	210	567.980606701512	72.935425894087
7	215	583.412034991808	84.61493002278
7	216	584.049746113667	79.521627193461
7	219	594.605754867331	79.586016444519
7	220	598.431408032038	79.299747286654
7	221	605.223693089679	72.480302874901
7	222	615.093000632027	70.012160594001
7	228	627.139639125064	73.794445775016
7	233	645.882724855178	87.347567566118
7	236	648.906839958409	72.599723805289
7	237	652.885213678429	74.112319405357
7	242	660.552532783692	68.191696558261
7	243	664.814756149423	43.332016584461
7	244	669.104782915889	32.473421611154
7	245	675.623237239382	33.440094041096
7	248	677.666061881518	31.439579123083
7	249	685.607256201226	29.860110779109
7	252	688.408160769107	31.706824113441
7	253	692.173577390922	14.867128823112
7	276	748.9124164246	61.59194301627
7	281	755.69389454928	63.34248459565
7	282	757.706570062701	55.52134418693
7	283	767.528910987176	54.88837835488
7	284	769.179348205957	54.920873957857
7	285	772.636735703968	34.526763018832
7	286	772.737684789306	21.704950571683
7	287	773.566638562834	21.488646851285
7	290	783.121513972541	0
7	295	789.287371777405	2.288509513785
7	296	800.295974768857	12.538062209228
7	299	804.658261068389	0
7	302	810.585177372074	0
7	305	814.235077563445	0.51693349196
7	308	819.150670516973	2.104756782146
7	311	829.506268506417	1.991425166986
7	331	864.568087669131	29.126234720586
7	332	865.090284225342	29.273057419269
7	333	865.458153130886	28.068074296007
7	334	871.997075881979	27.137143760438
7	335	878.177822588409	18.824631530208
7	340	884.536204016726	5.010145881875
7	341	894.285638324744	14.642329733047
7	344	897.806640711628	3.057841797192
7	349	902.139083112345	2.659327920456
7	350	910.254364222956	8.825253214593
7	353	917.257345032683	4.586516104011
7	356	921.083001103788	0
7	359	922.495206296778	0
7	364	924.896375796065	0.470129260878
7	365	931.254522662653	6.427312109614
7	368	941.643193032314	0
7	371	952.314999984398	0
7	374	976.309122619328	0
7	377	976.907958871644	0.342344553985
7	380	990.976936507099	11.7752125238
7	383	993.234354209163	0
7	404	1053.345688975573	15.527974933739
7	413	1078.511725252654	23.647952185364
7	416	1082.848535265408	20.362296388451
7	417	1083.573012903204	15.986698234699
7	420	1091.498383409342	23.302084858516
7	432	1115.906032225051	34.124113372954
7	433	1116.796143023127	30.95087251502
7	436	1130.509188714141	36.728945478146
7	439	1142.907708440876	41.98892480162
7	446	1159.853723322455	54.553817223009
7	451	1165.269976161892	50.103614879615
7	458	1180.78520419562	63.199628779106
7	461	1185.665461457542	45.467514028979
7	462	1187.285061942882	44.039734886797
7	469	1203.60018348613	58.588383533618
7	470	1215.292179621834	64.683375386237
7	471	1221.972913611583	61.93823518795
7	474	1231.736416929592	70.498788556857
7	477	1243.267075233933	72.245097787294
7	478	1243.888557243768	69.054193823395
7	479	1244.956178844856	67.497380798435
7	488	1281.815934047709	96.980387227367
7	489	1282.245410186365	83.001695737752
7	490	1284.351493818851	84.316981752331
7	493	1306.590870110691	104.85698744654
7	494	1311.614266804712	84.958431710795
7	495	1316.390560132074	73.363985129039
7	510	1342.421782647892	89.949635719197
7	511	1345.546937342793	92.314550128116
7	523	1375.284966302907	111.98463637272
7	524	1375.548722232865	105.3606146248
7	525	1375.780566048792	74.08549032411
7	526	1379.785474610401	60.178763994532
7	527	1382.459652766337	59.23825957285
7	537	1401.37956045787	75.544916582578
7	540	1412.997679259451	86.621933313905
7	541	1422.862963356458	95.35765770902
7	542	1431.02646058116	103.09574107038
7	543	1440.459355954449	101.32924391141
7	550	1451.676775847285	106.11054562395
7	555	1455.313371057884	101.09631424517
7	556	1456.106743855153	101.44852334098
7	559	1464.747869175105	99.994217004517
7	562	1472.78724909905	89.920104416223
7	567	1486.772050125941	101.15580069942
7	568	1489.836165775406	103.96244455782
7	578	1508.639674180479	102.34591640443
7	579	1511.204124200171	68.908674326455
7	584	1520.920838966721	76.520891692412
7	585	1525.756956433153	74.679711260934
7	586	1526.056553829367	74.329207352047
7	587	1528.190222235711	73.89291457143
7	588	1532.066300501746	71.193657298164
7	591	1534.398739535842	68.029530440845
7	592	1537.797975067688	57.856117419009
7	595	1541.995220765301	60.758193939279
7	598	1553.873025247376	58.148107080973
7	599	1560.660418940257	58.554029635516
7	600	1575.579090176547	70.121721784684
7	601	1578.560201577805	66.636343474595
7	606	1589.931353967043	70.285453803615
7	609	1592.011134519737	59.409882931648
7	612	1614.379717981719	74.439875293585
7	619	1621.577003404037	74.882706081434
7	620	1621.803943305476	42.443124666997
7	621	1627.266590054909	45.732657095912
7	622	1646.157696220051	54.863601724637
7	629	1657.63331774991	58.021746550573
7	630	1658.783337125765	43.545106030928
7	631	1660.88697585482	43.878249480766
7	632	1663.795056869923	44.991389758836
7	639	1681.448322691171	27.127323351877
7	642	1685.663876399198	31.13374362099
7	643	1688.863606432186	33.832263409869
7	644	1691.641934423165	26.46349513955
7	666	1717.97375157863	49.854279587143
7	667	1718.226209524746	38.048795989516
7	676	1726.544541145338	41.086687157228
7	679	1731.966661319173	39.525958950503
7	680	1736.413754395886	40.401955358086
7	685	1738.955311962602	34.886964449177
7	688	1752.226246726749	47.682169755008
7	689	1752.255355664922	40.279981148184
7	694	1753.550042881141	39.376915126973
7	699	1758.838634502768	40.279267677946
7	700	1762.464537813505	39.891331399452
7	708	1778.649875973048	54.001552730258
7	709	1781.349098221359	55.377527740901
7	712	1783.909494562652	53.310596884995
7	713	1785.887462479825	47.688717067167
7	749	1854.964542248423	116.34691398757
7	752	1861.66843063432	117.32063671149
7	757	1865.297463141541	112.76457720139
7	766	1884.918714439045	132.07030220379
7	769	1901.351271783367	144.27685349815
7	779	1922.770976806723	164.98734676564
7	780	1925.978111904295	162.5781860686
7	783	1929.029127754187	153.37905872813
7	788	1959.630690461177	176.41397772175
7	789	1959.649923457902	170.78550013871
7	795	1962.507622318087	170.86130579316
7	798	1969.181250283879	173.16256888567
7	799	1973.02895263965	161.63489558535
7	802	1988.13881326436	169.51541035911
7	803	1992.801565586311	172.33090571218
7	806	1996.394242005731	172.88954028046
7	807	2006.327953581217	181.55134218297
7	815	2017.157957826561	173.29350326364
7	816	2019.974636375556	166.95421035739
7	817	2022.85893940094	166.2582796135
7	818	2023.230813662588	160.44888511352
7	835	2054.354136104961	191.44394189001
7	836	2055.025260325454	188.48425830642
7	839	2059.151042215332	191.03970173542
7	840	2059.166043252185	176.11686188447
7	841	2061.913063086435	177.73126656509
7	844	2065.305166099149	180.31825612508
7	847	2071.975345856381	169.96486452639
7	853	2079.074991396337	172.3025373983
7	856	2083.969625261902	170.82151166716
7	857	2087.740787472122	161.22114732355
7	858	2090.773577044918	159.88345491458
7	863	2096.730728809604	146.49222151028
7	864	2097.643250550966	137.95692590011
7	867	2102.725201461968	137.07993575799
7	868	2104.025325867344	121.22511084743
7	871	2110.310212978192	114.59726345846
7	880	2139.927848905986	129.6221401755
7	887	2156.924004858528	143.38814934228
7	890	2162.463215881491	128.95138794984
7	893	2168.889743234902	135.31270315788
7	896	2175.414613900132	133.39557811981
7	897	2179.940018688586	133.10621707233
7	898	2191.108992318364	142.63790379813
7	899	2191.226469101212	133.30315157245
7	900	2191.429644584521	127.91084362271
7	901	2192.787394954652	123.89850716958
7	904	2205.620147436555	132.89111820775
7	909	2212.601603761501	131.50559644865
7	916	2224.364771689594	130.98895092596
7	919	2228.889492611649	132.74117443298
7	920	2229.991733929018	128.03197374571
7	921	2233.750638075439	123.4997397729
7	926	2237.055333904647	120.74107033038
7	927	2241.628193000696	115.01665435047
7	938	2271.517630049782	144.27401940729
7	943	2273.573310206582	142.28820491789
7	946	2279.001912847658	130.70587389169
7	947	2280.962242708089	130.96802725724
7	965	2305.952844990498	150.54109019646
7	968	2317.022791464426	156.77192410625
7	969	2317.534870112402	154.99901499711
7	970	2322.953221245486	151.23817510648
7	971	2326.711993710408	131.22766008303
7	972	2326.949876254335	120.37620007338
7	973	2327.561011548727	117.28931257047
7	974	2333.874267769339	117.96503046314
7	975	2335.027101007529	114.84637177367
7	978	2354.444007132425	133.72416407085
7	987	2396.592408955853	171.93612313652
7	990	2400.590596942685	165.98774206016
7	1000	2421.641730711188	186.81848680371
7	1006	2433.128723404653	176.23892760833
7	1007	2433.684978181399	170.93696392287
7	1014	2442.25475965376	177.46473600383
7	1019	2452.972239910655	187.92368055793
7	1024	2458.249587085372	188.48689286078
7	1025	2461.42801135314	189.27780863978
7	1028	2467.956801420646	195.5386156912
7	1031	2473.144370315815	196.24192621857
7	1032	2476.431224181811	184.42160567467
7	1037	2491.773203780517	197.55972160515
7	1038	2491.976180462347	197.25578750546
7	1039	2492.004402222405	195.42108415804
7	1042	2496.177294816826	198.47615031463
7	1043	2497.940606211785	194.88535616809
8	128	379.224384989686	29
8	129	380.197867782702	30
8	132	406.191172579672	31
8	147	427.63477639056	32
8	148	429.65325400793	33
8	149	430.079970232779	34
8	193	513.540743714326	35
8	201	534.254141005861	36
8	202	534.254522000602	37
8	209	566.206935611012	38
8	210	567.980606701512	39
8	215	583.412034991808	40
8	216	584.049746113667	41
8	220	598.431408032038	42
8	221	605.223693089679	43
8	222	615.093000632027	44
8	233	645.882724855178	45
8	236	648.906839958409	46
8	237	652.885213678429	47
8	242	660.552532783692	48
8	243	664.814756149423	49
8	244	669.104782915889	50
8	245	675.623237239382	51
8	249	685.607256201226	52
8	252	688.408160769107	53
8	253	692.173577390922	54
8	281	755.69389454928	55
8	282	757.706570062701	56
8	283	767.528910987176	57
8	284	769.179348205957	58
8	285	772.636735703968	59
8	286	772.737684789306	60
8	287	773.566638562834	61
8	288	783.007409675599	62
8	295	789.287371777405	63
8	296	800.295974768857	64
8	297	804.203904412254	65
8	300	807.198121479875	66
8	308	819.150670516973	67
8	312	830.570531884551	68
8	332	865.090284225342	69
8	333	865.458153130886	70
8	334	871.997075881979	71
8	335	878.177822588409	72
8	341	894.285638324744	73
8	344	897.806640711628	74
8	350	910.254364222956	75
8	353	917.257345032683	76
8	354	920.607710787554	77
8	357	921.125476779757	78
8	364	924.896375796065	79
8	365	931.254522662653	80
8	366	935.151601774512	81
8	369	942.12076070411	82
8	372	967.434737392673	83
8	380	990.976936507099	84
8	381	993.181943153109	85
8	384	995.384562567839	86
8	413	1078.511725252654	87
8	416	1082.848535265408	88
8	417	1083.573012903204	89
8	433	1116.796143023127	90
8	436	1130.509188714141	91
8	439	1142.907708440876	92
8	446	1159.853723322455	93
8	461	1185.665461457542	94
8	462	1187.285061942882	95
8	469	1203.60018348613	96
8	470	1215.292179621834	97
8	471	1221.972913611583	98
8	474	1231.736416929592	99
8	478	1243.888557243768	100
8	479	1244.956178844856	101
8	489	1282.245410186365	102
8	490	1284.351493818851	103
8	493	1306.590870110691	104
8	494	1311.614266804712	105
8	495	1316.390560132074	106
8	510	1342.421782647892	107
8	511	1345.546937342793	108
8	524	1375.548722232865	109
8	525	1375.780566048792	110
8	526	1379.785474610401	111
8	527	1382.459652766337	112
8	541	1422.862963356458	113
8	542	1431.02646058116	114
8	543	1440.459355954449	115
8	556	1456.106743855153	116
8	562	1472.78724909905	117
8	568	1489.836165775406	118
8	579	1511.204124200171	119
8	585	1525.756956433153	120
8	586	1526.056553829367	121
8	587	1528.190222235711	122
8	588	1532.066300501746	123
8	591	1534.398739535842	124
8	592	1537.797975067688	125
8	595	1541.995220765301	126
8	598	1553.873025247376	127
8	599	1560.660418940257	128
8	600	1575.579090176547	129
8	601	1578.560201577805	130
8	612	1614.379717981719	131
8	619	1621.577003404037	132
8	620	1621.803943305476	133
8	621	1627.266590054909	134
8	622	1646.157696220051	135
8	629	1657.63331774991	136
8	630	1658.783337125765	137
8	631	1660.88697585482	138
8	632	1663.795056869923	139
8	642	1685.663876399198	140
8	643	1688.863606432186	141
8	644	1691.641934423165	142
8	667	1718.226209524746	143
8	680	1736.413754395886	144
8	689	1752.255355664922	145
8	700	1762.464537813505	146
8	709	1781.349098221359	147
8	712	1783.909494562652	148
8	713	1785.887462479825	149
8	757	1865.297463141541	150
8	766	1884.918714439045	151
8	780	1925.978111904295	152
8	783	1929.029127754187	153
8	788	1959.630690461177	154
8	789	1959.649923457902	155
8	798	1969.181250283879	156
8	799	1973.02895263965	157
8	802	1988.13881326436	158
8	803	1992.801565586311	159
8	807	2006.327953581217	160
8	816	2019.974636375556	161
8	817	2022.85893940094	162
8	818	2023.230813662588	163
8	836	2055.025260325454	164
8	839	2059.151042215332	165
8	840	2059.166043252185	166
8	841	2061.913063086435	167
8	844	2065.305166099149	168
8	847	2071.975345856381	169
8	857	2087.740787472122	170
8	858	2090.773577044918	171
8	863	2096.730728809604	172
8	864	2097.643250550966	173
8	868	2104.025325867344	174
8	890	2162.463215881491	175
8	896	2175.414613900132	176
8	897	2179.940018688586	177
8	898	2191.108992318364	178
8	899	2191.226469101212	179
8	900	2191.429644584521	180
8	901	2192.787394954652	181
8	919	2228.889492611649	182
8	920	2229.991733929018	183
8	921	2233.750638075439	184
8	927	2241.628193000696	185
8	938	2271.517630049782	186
8	946	2279.001912847658	187
8	947	2280.962242708089	188
8	968	2317.022791464426	189
8	969	2317.534870112402	190
8	970	2322.953221245486	191
8	971	2326.711993710408	192
8	972	2326.949876254335	193
8	973	2327.561011548727	194
8	974	2333.874267769339	195
8	975	2335.027101007529	196
8	978	2354.444007132425	197
8	987	2396.592408955853	198
8	990	2400.590596942685	199
8	1007	2433.684978181399	200
8	1025	2461.42801135314	201
8	1028	2467.956801420646	202
8	1031	2473.144370315815	203
8	1032	2476.431224181811	204
8	1038	2491.976180462347	205
8	1039	2492.004402222405	206
8	1042	2496.177294816826	207
8	1043	2497.940606211785	208
9	128	379.224384989686	16.445372429269
9	129	380.197867782702	1.255545015422
9	132	406.191172579672	1.773599056001
9	147	427.63477639056	16.689706272905
9	148	429.65325400793	15.227126769452
9	149	430.079970232779	5.359820696291
9	193	513.540743714326	72.543373275296
9	201	534.254141005861	77.963311283818
9	202	534.254522000602	74.281461061002
9	209	566.206935611012	83.121058555205
9	210	567.980606701512	78.549053527861
9	215	583.412034991808	88.366854184383
9	216	584.049746113667	85.252641144639
9	220	598.431408032038	83.411669609226
9	221	605.223693089679	86.092032344295
9	222	615.093000632027	82.349610417249
9	233	645.882724855178	92.53753150513
9	236	648.906839958409	90.371682669349
9	237	652.885213678429	76.578097525309
9	242	660.552532783692	81.77963851062
9	243	664.814756149423	72.453919923992
9	244	669.104782915889	47.622043350927
9	245	675.623237239382	38.991875934647
9	249	685.607256201226	39.380773442791
9	252	688.408160769107	32.66101534699
9	253	692.173577390922	35.472240735256
9	281	755.69389454928	68.37342114095
9	282	757.706570062701	65.355160109071
9	283	767.528910987176	65.343685111405
9	284	769.179348205957	56.538815573661
9	285	772.636735703968	58.378261455868
9	286	772.737684789306	34.62771210417
9	287	773.566638562834	22.533904345211
9	288	783.007409675599	30.92941796405
9	295	789.287371777405	6.165857804864
9	296	800.295974768857	13.297112505237
9	297	804.203904412254	16.445991852625
9	300	807.198121479875	2.539860411486
9	308	819.150670516973	5.432526445488
9	312	830.570531884551	3.05568854512
9	332	865.090284225342	29.648431276797
9	333	865.458153130886	29.640926324813
9	334	871.997075881979	34.6069970471
9	335	878.177822588409	33.317890466868
9	341	894.285638324744	14.759580189893
9	344	897.806640711628	18.163332119931
9	350	910.254364222956	10.774609031067
9	353	917.257345032683	15.82823402432
9	354	920.607710787554	7.936881858882
9	357	921.125476779757	0.042475675969
9	364	924.896375796065	2.401169499287
9	365	931.254522662653	6.828276127466
9	366	935.151601774512	10.324391221473
9	369	942.12076070411	0.477567671796
9	372	967.434737392673	15.119737408275
9	380	990.976936507099	14.41132218944
9	381	993.181943153109	13.98021916981
9	384	995.384562567839	2.150208358676
9	413	1078.511725252654	40.69401121082
9	416	1082.848535265408	27.984762198118
9	417	1083.573012903204	21.086774026247
9	433	1116.796143023127	35.01422417103
9	436	1130.509188714141	44.663918206034
9	439	1142.907708440876	49.127465204881
9	446	1159.853723322455	58.934939683199
9	461	1185.665461457542	68.079886041028
9	462	1187.285061942882	47.087114514319
9	469	1203.60018348613	60.354856430045
9	470	1215.292179621834	70.280379669322
9	471	1221.972913611583	71.364109375986
9	474	1231.736416929592	71.701738505959
9	478	1243.888557243768	72.866579797129
9	479	1244.956178844856	70.121815424483
9	489	1282.245410186365	97.409863366023
9	490	1284.351493818851	85.107779370238
9	493	1306.590870110691	106.55635804417
9	494	1311.614266804712	109.88038414056
9	495	1316.390560132074	89.734725038157
9	510	1342.421782647892	99.395207644857
9	511	1345.546937342793	93.074790414098
9	524	1375.548722232865	112.24839230268
9	525	1375.780566048792	105.59245844073
9	526	1379.785474610401	78.090398885719
9	527	1382.459652766337	62.852942150468
9	541	1422.862963356458	96.487217410912
9	542	1431.02646058116	103.52115493372
9	543	1440.459355954449	112.52863644366
9	556	1456.106743855153	101.88968704244
9	562	1472.78724909905	108.03359692846
9	568	1489.836165775406	104.21991634889
9	579	1511.204124200171	104.91036642412
9	585	1525.756956433153	81.357009158844
9	586	1526.056553829367	74.979308657148
9	587	1528.190222235711	76.462875758391
9	588	1532.066300501746	77.768992837465
9	591	1534.398739535842	73.52609633226
9	592	1537.797975067688	71.428765972691
9	595	1541.995220765301	62.053363116622
9	598	1553.873025247376	72.635998421354
9	599	1560.660418940257	64.935500773854
9	600	1575.579090176547	73.472700871806
9	601	1578.560201577805	73.102833185942
9	612	1614.379717981719	81.77846639363
9	619	1621.577003404037	81.637160715903
9	620	1621.803943305476	75.109645982873
9	621	1627.266590054909	47.90577141643
9	622	1646.157696220051	64.623763261054
9	629	1657.63331774991	66.339223254496
9	630	1658.783337125765	59.171765926428
9	631	1660.88697585482	45.648744759983
9	632	1663.795056869923	46.786330495869
9	642	1685.663876399198	31.342877059904
9	643	1688.863606432186	34.333473653978
9	644	1691.641934423165	36.610591400848
9	667	1718.226209524746	50.106737533259
9	680	1736.413754395886	43.973052027216
9	689	1752.255355664922	47.711278693181
9	700	1762.464537813505	43.905170988683
9	709	1781.349098221359	56.700774978569
9	712	1783.909494562652	57.937924082194
9	713	1785.887462479825	55.288564802168
9	757	1865.297463141541	120.94966921871
9	766	1884.918714439045	132.3858284989
9	780	1925.978111904295	168.19448186322
9	783	1929.029127754187	165.62920191849
9	788	1959.630690461177	183.98062143512
9	789	1959.649923457902	176.43321071848
9	798	1969.181250283879	177.53493375895
9	799	1973.02895263965	177.01027124144
9	802	1988.13881326436	176.74475621006
9	803	1992.801565586311	174.17816268106
9	807	2006.327953581217	182.82325185595
9	816	2019.974636375556	176.11018181264
9	817	2022.85893940094	169.83851338278
9	818	2023.230813662588	166.63015387515
9	836	2055.025260325454	192.11506611051
9	839	2059.151042215332	192.61004019629
9	840	2059.166043252185	191.05470277227
9	841	2061.913063086435	178.86388171872
9	844	2065.305166099149	181.1233695778
9	847	2071.975345856381	186.98843588231
9	857	2087.740787472122	174.59267387738
9	858	2090.773577044918	164.25393689634
9	863	2096.730728809604	165.84060667927
9	864	2097.643250550966	147.40474325164
9	868	2104.025325867344	138.38006016336
9	890	2162.463215881491	148.92736036524
9	896	2175.414613900132	141.83757382311
9	897	2179.940018688586	137.92098290827
9	898	2191.108992318364	144.27519070211
9	899	2191.226469101212	142.75538058097
9	900	2191.429644584521	133.50632705576
9	901	2192.787394954652	129.26859399284
9	919	2228.889492611649	135.51367184801
9	920	2229.991733929018	133.84341575035
9	921	2233.750638075439	131.79087789213
9	927	2241.628193000696	125.31392942643
9	938	2271.517630049782	144.90609139955
9	946	2279.001912847658	147.71680755896
9	947	2280.962242708089	132.66620375212
9	968	2317.022791464426	161.61103667039
9	969	2317.534870112402	157.28400275422
9	970	2322.953221245486	160.41736613019
9	971	2326.711993710408	154.9969475714
9	972	2326.949876254335	131.46554262696
9	973	2327.561011548727	120.98733536777
9	974	2333.874267769339	123.60256879108
9	975	2335.027101007529	119.11786370133
9	978	2354.444007132425	134.26327789857
9	987	2396.592408955853	175.87256589427
9	990	2400.590596942685	175.93431112335
9	1007	2433.684978181399	176.79518238507
9	1025	2461.42801135314	191.66531712855
9	1028	2467.956801420646	195.80659870728
9	1031	2473.144370315815	200.72618458637
9	1032	2476.431224181811	199.52878008456
9	1038	2491.976180462347	197.76269828698
9	1039	2492.004402222405	197.28400926552
9	1042	2496.177294816826	199.59397675246
9	1043	2497.940606211785	200.23946170959
10	153	436.114629776888	8
10	181	483.085877055807	9
10	188	498.797104969028	10
10	191	504.528118920206	11
10	197	519.131660745384	12
10	218	592.360836225431	13
10	224	621.482739564962	14
10	247	677.30644856781	15
10	255	692.35140995363	16
10	304	813.718144071485	17
10	310	827.514843339431	18
10	339	879.643308591697	19
10	346	899.479755191889	20
10	376	976.565614317659	21
10	419	1085.845270508107	22
10	424	1100.918783639256	23
10	450	1161.237628372735	24
10	457	1177.458798046421	25
10	476	1243.026575003035	26
10	481	1252.472146928695	27
10	517	1354.658220514177	28
10	529	1382.867144682827	29
10	539	1406.293757776049	30
10	545	1442.295449873716	31
10	552	1451.72734647732	32
10	558	1460.872643203582	33
10	566	1481.237026826022	34
10	570	1495.724918166403	35
10	581	1511.92385810321	36
10	605	1581.533932958997	37
10	608	1591.294094495414	38
10	634	1665.178439283615	39
10	646	1692.44070236867	40
10	675	1725.971570480458	41
10	678	1730.598897677657	42
10	682	1738.198745412658	43
10	687	1744.347793922827	44
10	693	1752.848412235259	45
10	698	1757.78363004108	46
10	702	1763.399925835698	47
10	715	1788.864423319195	48
10	751	1856.600659787436	49
10	768	1884.986909974073	50
10	771	1902.010481329994	51
10	791	1959.686324650859	52
10	805	1995.712949519735	53
10	809	2010.305708730489	54
10	820	2033.511827931655	55
10	849	2072.729029228804	56
10	855	2081.096007312855	57
10	866	2101.959760183306	58
10	870	2110.250898302535	59
10	873	2116.31426357427	60
10	884	2149.994215450844	61
10	892	2162.535855115292	62
10	903	2195.484333627378	63
10	906	2206.573676180957	64
10	913	2220.180729233857	65
10	925	2234.82324390748	66
10	940	2272.150202713364	67
10	951	2294.213482175366	68
10	992	2403.073108456165	69
10	1002	2423.00394114612	70
10	1009	2436.588983293494	71
10	1016	2449.056449732793	72
10	1023	2456.915004370078	73
10	1036	2480.556299264915	74
11	1044	2500	0.0832
12	1044	2500	0.0492

