version 2
run experiments_hard_game_mode1-1469-20230311-19:44:46-12399
attr configname experiments_hard_game_mode1
attr datetime 20230311-19:44:46
attr experiment experiments_hard_game_mode1
attr inifile omnetpp.ini
attr iterationvars "$0=9.5, $1=7, $2=0"
attr iterationvarsf 9.5,7,0-
attr measurement "$0=9.5, $1=7, $2=0"
attr network Network
attr processid 12399
attr repetition 29
attr replication #29
attr resultdir results
attr runnumber 1469
attr seedset 29
param *.boss.arrival_mean 20
param *.boss.service_mean 9.5
param *.minion.arrival_mean 10
param *.minion.service_mean 7
param *.player.recover_rate_x 0
param **.minion.arrival_distribution 0
param **.minion.service_distribution 0
param **.boss.arrival_distribution 0
param **.boss.service_distribution 0

vector 0 Network.player minion_defeated_stat:vector ETV
attr source signal_minion_defeated
vector 1 Network.player minion_jobs_queue_number_stat:vector ETV
attr source signal_minion_jobs_queue_number
vector 2 Network.player minion_response_time_stat:vector ETV
attr source signal_minion_response_time
vector 3 Network.player minion_waiting_time_stat:vector ETV
attr source signal_minion_waiting_time
vector 4 Network.player boss_jobs_number_stat:vector ETV
attr source signal_boss_jobs_number
vector 5 Network.player boss_jobs_queue_number_stat:vector ETV
attr source signal_boss_jobs_queue_number
vector 6 Network.player minion_recovered_stat:vector ETV
attr source signal_minion_recovered
vector 7 Network.player boss_waiting_time_stat:vector ETV
attr source signal_boss_waiting_time
vector 8 Network.player boss_defeated_stat:vector ETV
attr source signal_boss_defeated
vector 9 Network.player boss_response_time_stat:vector ETV
attr source signal_boss_response_time
vector 10 Network.player minion_jobs_number_stat:vector ETV
attr source signal_minion_jobs_number
vector 11 Network.player minion_throughput:vector ETV
attr source signal_minion_throughput
vector 12 Network.player boss_throughput:vector ETV
attr source signal_boss_throughput
0	133	350.098018872941	22
0	137	370.071175729464	23
0	150	406.914237355913	24
0	151	416.456982407907	25
0	152	419.995309067779	26
0	169	474.430446146961	27
0	170	493.425002909507	28
0	171	494.56999155062	29
0	174	495.489848542028	30
0	177	504.69079899819	31
0	178	513.247624532492	32
0	179	518.878552372708	33
0	180	519.883475688766	34
0	184	526.955373204048	35
0	188	539.586344519121	36
0	194	546.88580015742	37
0	195	547.08023280003	38
0	198	560.230865586435	39
0	199	560.446298297495	40
0	200	561.390282401177	41
0	201	561.544984662593	42
0	202	568.235478865438	43
0	205	572.482424563394	44
0	210	578.148792072391	45
0	211	583.569174803982	46
0	237	643.370629124451	47
0	238	643.935505804778	48
0	258	702.816867754906	49
0	259	703.612730375714	50
0	269	725.051423084954	51
0	270	737.426121922946	52
0	271	741.942902336365	53
0	278	764.389010591412	54
0	279	772.354057370285	55
0	280	779.853104216234	56
0	304	805.664902365572	57
0	307	814.16085402144	58
0	315	849.289833659823	59
0	328	873.135798488467	60
0	359	923.097672801717	61
0	365	944.298234874757	62
0	380	967.954118801967	63
0	383	977.734634204077	64
0	384	978.210175351813	65
0	385	978.961077858976	66
0	386	981.504996246901	67
0	387	981.737012701672	68
0	390	990.642485467733	69
0	391	991.5776747395	70
0	396	1001.355704460723	71
0	399	1009.261929031875	72
0	410	1025.760885891355	73
0	411	1026.186990943271	74
0	412	1027.334201738643	75
0	413	1030.044172101159	76
0	416	1035.957582240834	77
0	424	1049.93167208732	78
0	427	1058.250141203725	79
0	428	1061.91656126921	80
0	433	1069.177591595225	81
0	436	1082.80691775089	82
0	441	1100.27937959973	83
0	442	1100.793163518893	84
0	443	1108.515757267795	85
0	450	1112.499853686155	86
0	451	1112.744229592143	87
0	456	1121.032790481443	88
0	457	1121.872065674245	89
0	485	1219.57032519352	90
0	493	1240.772874734468	91
0	500	1254.10994633138	92
0	506	1267.345523856513	93
0	507	1274.587457583407	94
0	564	1425.899638486074	95
0	565	1427.675189235434	96
0	566	1430.533918246811	97
0	571	1435.389552531215	98
0	574	1442.621039140143	99
0	584	1471.681000064641	100
0	585	1475.55874024588	101
0	586	1484.375350900529	102
0	587	1486.503248085223	103
0	590	1487.957201719208	104
0	593	1510.898522750159	105
0	594	1517.50529978393	106
0	595	1518.038204995455	107
0	598	1528.30359484225	108
0	599	1532.671106144816	109
0	600	1534.352024853381	110
0	603	1536.802529912685	111
0	613	1575.81930337977	112
0	616	1578.403952243336	113
0	648	1657.697372172308	114
0	649	1661.641151344442	115
0	650	1663.501409288286	116
0	658	1668.273537884683	117
0	663	1681.427656956869	118
0	666	1689.666331703085	119
0	669	1695.461719064962	120
0	670	1701.050542556026	121
0	671	1710.896289226788	122
0	676	1731.042313016025	123
0	699	1773.138579171723	124
0	700	1783.257170950234	125
0	703	1787.962314689555	126
0	704	1790.193151675576	127
0	714	1805.701962428094	128
0	717	1809.463404331075	129
0	718	1810.308957743781	130
0	719	1816.826357350229	131
0	727	1826.858688663537	132
0	728	1828.143997739615	133
0	729	1831.426787907748	134
0	732	1840.562851806268	135
0	736	1846.559178068424	136
0	737	1850.582088345502	137
0	762	1907.088013058452	138
0	773	1933.608200918309	139
0	776	1945.456905727487	140
0	777	1949.326240664087	141
0	778	1953.054087248603	142
0	796	1999.487400929725	143
0	797	2000.62087975496	144
0	805	2018.726791298691	145
0	806	2019.482717347171	146
0	807	2021.60380113387	147
0	808	2022.085852543215	148
0	809	2024.07209495559	149
0	827	2058.14889430916	150
0	836	2075.477112478296	151
0	837	2082.137882182847	152
0	838	2086.39562341347	153
0	839	2092.88939648035	154
0	842	2101.021876377365	155
0	843	2108.379710934407	156
0	850	2121.339699784417	157
0	858	2151.114125495893	158
0	859	2151.267626176831	159
0	878	2193.565373960689	160
0	884	2212.622155975264	161
0	943	2320.39239752722	162
0	948	2326.435816105071	163
0	966	2372.424280268039	164
0	967	2378.575931395596	165
0	968	2378.843901460314	166
0	971	2399.209849745691	167
0	980	2426.397259911095	168
0	981	2429.061468880408	169
0	984	2433.588246970822	170
0	985	2434.72300763079	171
0	993	2452.517921320286	172
0	1001	2463.606952063163	173
0	1004	2490.702518388676	174
0	1005	2498.941238203744	175
1	133	350.098018872941	14
1	137	370.071175729464	13
1	143	379.608095313354	13
1	146	385.157042033546	14
1	149	399.228233649482	15
1	150	406.914237355913	15
1	151	416.456982407907	14
1	152	419.995309067779	13
1	156	426.29441775287	13
1	160	443.660282730514	14
1	162	448.882770349587	15
1	164	458.137377426833	16
1	168	465.826518938555	17
1	169	474.430446146961	17
1	170	493.425002909507	16
1	171	494.56999155062	15
1	173	494.833255579592	15
1	174	495.489848542028	15
1	176	499.822669747212	15
1	177	504.69079899819	15
1	178	513.247624532492	14
1	179	518.878552372708	13
1	180	519.883475688766	12
1	184	526.955373204048	11
1	188	539.586344519121	10
1	190	545.209727119979	10
1	194	546.88580015742	10
1	195	547.08023280003	9
1	197	556.326563719439	9
1	198	560.230865586435	9
1	199	560.446298297495	8
1	200	561.390282401177	7
1	201	561.544984662593	6
1	202	568.235478865438	5
1	204	572.24175660314	5
1	205	572.482424563394	5
1	207	575.863779244195	5
1	209	577.881832968284	6
1	210	578.148792072391	6
1	211	583.569174803982	5
1	219	618.606462312563	5
1	222	621.290089637664	6
1	224	624.589581645086	7
1	226	627.159808616859	8
1	230	636.156734196456	9
1	232	638.695588633048	10
1	234	639.503912377234	11
1	236	641.651605112762	12
1	237	643.370629124451	12
1	238	643.935505804778	11
1	240	648.446565023337	11
1	244	656.54974981075	12
1	250	679.39638457525	13
1	254	682.973119520857	14
1	257	694.937514966378	15
1	258	702.816867754906	15
1	259	703.612730375714	14
1	261	709.632194269071	14
1	263	711.758812941697	15
1	265	714.745063282436	16
1	269	725.051423084954	16
1	270	737.426121922946	15
1	271	741.942902336365	14
1	278	764.389010591412	13
1	279	772.354057370285	12
1	280	779.853104216234	11
1	282	780.526003935068	11
1	284	782.044152913347	12
1	286	785.118702325468	13
1	288	786.82893246052	14
1	290	792.211735403243	15
1	292	794.650893746256	16
1	294	796.164645718989	17
1	296	797.919207288304	18
1	301	800.659176556938	19
1	303	802.145561068497	20
1	304	805.664902365572	20
1	306	811.00518497882	20
1	307	814.16085402144	20
1	312	837.601350145641	20
1	314	842.808892412795	21
1	315	849.289833659823	21
1	317	850.859225738186	21
1	319	852.072682488855	22
1	321	856.159958446072	23
1	328	873.135798488467	23
1	334	877.773073587536	23
1	337	893.64717916577	24
1	342	896.443773630609	25
1	344	899.605850019362	26
1	349	906.490154822813	27
1	351	908.845874933179	28
1	353	909.068777480588	29
1	355	910.906698195825	30
1	358	913.501120803603	31
1	359	923.097672801717	31
1	361	923.456570972861	31
1	365	944.298234874757	31
1	371	953.896826670245	31
1	374	955.784633106749	32
1	376	959.402928374506	33
1	379	967.655498130466	34
1	380	967.954118801967	34
1	382	977.727526974586	34
1	383	977.734634204077	34
1	384	978.210175351813	33
1	385	978.961077858976	32
1	386	981.504996246901	31
1	387	981.737012701672	30
1	389	986.483345419537	30
1	390	990.642485467733	30
1	391	991.5776747395	29
1	393	992.65484243738	29
1	395	1000.462186581842	30
1	396	1001.355704460723	30
1	398	1006.176726943197	30
1	399	1009.261929031875	30
1	406	1017.427407056631	30
1	409	1023.333185885289	31
1	410	1025.760885891355	31
1	411	1026.186990943271	30
1	412	1027.334201738643	29
1	413	1030.044172101159	28
1	415	1035.575057615901	28
1	416	1035.957582240834	28
1	418	1036.397542892707	28
1	422	1042.071307097477	29
1	424	1049.93167208732	29
1	426	1053.311955600887	29
1	427	1058.250141203725	29
1	428	1061.91656126921	28
1	430	1068.628170045546	28
1	432	1068.7372523909	29
1	433	1069.177591595225	29
1	435	1076.558449330755	29
1	436	1082.80691775089	29
1	438	1085.269920578633	29
1	440	1090.503816550838	30
1	441	1100.27937959973	30
1	442	1100.793163518893	29
1	443	1108.515757267795	28
1	445	1108.756096424927	28
1	447	1109.014040151767	29
1	449	1111.825117276107	30
1	450	1112.499853686155	30
1	451	1112.744229592143	29
1	453	1117.188075728243	29
1	455	1118.573341036805	30
1	456	1121.032790481443	30
1	457	1121.872065674245	29
1	461	1130.12602680693	29
1	468	1145.944497366466	30
1	481	1191.074306916834	31
1	485	1219.57032519352	31
1	487	1224.317871195993	31
1	492	1239.415299962359	32
1	493	1240.772874734468	32
1	495	1241.319226478284	32
1	497	1246.698348383056	33
1	499	1249.075240055608	34
1	500	1254.10994633138	34
1	504	1262.228682128353	34
1	506	1267.345523856513	34
1	507	1274.587457583407	33
1	511	1281.456586332296	33
1	515	1285.868618464094	34
1	517	1287.995910071284	35
1	519	1290.105014442061	36
1	527	1297.064115025479	37
1	531	1309.251003332188	38
1	537	1322.970381474386	39
1	539	1327.054292896169	40
1	541	1337.426373481282	41
1	543	1339.570652825673	42
1	549	1353.57388117284	43
1	551	1354.516585092584	44
1	563	1421.845319537203	45
1	564	1425.899638486074	45
1	565	1427.675189235434	44
1	566	1430.533918246811	43
1	568	1433.077455864582	43
1	570	1434.570566934513	44
1	571	1435.389552531215	44
1	573	1436.700873309931	44
1	574	1442.621039140143	44
1	576	1444.299171092421	44
1	580	1451.583659890725	45
1	582	1462.140670769399	46
1	584	1471.681000064641	46
1	585	1475.55874024588	45
1	586	1484.375350900529	44
1	587	1486.503248085223	43
1	589	1486.551119297569	43
1	590	1487.957201719208	43
1	592	1496.223907441521	43
1	593	1510.898522750159	43
1	594	1517.50529978393	42
1	595	1518.038204995455	41
1	597	1523.68482419876	41
1	598	1528.30359484225	41
1	599	1532.671106144816	40
1	600	1534.352024853381	39
1	602	1535.830083928314	39
1	603	1536.802529912685	39
1	607	1552.15528015073	39
1	610	1569.113611818043	40
1	612	1574.59712260323	41
1	613	1575.81930337977	41
1	615	1577.783622414697	41
1	616	1578.403952243336	41
1	622	1588.000980001104	41
1	625	1592.596152355802	42
1	638	1636.55918818209	43
1	640	1640.641096239258	44
1	644	1650.918419052956	45
1	648	1657.697372172308	45
1	649	1661.641151344442	44
1	650	1663.501409288286	43
1	654	1663.785704815084	43
1	657	1667.004304150596	44
1	658	1668.273537884683	44
1	660	1674.644996918479	44
1	662	1675.406868188611	45
1	663	1681.427656956869	45
1	665	1683.621375205935	45
1	666	1689.666331703085	45
1	668	1691.870758945599	45
1	669	1695.461719064962	45
1	670	1701.050542556026	44
1	671	1710.896289226788	43
1	673	1720.321633944097	43
1	675	1728.242047121611	44
1	676	1731.042313016025	44
1	678	1733.304477625183	44
1	682	1736.123190533158	45
1	684	1736.909763431248	46
1	686	1745.044126709653	47
1	689	1748.564229081137	48
1	691	1749.269661046032	49
1	695	1753.344411509976	50
1	698	1768.415993221564	51
1	699	1773.138579171723	51
1	700	1783.257170950234	50
1	702	1784.209010264732	50
1	703	1787.962314689555	50
1	704	1790.193151675576	49
1	708	1800.178677377241	49
1	710	1800.95833616599	50
1	712	1802.963572909128	51
1	714	1805.701962428094	51
1	716	1808.674857293738	51
1	717	1809.463404331075	51
1	718	1810.308957743781	50
1	719	1816.826357350229	49
1	724	1823.070351810148	49
1	726	1823.916015992079	50
1	727	1826.858688663537	50
1	728	1828.143997739615	49
1	729	1831.426787907748	48
1	731	1834.242923632817	48
1	732	1840.562851806268	48
1	736	1846.559178068424	47
1	737	1850.582088345502	46
1	753	1884.674211425783	46
1	758	1897.934943306775	47
1	760	1899.021409378431	48
1	762	1907.088013058452	48
1	764	1908.271706007079	48
1	766	1911.895429355032	49
1	768	1914.724388814061	50
1	770	1919.490991222787	51
1	772	1923.241762418407	52
1	773	1933.608200918309	52
1	775	1936.92438258832	52
1	776	1945.456905727487	52
1	777	1949.326240664087	51
1	778	1953.054087248603	50
1	784	1961.501522926047	50
1	786	1965.216661545734	51
1	789	1976.143259682891	52
1	791	1977.106085114153	53
1	796	1999.487400929725	53
1	797	2000.62087975496	52
1	799	2002.049166686635	52
1	803	2014.824804974099	53
1	805	2018.726791298691	53
1	806	2019.482717347171	52
1	807	2021.60380113387	51
1	808	2022.085852543215	50
1	809	2024.07209495559	49
1	811	2026.435831902888	49
1	813	2026.746619278247	50
1	815	2034.2767880203	51
1	819	2040.832134308452	52
1	821	2041.731501973777	53
1	824	2044.394175563752	54
1	826	2057.540071414153	55
1	827	2058.14889430916	55
1	831	2064.678649429053	55
1	836	2075.477112478296	55
1	837	2082.137882182847	54
1	838	2086.39562341347	53
1	839	2092.88939648035	52
1	841	2100.643440090761	52
1	842	2101.021876377365	52
1	843	2108.379710934407	51
1	845	2109.735389103771	51
1	847	2114.55518655679	52
1	849	2119.70008837266	53
1	850	2121.339699784417	53
1	855	2141.252353958549	53
1	857	2145.214967111336	54
1	858	2151.114125495893	54
1	859	2151.267626176831	53
1	861	2156.225819555676	53
1	865	2162.801836191714	54
1	873	2176.399567796595	55
1	878	2193.565373960689	55
1	880	2206.400218154673	55
1	884	2212.622155975264	55
1	886	2212.910426022293	55
1	896	2223.822523938987	56
1	898	2229.518382743654	57
1	900	2237.356526885323	58
1	902	2242.16939733723	59
1	904	2249.811830180648	60
1	907	2260.677147560681	61
1	913	2276.381357349022	62
1	925	2299.593657816942	63
1	929	2305.917559909468	64
1	933	2308.049972561187	65
1	935	2311.300208667409	66
1	937	2311.517313327987	67
1	940	2317.103988873237	68
1	943	2320.39239752722	68
1	945	2321.252529477898	68
1	947	2324.894460081239	69
1	948	2326.435816105071	69
1	959	2345.158710441866	69
1	966	2372.424280268039	69
1	967	2378.575931395596	68
1	968	2378.843901460314	67
1	970	2393.48451685585	67
1	971	2399.209849745691	67
1	973	2409.027012630994	67
1	975	2414.534346640401	68
1	977	2418.902692042539	69
1	979	2419.493416931437	70
1	980	2426.397259911095	70
1	981	2429.061468880408	69
1	983	2432.165685310105	69
1	984	2433.588246970822	69
1	985	2434.72300763079	68
1	989	2437.386547876681	68
1	991	2439.315187646736	69
1	993	2452.517921320286	69
1	998	2461.210077954654	69
1	1000	2463.600744450632	70
1	1001	2463.606952063163	70
1	1003	2464.886615128397	70
1	1004	2490.702518388676	70
1	1005	2498.941238203744	69
2	133	350.098018872941	84.917193917635
2	137	370.071175729464	98.278471394031
2	150	406.914237355913	114.90399082131
2	151	416.456982407907	124.20389601326
2	152	419.995309067779	115.70614941234
2	169	474.430446146961	164.92136925393
2	170	493.425002909507	180.187623678
2	171	494.56999155062	180.71683437015
2	174	495.489848542028	173.18433271135
2	177	504.69079899819	178.85107995086
2	178	513.247624532492	182.59513271814
2	179	518.878552372708	187.36485490707
2	180	519.883475688766	158.8616501396
2	184	526.955373204048	147.34727789069
2	188	539.586344519121	140.35811086964
2	194	546.88580015742	120.59138240455
2	195	547.08023280003	103.41995006952
2	198	560.230865586435	111.34809523685
2	199	560.446298297495	102.30892087066
2	200	561.390282401177	95.563763462622
2	201	561.544984662593	66.711729083001
2	202	568.235478865438	68.412809118226
2	205	572.482424563394	48.742910634774
2	210	578.148792072391	47.593660212825
2	211	583.569174803982	38.359447684003
2	237	643.370629124451	87.044065405012
2	238	643.935505804778	71.693749201638
2	258	702.816867754906	113.46077832065
2	259	703.612730375714	85.006268063151
2	269	725.051423084954	100.46184143987
2	270	737.426121922946	110.26631330609
2	271	741.942902336365	105.78616813991
2	278	764.389010591412	122.73740547865
2	279	772.354057370285	123.90749234695
2	280	779.853104216234	127.19096921512
2	304	805.664902365572	126.26851779032
2	307	814.16085402144	132.17263193843
2	315	849.289833659823	154.35231869344
2	328	873.135798488467	161.37698554677
2	359	923.097672801717	180.72868358396
2	365	944.298234874757	163.77223093969
2	380	967.954118801967	182.8354164765
2	383	977.734634204077	190.90570174356
2	384	978.210175351813	185.99843994857
2	385	978.961077858976	184.31018411272
2	386	981.504996246901	185.34035052791
2	387	981.737012701672	183.81780541337
2	390	990.642485467733	191.00962545858
2	391	991.5776747395	190.91849818256
2	396	1001.355704460723	199.21014339223
2	399	1009.261929031875	198.25674405306
2	410	1025.760885891355	182.95199347856
2	411	1026.186990943271	175.32776520509
2	412	1027.334201738643	175.26151924979
2	413	1030.044172101159	173.88421365509
2	416	1035.957582240834	175.85021814302
2	424	1049.93167208732	172.15859849978
2	427	1058.250141203725	164.60296203795
2	428	1061.91656126921	165.62615164458
2	433	1069.177591595225	172.73381796462
2	436	1082.80691775089	183.20106773153
2	441	1100.27937959973	193.78922477692
2	442	1100.793163518893	191.94728858571
2	443	1108.515757267795	199.44697978721
2	450	1112.499853686155	201.59315549033
2	451	1112.744229592143	199.24310878854
2	456	1121.032790481443	197.57621950858
2	457	1121.872065674245	197.38172992012
2	485	1219.57032519352	265.67349852327
2	493	1240.772874734468	281.36994635996
2	500	1254.10994633138	286.45444820091
2	506	1267.345523856513	280.86217843698
2	507	1274.587457583407	281.93261514603
2	564	1425.899638486074	419.72291154288
2	565	1427.675189235434	415.90320081506
2	566	1430.533918246811	418.0212718709
2	571	1435.389552531215	417.96214547458
2	574	1442.621039140143	419.28785325485
2	584	1471.681000064641	435.28345717193
2	585	1475.55874024588	437.18762094014
2	586	1484.375350900529	442.30404380305
2	587	1486.503248085223	433.19129248434
2	590	1487.957201719208	419.32903167366
2	593	1510.898522750159	442.16127035926
2	594	1517.50529978393	440.94685045317
2	595	1518.038204995455	432.76828441682
2	598	1528.30359484225	437.79977829141
2	599	1532.671106144816	423.91500971989
2	600	1534.352024853381	425.33798470161
2	603	1536.802529912685	424.97741263658
2	613	1575.81930337977	457.24596234297
2	616	1578.403952243336	453.71680324773
2	648	1657.697372172308	427.3375334603
2	649	1661.641151344442	422.22585138208
2	650	1663.501409288286	422.18218281
2	658	1668.273537884683	419.19829782907
2	663	1681.427656956869	423.66636955147
2	666	1689.666331703085	427.43764957473
2	669	1695.461719064962	418.32239550252
2	670	1701.050542556026	419.59395622373
2	671	1710.896289226788	425.02767076269
2	676	1731.042313016025	443.04640294474
2	699	1773.138579171723	463.88757583953
2	700	1783.257170950234	460.28678947585
2	703	1787.962314689555	460.90802179339
2	704	1790.193151675576	452.76677819429
2	714	1805.701962428094	452.12808125525
2	717	1809.463404331075	454.94681923849
2	718	1810.308957743781	388.46363820658
2	719	1816.826357350229	383.74890148565
2	727	1826.858688663537	390.15781535361
2	728	1828.143997739615	383.84482664719
2	729	1831.426787907748	382.9578280823
2	732	1840.562851806268	388.97919191554
2	736	1846.559178068424	360.00805877085
2	737	1850.582088345502	354.35818090398
2	762	1907.088013058452	337.97440124041
2	773	1933.608200918309	359.01107831508
2	776	1945.456905727487	367.67328331279
2	777	1949.326240664087	366.00035673854
2	778	1953.054087248603	365.0531072475
2	796	1999.487400929725	385.86121118123
2	797	2000.62087975496	371.63229480508
2	805	2018.726791298691	378.08569505943
2	806	2019.482717347171	368.56429829422
2	807	2021.60380113387	367.37870730576
2	808	2022.085852543215	358.55995476637
2	809	2024.07209495559	360.28639014051
2	827	2058.14889430916	383.50389739068
2	836	2075.477112478296	383.6063535327
2	837	2082.137882182847	361.81624823875
2	838	2086.39562341347	358.15357629186
2	839	2092.88939648035	359.58491885517
2	842	2101.021876377365	366.94463584856
2	843	2108.379710934407	372.25652040125
2	850	2121.339699784417	384.42993635317
2	858	2151.114125495893	402.54989641476
2	859	2151.267626176831	401.9979651308
2	878	2193.565373960689	440.22096245071
2	884	2212.622155975264	428.41314571053
2	943	2320.39239752722	501.89753067172
2	948	2326.435816105071	503.36546429492
2	966	2372.424280268039	527.97830297684
2	967	2378.575931395596	521.40598015688
2	968	2378.843901460314	513.58081086293
2	971	2399.209849745691	528.31756712432
2	980	2426.397259911095	541.72304848531
2	981	2429.061468880408	534.48670041612
2	984	2433.588246970822	535.65330366405
2	985	2434.72300763079	535.70159825236
2	993	2452.517921320286	540.62249196525
2	1001	2463.606952063163	544.11596084038
2	1004	2490.702518388676	567.46075597027
2	1005	2498.941238203744	562.01685561542
3	133	350.098018872941	78.810068732117
3	136	364.070127969314	92.277423633881
3	137	370.071175729464	83.32222436741
3	147	388.093077195877	96.082830661276
3	150	406.914237355913	114.66115096127
3	151	416.456982407907	112.16782275247
3	152	419.995309067779	110.64131708701
3	166	465.346423155286	155.83734626225
3	169	474.430446146961	161.19306691545
3	170	493.425002909507	179.57184572904
3	171	494.56999155062	172.26447571994
3	174	495.489848542028	169.6501294947
3	177	504.69079899819	174.03830718383
3	178	513.247624532492	181.73392706685
3	179	518.878552372708	157.85672682354
3	180	519.883475688766	141.89280986819
3	183	524.638775696468	145.03068038311
3	184	526.955373204048	141.7983311705
3	187	533.451159284211	134.22292563473
3	188	539.586344519121	117.5767016582
3	193	546.610223353487	120.31580560062
3	194	546.88580015742	103.22551742691
3	195	547.08023280003	98.197462450443
3	198	560.230865586435	102.0934881596
3	199	560.446298297495	94.61977935894
3	200	561.390282401177	66.557026821585
3	201	561.544984662593	61.722314915381
3	202	568.235478865438	44.495964936818
3	205	572.482424563394	41.927292703828
3	210	578.148792072391	32.939064952412
3	211	583.569174803982	38.196049718997
3	228	634.643017904694	78.316454185255
3	237	643.370629124451	71.128872521311
3	238	643.935505804778	68.071726560583
3	248	675.237615145736	97.355782177452
3	255	686.620658639055	97.264569204795
3	258	702.816867754906	84.210405442343
3	259	703.612730375714	82.32264073805
3	268	724.235665025248	99.646083380162
3	269	725.051423084954	97.891614468095
3	270	737.426121922946	101.26938772649
3	271	741.942902336365	103.24731370332
3	274	746.138769219481	106.63485684225
3	277	755.213909484434	113.56230437167
3	278	764.389010591412	115.94244556808
3	279	772.354057370285	119.69192236917
3	280	779.853104216234	123.30335440548
3	299	800.053816925624	120.65743235037
3	304	805.664902365572	123.67668028256
3	307	814.16085402144	131.18773450058
3	310	835.007884225189	140.07036925881
3	315	849.289833659823	139.65763939075
3	327	870.110870093453	158.35205715176
3	328	873.135798488467	158.39073520603
3	338	894.207907304644	171.59819618743
3	356	912.701129046605	170.33213982885
3	359	923.097672801717	171.98574403539
3	364	936.484742640881	155.95873870581
3	365	944.298234874757	162.25408196141
3	377	962.145290739961	177.02658841449
3	380	967.954118801967	181.12518634145
3	383	977.734634204077	185.52289880083
3	384	978.210175351813	183.55928160556
3	385	978.961077858976	182.79643213999
3	386	981.504996246901	183.5857889586
3	387	981.737012701672	182.10415269252
3	390	990.642485467733	189.98330891079
3	391	991.5776747395	189.432113671
3	396	1001.355704460723	190.3505194819
3	399	1009.261929031875	194.40843532119
3	402	1012.200372809702	174.59902266406
3	407	1021.193016462047	178.38412404925
3	410	1025.760885891355	174.90166015317
3	411	1026.186990943271	174.11430845442
3	412	1027.334201738643	171.17424329257
3	413	1030.044172101159	169.93680800334
3	416	1035.957582240834	162.72541827346
3	423	1048.972202077691	171.19912849016
3	424	1049.93167208732	156.28449292155
3	427	1058.250141203725	161.9597315791
3	428	1061.91656126921	165.4727876386
3	433	1069.177591595225	169.57174157586
3	436	1082.80691775089	176.31676292808
3	441	1100.27937959973	191.43350466655
3	442	1100.793163518893	191.7243860383
3	443	1108.515757267795	197.60905907197
3	450	1112.499853686155	198.99873288255
3	451	1112.744229592143	189.28765861928
3	456	1121.032790481443	196.54245472732
3	457	1121.872065674245	177.43597337532
3	484	1198.683697529651	244.78687085941
3	485	1219.57032519352	263.78569208677
3	490	1231.828571312372	272.42564293787
3	493	1240.772874734468	273.117376604
3	500	1254.10994633138	276.38241935679
3	505	1265.971435024487	279.48808960495
3	506	1267.345523856513	274.69068141913
3	507	1274.587457583407	274.12527100157
3	561	1415.049671165314	408.87294422212
3	564	1425.899638486074	414.1276500657
3	565	1427.675189235434	415.16254285953
3	566	1430.533918246811	413.10651119018
3	571	1435.389552531215	412.05636664593
3	574	1442.621039140143	407.04598152424
3	583	1463.590331415537	427.19278852283
3	584	1471.681000064641	433.3098807589
3	585	1475.55874024588	433.4874331484
3	586	1484.375350900529	431.06339529964
3	587	1486.503248085223	417.87507803968
3	590	1487.957201719208	419.21994932831
3	593	1510.898522750159	434.3400734194
3	594	1517.50529978393	432.2353792053
3	595	1518.038204995455	427.53438844462
3	598	1528.30359484225	419.54749841732
3	599	1532.671106144816	423.65706599305
3	600	1534.352024853381	422.52690757727
3	603	1536.802529912685	419.61445418444
3	608	1567.953292562598	449.37995152579
3	613	1575.81930337977	451.13215438416
3	616	1578.403952243336	448.27792543641
3	626	1606.260817498423	460.31632013196
3	632	1624.434667067622	433.36036015079
3	642	1645.764812133554	421.44694093756
3	647	1656.670329279521	426.31049056752
3	648	1657.697372172308	418.28207220995
3	649	1661.641151344442	420.32192486616
3	650	1663.501409288286	416.80306090523
3	655	1666.984750789281	417.90951073367
3	658	1668.273537884683	410.51225047928
3	663	1681.427656956869	419.19897482852
3	666	1689.666331703085	412.52700814064
3	669	1695.461719064962	414.00513273267
3	670	1701.050542556026	415.18192409193
3	671	1710.896289226788	422.9003791555
3	676	1731.042313016025	440.93729857396
3	687	1747.09593500378	450.0318199783
3	696	1763.301178346801	454.05017501461
3	699	1773.138579171723	450.16819769734
3	700	1783.257170950234	456.20287805406
3	703	1787.962314689555	450.53594120827
3	704	1790.193151675576	450.6224988499
3	713	1803.356574835922	449.78269366308
3	714	1805.701962428094	451.18537733551
3	717	1809.463404331075	387.61808479387
3	718	1810.308957743781	377.2315018792
3	719	1816.826357350229	382.25579041572
3	722	1819.266815650399	382.56594234047
3	727	1826.858688663537	382.55951757112
3	728	1828.143997739615	379.67503791417
3	729	1831.426787907748	379.84312801702
3	732	1840.562851806268	378.42218103687
3	735	1845.458812033545	358.90769273598
3	736	1846.559178068424	350.3352706269
3	737	1850.582088345502	326.89726414674
3	740	1863.751577192972	327.92149326466
3	743	1865.864068070243	325.79902562339
3	754	1892.548757497493	340.39347734676
3	761	1905.880437032169	336.76682521413
3	762	1907.088013058452	332.49089045522
3	773	1933.608200918309	355.82457850361
3	776	1945.456905727487	362.13102180194
3	777	1949.326240664087	361.32526066298
3	778	1953.054087248603	360.4579348928
3	795	1996.852564250049	383.22637450156
3	796	1999.487400929725	370.49881597985
3	797	2000.62087975496	364.06169157287
3	804	2014.862596944173	374.22150070492
3	805	2018.726791298691	367.80837224573
3	806	2019.482717347171	365.25762351907
3	807	2021.60380113387	358.07790335703
3	808	2022.085852543215	358.30014772813
3	809	2024.07209495559	357.06779080499
3	822	2044.342819884699	369.69782296622
3	827	2058.14889430916	382.74202612055
3	832	2071.946140817897	388.32476561196
3	835	2075.167217587777	383.29645864218
3	836	2075.477112478296	355.1554785342
3	837	2082.137882182847	353.89583506124
3	838	2086.39562341347	353.09114578829
3	839	2092.88939648035	358.81215595154
3	842	2101.021876377365	364.89868584421
3	843	2108.379710934407	371.46994750316
3	850	2121.339699784417	376.29557307476
3	853	2140.738604530324	392.17437544919
3	858	2151.114125495893	401.84446444986
3	859	2151.267626176831	401.8296435824
3	877	2190.714963304525	437.37055179455
3	878	2193.565373960689	425.14938073912
3	883	2208.904075240314	424.69506497558
3	884	2212.622155975264	413.21623257332
3	892	2219.057204148936	418.87852677169
3	905	2255.080039231463	454.12170306547
3	918	2283.582348013558	480.61877510443
3	921	2292.905077387364	484.23022009363
3	942	2319.539599053267	501.04473219776
3	943	2320.39239752722	497.32204571707
3	948	2326.435816105071	502.51980011299
3	962	2360.608173579648	526.36524994683
3	965	2372.14049129218	527.69451400099
3	966	2372.424280268039	515.25432902933
3	967	2378.575931395596	513.31284079821
3	968	2378.843901460314	507.95161883894
3	971	2399.209849745691	514.53563831991
3	980	2426.397259911095	531.82249144681
3	981	2429.061468880408	531.12652557363
3	984	2433.588246970822	534.56683759239
3	985	2434.72300763079	526.45130162371
3	992	2443.554657097163	531.65922774213
3	993	2452.517921320286	537.79353250623
3	996	2456.248091473898	536.75710025111
3	1001	2463.606952063163	540.36518964476
3	1004	2490.702518388676	553.77813580036
3	1005	2498.941238203744	542.67136697584
4	135	361.021825549164	1
4	139	377.990665820572	1
4	141	378.253915431294	2
4	154	422.009642860919	1
4	158	440.507768153143	2
4	182	523.73951392862	1
4	186	530.555131859566	1
4	192	545.373125084985	1
4	213	589.35608943426	1
4	215	610.291214639623	2
4	217	615.800908427453	3
4	242	652.662135001111	1
4	246	662.997675276741	2
4	252	681.988222083014	1
4	267	722.609711117216	1
4	273	742.368989217759	1
4	276	751.111928766331	1
4	298	799.632860009152	1
4	309	814.853493710681	1
4	323	860.107364097815	1
4	325	863.381446274853	2
4	330	873.232163967375	1
4	332	875.141813991404	2
4	340	896.29040962463	1
4	346	900.777193276199	2
4	363	924.490335754125	1
4	367	944.436092298924	1
4	369	951.47929612701	2
4	401	1011.77198842037	1
4	404	1012.512646375906	1
4	420	1038.37111930574	1
4	459	1124.687148995609	1
4	463	1134.14472775205	2
4	465	1136.014676504768	3
4	470	1150.696087075246	3
4	473	1163.995141988292	3
4	475	1164.834707420463	4
4	478	1175.182035494463	4
4	489	1230.359838712003	1
4	502	1257.761287405401	1
4	509	1277.139323562446	1
4	513	1284.576761460268	2
4	521	1290.546818596825	3
4	523	1290.626256761703	4
4	525	1295.97049487972	5
4	529	1303.980580883593	6
4	533	1309.463716143574	7
4	546	1347.514072646773	5
4	555	1388.786029090884	3
4	558	1400.099639158162	3
4	578	1448.468959825449	1
4	605	1540.065042446857	1
4	618	1583.325883925548	1
4	620	1586.275170027452	2
4	628	1613.626189748491	1
4	630	1614.26675634966	2
4	634	1628.988584949879	1
4	636	1633.042512394715	2
4	646	1654.225093828105	1
4	652	1663.525897776844	1
4	680	1734.077240528806	1
4	693	1749.437982594428	1
4	706	1799.40592340194	1
4	721	1818.494866855502	1
4	734	1844.445977291195	1
4	739	1857.169951238713	1
4	742	1865.263090597383	1
4	745	1870.89228262137	1
4	747	1874.166523009959	2
4	749	1875.969531453931	3
4	756	1894.574768464284	1
4	780	1956.269871227903	1
4	782	1958.634551972986	2
4	793	1983.36840924784	2
4	801	2008.698798874346	1
4	817	2040.337147864579	1
4	829	2060.761979702989	1
4	834	2072.43993907191	1
4	852	2125.454313612626	1
4	863	2161.780818154514	1
4	867	2164.572453140033	2
4	869	2165.34997202045	3
4	875	2184.469118021856	2
4	882	2206.677665640295	1
4	888	2213.274337973245	1
4	890	2217.002569442759	2
4	894	2221.137838314775	1
4	909	2272.148163070228	1
4	911	2275.806883192869	2
4	916	2280.659867074338	2
4	920	2285.193654503639	1
4	923	2296.706842502531	1
4	927	2299.904511665169	2
4	931	2307.946249155461	3
4	950	2328.895385620355	1
4	952	2339.416810040685	2
4	954	2339.425908011321	3
4	956	2342.523346328393	4
4	964	2367.255355255618	1
4	987	2436.401942894968	1
4	995	2455.75371522284	1
5	135	361.021825549164	0
5	136	364.070127969314	0
5	139	377.990665820572	0
5	141	378.253915431294	1
5	144	383.165352559259	1
5	147	388.093077195877	0
5	154	422.009642860919	0
5	158	440.507768153143	1
5	165	463.311350862058	1
5	166	465.346423155286	0
5	182	523.73951392862	0
5	183	524.638775696468	0
5	186	530.555131859566	0
5	187	533.451159284211	0
5	192	545.373125084985	0
5	193	546.610223353487	0
5	213	589.35608943426	0
5	215	610.291214639623	1
5	217	615.800908427453	2
5	220	621.144985928502	2
5	227	628.516554577863	1
5	228	634.643017904694	0
5	242	652.662135001111	0
5	246	662.997675276741	1
5	247	667.622435036513	1
5	248	675.237615145736	0
5	252	681.988222083014	0
5	255	686.620658639055	0
5	267	722.609711117216	0
5	268	724.235665025248	0
5	273	742.368989217759	0
5	274	746.138769219481	0
5	276	751.111928766331	0
5	277	755.213909484434	0
5	298	799.632860009152	0
5	299	800.053816925624	0
5	309	814.853493710681	0
5	310	835.007884225189	0
5	323	860.107364097815	0
5	325	863.381446274853	1
5	326	864.034226473333	1
5	327	870.110870093453	0
5	330	873.232163967375	0
5	332	875.141813991404	1
5	335	880.67476727425	1
5	338	894.207907304644	0
5	340	896.29040962463	0
5	346	900.777193276199	1
5	347	903.936289725242	1
5	356	912.701129046605	0
5	363	924.490335754125	0
5	364	936.484742640881	0
5	367	944.436092298924	0
5	369	951.47929612701	1
5	372	954.254300944372	1
5	377	962.145290739961	0
5	401	1011.77198842037	0
5	402	1012.200372809702	0
5	404	1012.512646375906	0
5	407	1021.193016462047	0
5	420	1038.37111930574	0
5	423	1048.972202077691	0
5	459	1124.687148995609	0
5	463	1134.14472775205	1
5	465	1136.014676504768	2
5	466	1139.410248527606	2
5	470	1150.696087075246	2
5	471	1154.383434810329	2
5	473	1163.995141988292	2
5	475	1164.834707420463	3
5	476	1173.347397037249	3
5	478	1175.182035494463	3
5	479	1178.151549782906	3
5	482	1193.675979652052	2
5	483	1195.769040577378	1
5	484	1198.683697529651	0
5	489	1230.359838712003	0
5	490	1231.828571312372	0
5	502	1257.761287405401	0
5	505	1265.971435024487	0
5	509	1277.139323562446	0
5	513	1284.576761460268	1
5	521	1290.546818596825	2
5	523	1290.626256761703	3
5	525	1295.97049487972	4
5	529	1303.980580883593	5
5	533	1309.463716143574	6
5	534	1313.049618316419	6
5	535	1314.437080497223	5
5	544	1343.024685852393	4
5	546	1347.514072646773	4
5	547	1351.156757332703	4
5	552	1366.27225037258	3
5	553	1366.686901730725	2
5	555	1388.786029090884	2
5	556	1393.285438499194	2
5	558	1400.099639158162	2
5	559	1409.258122476126	2
5	560	1411.846538252813	1
5	561	1415.049671165314	0
5	578	1448.468959825449	0
5	583	1463.590331415537	0
5	605	1540.065042446857	0
5	608	1567.953292562598	0
5	618	1583.325883925548	0
5	620	1586.275170027452	1
5	623	1589.650622070514	1
5	626	1606.260817498423	0
5	628	1613.626189748491	0
5	630	1614.26675634966	1
5	631	1624.024578257952	1
5	632	1624.434667067622	0
5	634	1628.988584949879	0
5	636	1633.042512394715	1
5	641	1640.997524468435	1
5	642	1645.764812133554	0
5	646	1654.225093828105	0
5	647	1656.670329279521	0
5	652	1663.525897776844	0
5	655	1666.984750789281	0
5	680	1734.077240528806	0
5	687	1747.09593500378	0
5	693	1749.437982594428	0
5	696	1763.301178346801	0
5	706	1799.40592340194	0
5	713	1803.356574835922	0
5	721	1818.494866855502	0
5	722	1819.266815650399	0
5	734	1844.445977291195	0
5	735	1845.458812033545	0
5	739	1857.169951238713	0
5	740	1863.751577192972	0
5	742	1865.263090597383	0
5	743	1865.864068070243	0
5	745	1870.89228262137	0
5	747	1874.166523009959	1
5	749	1875.969531453931	2
5	750	1876.000817555226	2
5	751	1880.571092862802	1
5	754	1892.548757497493	0
5	756	1894.574768464284	0
5	761	1905.880437032169	0
5	780	1956.269871227903	0
5	782	1958.634551972986	1
5	787	1966.33246414596	1
5	793	1983.36840924784	1
5	794	1992.960243949464	1
5	795	1996.852564250049	0
5	801	2008.698798874346	0
5	804	2014.862596944173	0
5	817	2040.337147864579	0
5	822	2044.342819884699	0
5	829	2060.761979702989	0
5	832	2071.946140817897	0
5	834	2072.43993907191	0
5	835	2075.167217587777	0
5	852	2125.454313612626	0
5	853	2140.738604530324	0
5	863	2161.780818154514	0
5	867	2164.572453140033	1
5	869	2165.34997202045	2
5	870	2169.064718674508	2
5	871	2175.200908934106	1
5	875	2184.469118021856	1
5	876	2184.658756432012	1
5	877	2190.714963304525	0
5	882	2206.677665640295	0
5	883	2208.904075240314	0
5	888	2213.274337973245	0
5	890	2217.002569442759	1
5	891	2217.816814803664	1
5	892	2219.057204148936	0
5	894	2221.137838314775	0
5	905	2255.080039231463	0
5	909	2272.148163070228	0
5	911	2275.806883192869	1
5	914	2279.102581951815	1
5	916	2280.659867074338	1
5	917	2282.498050611614	1
5	918	2283.582348013558	0
5	920	2285.193654503639	0
5	921	2292.905077387364	0
5	923	2296.706842502531	0
5	927	2299.904511665169	1
5	931	2307.946249155461	2
5	938	2314.9702746644	2
5	941	2318.600733462559	1
5	942	2319.539599053267	0
5	950	2328.895385620355	0
5	952	2339.416810040685	1
5	954	2339.425908011321	2
5	956	2342.523346328393	3
5	957	2344.07989925331	3
5	960	2346.696527671898	2
5	961	2347.079807113575	1
5	962	2360.608173579648	0
5	964	2367.255355255618	0
5	965	2372.14049129218	0
5	987	2436.401942894968	0
5	992	2443.554657097163	0
5	995	2455.75371522284	0
5	996	2456.248091473898	0
6	135	361.021825549164	6
6	139	377.990665820572	7
6	154	422.009642860919	8
6	182	523.73951392862	9
6	186	530.555131859566	10
6	192	545.373125084985	11
6	213	589.35608943426	12
6	242	652.662135001111	13
6	252	681.988222083014	14
6	267	722.609711117216	15
6	273	742.368989217759	16
6	276	751.111928766331	17
6	298	799.632860009152	18
6	309	814.853493710681	19
6	323	860.107364097815	20
6	330	873.232163967375	21
6	340	896.29040962463	22
6	363	924.490335754125	23
6	367	944.436092298924	24
6	401	1011.77198842037	25
6	404	1012.512646375906	26
6	420	1038.37111930574	27
6	459	1124.687148995609	28
6	489	1230.359838712003	29
6	502	1257.761287405401	30
6	509	1277.139323562446	31
6	578	1448.468959825449	32
6	605	1540.065042446857	33
6	618	1583.325883925548	34
6	628	1613.626189748491	35
6	634	1628.988584949879	36
6	646	1654.225093828105	37
6	652	1663.525897776844	38
6	680	1734.077240528806	39
6	693	1749.437982594428	40
6	706	1799.40592340194	41
6	721	1818.494866855502	42
6	734	1844.445977291195	43
6	739	1857.169951238713	44
6	742	1865.263090597383	45
6	745	1870.89228262137	46
6	756	1894.574768464284	47
6	780	1956.269871227903	48
6	801	2008.698798874346	49
6	817	2040.337147864579	50
6	829	2060.761979702989	51
6	834	2072.43993907191	52
6	852	2125.454313612626	53
6	863	2161.780818154514	54
6	882	2206.677665640295	55
6	888	2213.274337973245	56
6	894	2221.137838314775	57
6	909	2272.148163070228	58
6	920	2285.193654503639	59
6	923	2296.706842502531	60
6	950	2328.895385620355	61
6	964	2367.255355255618	62
6	987	2436.401942894968	63
6	995	2455.75371522284	64
7	135	361.021825549164	0
7	139	377.990665820572	0
7	144	383.165352559259	4.911437127965
7	154	422.009642860919	0
7	165	463.311350862058	22.803582708915
7	182	523.73951392862	0
7	186	530.555131859566	0
7	192	545.373125084985	0
7	213	589.35608943426	0
7	220	621.144985928502	10.853771288879
7	227	628.516554577863	12.71564615041
7	242	652.662135001111	0
7	247	667.622435036513	4.624759759772
7	252	681.988222083014	0
7	267	722.609711117216	0
7	273	742.368989217759	0
7	276	751.111928766331	0
7	298	799.632860009152	0
7	309	814.853493710681	0
7	323	860.107364097815	0
7	326	864.034226473333	0.65278019848
7	330	873.232163967375	0
7	335	880.67476727425	5.532953282846
7	340	896.29040962463	0
7	347	903.936289725242	3.159096449043
7	363	924.490335754125	0
7	367	944.436092298924	0
7	372	954.254300944372	2.775004817362
7	401	1011.77198842037	0
7	404	1012.512646375906	0
7	420	1038.37111930574	0
7	459	1124.687148995609	0
7	466	1139.410248527606	5.265520775556
7	471	1154.383434810329	18.368758305561
7	476	1173.347397037249	22.651309962003
7	479	1178.151549782906	14.156407794614
7	482	1193.675979652052	28.841272231589
7	483	1195.769040577378	20.587005082915
7	489	1230.359838712003	0
7	502	1257.761287405401	0
7	509	1277.139323562446	0
7	534	1313.049618316419	28.472856856151
7	535	1314.437080497223	23.890261900398
7	544	1343.024685852393	52.39842909069
7	547	1351.156757332703	55.186262452983
7	552	1366.27225037258	62.291669488987
7	553	1366.686901730725	57.223185587151
7	556	1393.285438499194	45.771365852421
7	559	1409.258122476126	20.472093385242
7	560	1411.846538252813	11.746899094651
7	578	1448.468959825449	0
7	605	1540.065042446857	0
7	618	1583.325883925548	0
7	623	1589.650622070514	3.375452043062
7	628	1613.626189748491	0
7	631	1624.024578257952	9.757821908292
7	634	1628.988584949879	0
7	641	1640.997524468435	7.95501207372
7	646	1654.225093828105	0
7	652	1663.525897776844	0
7	680	1734.077240528806	0
7	693	1749.437982594428	0
7	706	1799.40592340194	0
7	721	1818.494866855502	0
7	734	1844.445977291195	0
7	739	1857.169951238713	0
7	742	1865.263090597383	0
7	745	1870.89228262137	0
7	750	1876.000817555226	1.834294545267
7	751	1880.571092862802	4.601561408871
7	756	1894.574768464284	0
7	780	1956.269871227903	0
7	787	1966.33246414596	7.697912172974
7	794	1992.960243949464	9.591834701624
7	801	2008.698798874346	0
7	817	2040.337147864579	0
7	829	2060.761979702989	0
7	834	2072.43993907191	0
7	852	2125.454313612626	0
7	863	2161.780818154514	0
7	870	2169.064718674508	4.492265534475
7	871	2175.200908934106	9.850936913656
7	876	2184.658756432012	0.189638410156
7	882	2206.677665640295	0
7	888	2213.274337973245	0
7	891	2217.816814803664	0.814245360905
7	894	2221.137838314775	0
7	909	2272.148163070228	0
7	914	2279.102581951815	3.295698758946
7	917	2282.498050611614	1.838183537276
7	920	2285.193654503639	0
7	923	2296.706842502531	0
7	938	2314.9702746644	15.065762999231
7	941	2318.600733462559	10.654484307098
7	950	2328.895385620355	0
7	957	2344.07989925331	4.663089212625
7	960	2346.696527671898	7.270619660577
7	961	2347.079807113575	4.556460785182
7	964	2367.255355255618	0
7	987	2436.401942894968	0
7	995	2455.75371522284	0
8	136	364.070127969314	14
8	144	383.165352559259	15
8	147	388.093077195877	16
8	165	463.311350862058	17
8	166	465.346423155286	18
8	183	524.638775696468	19
8	187	533.451159284211	20
8	193	546.610223353487	21
8	220	621.144985928502	22
8	227	628.516554577863	23
8	228	634.643017904694	24
8	247	667.622435036513	25
8	248	675.237615145736	26
8	255	686.620658639055	27
8	268	724.235665025248	28
8	274	746.138769219481	29
8	277	755.213909484434	30
8	299	800.053816925624	31
8	310	835.007884225189	32
8	326	864.034226473333	33
8	327	870.110870093453	34
8	335	880.67476727425	35
8	338	894.207907304644	36
8	347	903.936289725242	37
8	356	912.701129046605	38
8	364	936.484742640881	39
8	372	954.254300944372	40
8	377	962.145290739961	41
8	402	1012.200372809702	42
8	407	1021.193016462047	43
8	423	1048.972202077691	44
8	466	1139.410248527606	45
8	471	1154.383434810329	46
8	476	1173.347397037249	47
8	479	1178.151549782906	48
8	482	1193.675979652052	49
8	483	1195.769040577378	50
8	484	1198.683697529651	51
8	490	1231.828571312372	52
8	505	1265.971435024487	53
8	534	1313.049618316419	54
8	535	1314.437080497223	55
8	544	1343.024685852393	56
8	547	1351.156757332703	57
8	552	1366.27225037258	58
8	553	1366.686901730725	59
8	556	1393.285438499194	60
8	559	1409.258122476126	61
8	560	1411.846538252813	62
8	561	1415.049671165314	63
8	583	1463.590331415537	64
8	608	1567.953292562598	65
8	623	1589.650622070514	66
8	626	1606.260817498423	67
8	631	1624.024578257952	68
8	632	1624.434667067622	69
8	641	1640.997524468435	70
8	642	1645.764812133554	71
8	647	1656.670329279521	72
8	655	1666.984750789281	73
8	687	1747.09593500378	74
8	696	1763.301178346801	75
8	713	1803.356574835922	76
8	722	1819.266815650399	77
8	735	1845.458812033545	78
8	740	1863.751577192972	79
8	743	1865.864068070243	80
8	750	1876.000817555226	81
8	751	1880.571092862802	82
8	754	1892.548757497493	83
8	761	1905.880437032169	84
8	787	1966.33246414596	85
8	794	1992.960243949464	86
8	795	1996.852564250049	87
8	804	2014.862596944173	88
8	822	2044.342819884699	89
8	832	2071.946140817897	90
8	835	2075.167217587777	91
8	853	2140.738604530324	92
8	870	2169.064718674508	93
8	871	2175.200908934106	94
8	876	2184.658756432012	95
8	877	2190.714963304525	96
8	883	2208.904075240314	97
8	891	2217.816814803664	98
8	892	2219.057204148936	99
8	905	2255.080039231463	100
8	914	2279.102581951815	101
8	917	2282.498050611614	102
8	918	2283.582348013558	103
8	921	2292.905077387364	104
8	938	2314.9702746644	105
8	941	2318.600733462559	106
8	942	2319.539599053267	107
8	957	2344.07989925331	108
8	960	2346.696527671898	109
8	961	2347.079807113575	110
8	962	2360.608173579648	111
8	965	2372.14049129218	112
8	992	2443.554657097163	113
8	996	2456.248091473898	114
9	136	364.070127969314	3.04830242015
9	144	383.165352559259	5.174686738687
9	147	388.093077195877	9.839161764583
9	165	463.311350862058	41.301708001139
9	166	465.346423155286	24.838655002143
9	183	524.638775696468	0.899261767848
9	187	533.451159284211	2.896027424645
9	193	546.610223353487	1.237098268502
9	220	621.144985928502	31.788896494242
9	227	628.516554577863	18.22533993824
9	228	634.643017904694	18.842109477241
9	247	667.622435036513	14.960300035402
9	248	675.237615145736	12.239939868995
9	255	686.620658639055	4.632436556041
9	268	724.235665025248	1.625953908032
9	274	746.138769219481	3.769780001722
9	277	755.213909484434	4.101980718103
9	299	800.053816925624	0.420956916472
9	310	835.007884225189	20.154390514508
9	326	864.034226473333	3.926862375518
9	327	870.110870093453	6.7294238186
9	335	880.67476727425	7.442603306875
9	338	894.207907304644	19.06609331324
9	347	903.936289725242	7.645880100612
9	356	912.701129046605	11.923935770406
9	364	936.484742640881	11.994406886756
9	372	954.254300944372	9.818208645448
9	377	962.145290739961	10.665994612951
9	402	1012.200372809702	0.428384389332
9	407	1021.193016462047	8.680370086141
9	423	1048.972202077691	10.601082771951
9	466	1139.410248527606	14.723099531997
9	471	1154.383434810329	20.238707058279
9	476	1173.347397037249	37.332720532481
9	479	1178.151549782906	27.45546270766
9	482	1193.675979652052	29.68083766376
9	483	1195.769040577378	30.934333156915
9	484	1198.683697529651	23.501662035188
9	490	1231.828571312372	1.468732600369
9	505	1265.971435024487	8.210147619086
9	534	1313.049618316419	35.910294753973
9	535	1314.437080497223	29.860319036955
9	544	1343.024685852393	52.477867255568
9	547	1351.156757332703	60.530500571
9	552	1366.27225037258	70.30175549286
9	553	1366.686901730725	62.706320847132
9	556	1393.285438499194	83.82172235562
9	559	1409.258122476126	61.744049829353
9	560	1411.846538252813	23.060509161929
9	561	1415.049671165314	14.950032007152
9	583	1463.590331415537	15.121371590088
9	608	1567.953292562598	27.888250115741
9	623	1589.650622070514	6.324738144966
9	626	1606.260817498423	19.985647470971
9	631	1624.024578257952	10.398388509461
9	632	1624.434667067622	10.167910717962
9	641	1640.997524468435	12.008939518556
9	642	1645.764812133554	12.722299738839
9	647	1656.670329279521	2.445235451416
9	655	1666.984750789281	3.458853012437
9	687	1747.09593500378	13.018694474974
9	696	1763.301178346801	13.863195752373
9	713	1803.356574835922	3.950651433982
9	722	1819.266815650399	0.771948794897
9	735	1845.458812033545	1.01283474235
9	740	1863.751577192972	6.581625954259
9	743	1865.864068070243	0.60097747286
9	750	1876.000817555226	5.108534933856
9	751	1880.571092862802	6.404569852843
9	754	1892.548757497493	16.579226043562
9	761	1905.880437032169	11.305668567885
9	787	1966.33246414596	10.062592918057
9	794	1992.960243949464	34.325691976478
9	795	1996.852564250049	13.484155002209
9	804	2014.862596944173	6.163798069827
9	822	2044.342819884699	4.00567202012
9	832	2071.946140817897	11.184161114908
9	835	2075.167217587777	2.727278515867
9	853	2140.738604530324	15.284290917698
9	870	2169.064718674508	7.283900519994
9	871	2175.200908934106	10.628455794073
9	876	2184.658756432012	19.308784411562
9	877	2190.714963304525	6.245845282669
9	883	2208.904075240314	2.226409600019
9	891	2217.816814803664	4.542476830419
9	892	2219.057204148936	2.054634706177
9	905	2255.080039231463	33.942200916688
9	914	2279.102581951815	6.954418881587
9	917	2282.498050611614	6.691167418745
9	918	2283.582348013558	2.92248093922
9	921	2292.905077387364	7.711422883725
9	938	2314.9702746644	18.263432161869
9	941	2318.600733462559	18.69622179739
9	942	2319.539599053267	11.593349897806
9	957	2344.07989925331	15.184513632955
9	960	2346.696527671898	7.279717631213
9	961	2347.079807113575	7.653899102254
9	962	2360.608173579648	18.084827251255
9	965	2372.14049129218	4.885136036562
9	992	2443.554657097163	7.152714202195
9	996	2456.248091473898	0.494376251058
10	143	379.608095313354	14
10	146	385.157042033546	15
10	149	399.228233649482	16
10	156	426.29441775287	14
10	160	443.660282730514	15
10	162	448.882770349587	16
10	164	458.137377426833	17
10	168	465.826518938555	18
10	173	494.833255579592	16
10	176	499.822669747212	16
10	190	545.209727119979	11
10	197	556.326563719439	10
10	204	572.24175660314	6
10	207	575.863779244195	6
10	209	577.881832968284	7
10	219	618.606462312563	6
10	222	621.290089637664	7
10	224	624.589581645086	8
10	226	627.159808616859	9
10	230	636.156734196456	10
10	232	638.695588633048	11
10	234	639.503912377234	12
10	236	641.651605112762	13
10	240	648.446565023337	12
10	244	656.54974981075	13
10	250	679.39638457525	14
10	254	682.973119520857	15
10	257	694.937514966378	16
10	261	709.632194269071	15
10	263	711.758812941697	16
10	265	714.745063282436	17
10	282	780.526003935068	12
10	284	782.044152913347	13
10	286	785.118702325468	14
10	288	786.82893246052	15
10	290	792.211735403243	16
10	292	794.650893746256	17
10	294	796.164645718989	18
10	296	797.919207288304	19
10	301	800.659176556938	20
10	303	802.145561068497	21
10	306	811.00518497882	21
10	312	837.601350145641	21
10	314	842.808892412795	22
10	317	850.859225738186	22
10	319	852.072682488855	23
10	321	856.159958446072	24
10	334	877.773073587536	24
10	337	893.64717916577	25
10	342	896.443773630609	26
10	344	899.605850019362	27
10	349	906.490154822813	28
10	351	908.845874933179	29
10	353	909.068777480588	30
10	355	910.906698195825	31
10	358	913.501120803603	32
10	361	923.456570972861	32
10	371	953.896826670245	32
10	374	955.784633106749	33
10	376	959.402928374506	34
10	379	967.655498130466	35
10	382	977.727526974586	35
10	389	986.483345419537	31
10	393	992.65484243738	30
10	395	1000.462186581842	31
10	398	1006.176726943197	31
10	406	1017.427407056631	31
10	409	1023.333185885289	32
10	415	1035.575057615901	29
10	418	1036.397542892707	29
10	422	1042.071307097477	30
10	426	1053.311955600887	30
10	430	1068.628170045546	29
10	432	1068.7372523909	30
10	435	1076.558449330755	30
10	438	1085.269920578633	30
10	440	1090.503816550838	31
10	445	1108.756096424927	29
10	447	1109.014040151767	30
10	449	1111.825117276107	31
10	453	1117.188075728243	30
10	455	1118.573341036805	31
10	461	1130.12602680693	30
10	468	1145.944497366466	31
10	481	1191.074306916834	32
10	487	1224.317871195993	32
10	492	1239.415299962359	33
10	495	1241.319226478284	33
10	497	1246.698348383056	34
10	499	1249.075240055608	35
10	504	1262.228682128353	35
10	511	1281.456586332296	34
10	515	1285.868618464094	35
10	517	1287.995910071284	36
10	519	1290.105014442061	37
10	527	1297.064115025479	38
10	531	1309.251003332188	39
10	537	1322.970381474386	40
10	539	1327.054292896169	41
10	541	1337.426373481282	42
10	543	1339.570652825673	43
10	549	1353.57388117284	44
10	551	1354.516585092584	45
10	563	1421.845319537203	46
10	568	1433.077455864582	44
10	570	1434.570566934513	45
10	573	1436.700873309931	45
10	576	1444.299171092421	45
10	580	1451.583659890725	46
10	582	1462.140670769399	47
10	589	1486.551119297569	44
10	592	1496.223907441521	44
10	597	1523.68482419876	42
10	602	1535.830083928314	40
10	607	1552.15528015073	40
10	610	1569.113611818043	41
10	612	1574.59712260323	42
10	615	1577.783622414697	42
10	622	1588.000980001104	42
10	625	1592.596152355802	43
10	638	1636.55918818209	44
10	640	1640.641096239258	45
10	644	1650.918419052956	46
10	654	1663.785704815084	44
10	657	1667.004304150596	45
10	660	1674.644996918479	45
10	662	1675.406868188611	46
10	665	1683.621375205935	46
10	668	1691.870758945599	46
10	673	1720.321633944097	44
10	675	1728.242047121611	45
10	678	1733.304477625183	45
10	682	1736.123190533158	46
10	684	1736.909763431248	47
10	686	1745.044126709653	48
10	689	1748.564229081137	49
10	691	1749.269661046032	50
10	695	1753.344411509976	51
10	698	1768.415993221564	52
10	702	1784.209010264732	51
10	708	1800.178677377241	50
10	710	1800.95833616599	51
10	712	1802.963572909128	52
10	716	1808.674857293738	52
10	724	1823.070351810148	50
10	726	1823.916015992079	51
10	731	1834.242923632817	49
10	753	1884.674211425783	47
10	758	1897.934943306775	48
10	760	1899.021409378431	49
10	764	1908.271706007079	49
10	766	1911.895429355032	50
10	768	1914.724388814061	51
10	770	1919.490991222787	52
10	772	1923.241762418407	53
10	775	1936.92438258832	53
10	784	1961.501522926047	51
10	786	1965.216661545734	52
10	789	1976.143259682891	53
10	791	1977.106085114153	54
10	799	2002.049166686635	53
10	803	2014.824804974099	54
10	811	2026.435831902888	50
10	813	2026.746619278247	51
10	815	2034.2767880203	52
10	819	2040.832134308452	53
10	821	2041.731501973777	54
10	824	2044.394175563752	55
10	826	2057.540071414153	56
10	831	2064.678649429053	56
10	841	2100.643440090761	53
10	845	2109.735389103771	52
10	847	2114.55518655679	53
10	849	2119.70008837266	54
10	855	2141.252353958549	54
10	857	2145.214967111336	55
10	861	2156.225819555676	54
10	865	2162.801836191714	55
10	873	2176.399567796595	56
10	880	2206.400218154673	56
10	886	2212.910426022293	56
10	896	2223.822523938987	57
10	898	2229.518382743654	58
10	900	2237.356526885323	59
10	902	2242.16939733723	60
10	904	2249.811830180648	61
10	907	2260.677147560681	62
10	913	2276.381357349022	63
10	925	2299.593657816942	64
10	929	2305.917559909468	65
10	933	2308.049972561187	66
10	935	2311.300208667409	67
10	937	2311.517313327987	68
10	940	2317.103988873237	69
10	945	2321.252529477898	69
10	947	2324.894460081239	70
10	959	2345.158710441866	70
10	970	2393.48451685585	68
10	973	2409.027012630994	68
10	975	2414.534346640401	69
10	977	2418.902692042539	70
10	979	2419.493416931437	71
10	983	2432.165685310105	70
10	989	2437.386547876681	69
10	991	2439.315187646736	70
10	998	2461.210077954654	70
10	1000	2463.600744450632	71
10	1003	2464.886615128397	71
11	1006	2500	0.07
12	1006	2500	0.0456

