file 62475 1678560194                                           
version 2
run experiments_hard_game_mode1-1090-20230311-19:43:14-10360
attr configname experiments_hard_game_mode1
attr datetime 20230311-19:43:14
attr experiment experiments_hard_game_mode1
attr inifile omnetpp.ini
attr iterationvars "$0=9, $1=6, $2=0"
attr iterationvarsf 9,6,0-
attr measurement "$0=9, $1=6, $2=0"
attr network Network
attr processid 10360
attr repetition 10
attr replication #10
attr resultdir results
attr runnumber 1090
attr seedset 10
param *.boss.arrival_mean 20
param *.boss.service_mean 9
param *.minion.arrival_mean 10
param *.minion.service_mean 6
param *.player.recover_rate_x 0
param **.minion.arrival_distribution 0
param **.minion.service_distribution 0
param **.boss.arrival_distribution 0
param **.boss.service_distribution 0

vector 0 Network.player boss_defeated_stat:vector ETV
attr source signal_boss_defeated
vector 1 Network.player boss_jobs_queue_number_stat:vector ETV
attr source signal_boss_jobs_queue_number
vector 2 Network.player boss_response_time_stat:vector ETV
attr source signal_boss_response_time
vector 3 Network.player boss_waiting_time_stat:vector ETV
attr source signal_boss_waiting_time
vector 4 Network.player minion_waiting_time_stat:vector ETV
attr source signal_minion_waiting_time
vector 5 Network.player minion_defeated_stat:vector ETV
attr source signal_minion_defeated
vector 6 Network.player minion_jobs_queue_number_stat:vector ETV
attr source signal_minion_jobs_queue_number
vector 7 Network.player minion_response_time_stat:vector ETV
attr source signal_minion_response_time
vector 8 Network.player minion_jobs_number_stat:vector ETV
attr source signal_minion_jobs_number
vector 9 Network.player boss_jobs_number_stat:vector ETV
attr source signal_boss_jobs_number
vector 10 Network.player minion_recovered_stat:vector ETV
attr source signal_minion_recovered
vector 11 Network.player minion_throughput:vector ETV
attr source signal_minion_throughput
vector 12 Network.player boss_throughput:vector ETV
attr source signal_boss_throughput
0	2007 2909 171 1115 350.772319122648 2449.966543958889 108 20 127 7938 688410
1	4916 5468 171 1115 350.772319122648 2449.966543958889 213 0 7 233 775
2	10384 4223 171 1115 350.772319122648 2449.966543958889 108 0.003255246009 88.008578593722 2198.9257300967 90741.938786601
3	14607 3480 171 1114 350.772319122648 2446.879911890008 107 0 73.740762733651 1157.8830721848 48894.81069198
4	18087 9697 173 1138 356.729159443342 2487.197342302195 248 0 446.30913816315 48921.612398183 13939718.312554
5	27784 5404 174 1138 357.583657461463 2487.197342302195 196 36 231 26166 4120606
6	33188 11292 174 1140 357.583657461463 2487.898238471302 424 0 51 10462 366274
7	44480 7783 174 1138 357.583657461463 2487.197342302195 196 1.585532392362 451.04561475328 39369.004707386 11325036.009287
8	52263 6057 176 1140 367.376450425266 2487.898238471302 228 1 52 5723 200075
9	58320 2695 199 1114 419.824288542282 2446.879911890008 105 1 8 220 720
10	61015 1419 199 1114 419.824288542282 2446.879911890008 51 8 58 1683 66589
11	62434 20 1141 1141 2500 2500 1 0.0924 0.0924 0.0924 0.00853776
12	62454 20 1141 1141 2500 2500 1 0.0508 0.0508 0.0508 0.00258064

