file 57593 1678560323                                           
version 2
run experiments_hard_game_mode1-1614-20230311-19:45:23-13145
attr configname experiments_hard_game_mode1
attr datetime 20230311-19:45:23
attr experiment experiments_hard_game_mode1
attr inifile omnetpp.ini
attr iterationvars "$0=10, $1=4, $2=100"
attr iterationvarsf 10,4,100-
attr measurement "$0=10, $1=4, $2=100"
attr network Network
attr processid 13145
attr repetition 24
attr replication #24
attr resultdir results
attr runnumber 1614
attr seedset 24
param *.boss.arrival_mean 20
param *.boss.service_mean 10
param *.minion.arrival_mean 10
param *.minion.service_mean 4
param *.player.recover_rate_x 100
param **.minion.arrival_distribution 0
param **.minion.service_distribution 0
param **.boss.arrival_distribution 0
param **.boss.service_distribution 0

vector 0 Network.player minion_defeated_stat:vector ETV
attr source signal_minion_defeated
vector 1 Network.player minion_jobs_queue_number_stat:vector ETV
attr source signal_minion_jobs_queue_number
vector 2 Network.player minion_response_time_stat:vector ETV
attr source signal_minion_response_time
vector 3 Network.player minion_waiting_time_stat:vector ETV
attr source signal_minion_waiting_time
vector 4 Network.player minion_jobs_number_stat:vector ETV
attr source signal_minion_jobs_number
vector 5 Network.player boss_jobs_number_stat:vector ETV
attr source signal_boss_jobs_number
vector 6 Network.player boss_jobs_queue_number_stat:vector ETV
attr source signal_boss_jobs_queue_number
vector 7 Network.player minion_recovered_stat:vector ETV
attr source signal_minion_recovered
vector 8 Network.player boss_waiting_time_stat:vector ETV
attr source signal_boss_waiting_time
vector 9 Network.player boss_defeated_stat:vector ETV
attr source signal_boss_defeated
vector 10 Network.player boss_response_time_stat:vector ETV
attr source signal_boss_response_time
vector 11 Network.player minion_throughput:vector ETV
attr source signal_minion_throughput
vector 12 Network.player boss_throughput:vector ETV
attr source signal_boss_throughput
0	2019 6085 154 1029 352.286143382457 2446.191848233332 224 15 238 28336 4521104
1	8104 10968 154 1043 352.286143382457 2499.167734483319 428 0 23 1390 11674
2	19072 8754 154 1029 352.286143382457 2446.191848233332 224 0.052895916945 200.04603408127 7864.902390176 681556.0297675
3	27826 9014 154 1028 352.286143382457 2443.112190058738 250 0 197.18781375056 7792.3110341176 658848.36472012
4	36840 5235 160 1043 356.789216703952 2499.167734483319 204 1 20 764 5006
5	42075 2236 171 1037 372.134798287112 2491.203118857694 87 1 7 151 433
6	44311 4390 171 1037 372.134798287112 2491.203118857694 171 0 6 125 431
7	48701 711 171 1023 372.134798287112 2428.112985906692 27 4 30 459 9441
8	49412 2537 171 1031 372.134798287112 2455.475700995089 85 0 85.493765526622 783.21468452001 41408.920910617
9	51949 2244 172 1024 375.335386562897 2430.391134651354 84 22 105 5334 388094
10	54193 3360 172 1024 375.335386562897 2430.391134651354 84 0.065745689895 91.77182039597 1516.3792598164 68588.44326205
11	57553 20 1044 1044 2500 2500 1 0.0952 0.0952 0.0952 0.00906304
12	57573 19 1044 1044 2500 2500 1 0.042 0.042 0.042 0.001764

