file 61397 1678560330                                           
version 2
run experiments_hard_game_mode1-1643-20230311-19:45:30-13290
attr configname experiments_hard_game_mode1
attr datetime 20230311-19:45:30
attr experiment experiments_hard_game_mode1
attr inifile omnetpp.ini
attr iterationvars "$0=10, $1=5, $2=0"
attr iterationvarsf 10,5,0-
attr measurement "$0=10, $1=5, $2=0"
attr network Network
attr processid 13290
attr repetition 23
attr replication #23
attr resultdir results
attr runnumber 1643
attr seedset 23
param *.boss.arrival_mean 20
param *.boss.service_mean 10
param *.minion.arrival_mean 10
param *.minion.service_mean 5
param *.player.recover_rate_x 0
param **.minion.arrival_distribution 0
param **.minion.service_distribution 0
param **.boss.arrival_distribution 0
param **.boss.service_distribution 0

vector 0 Network.player minion_jobs_number_stat:vector ETV
attr source signal_minion_jobs_number
vector 1 Network.player minion_jobs_queue_number_stat:vector ETV
attr source signal_minion_jobs_queue_number
vector 2 Network.player boss_jobs_number_stat:vector ETV
attr source signal_boss_jobs_number
vector 3 Network.player boss_jobs_queue_number_stat:vector ETV
attr source signal_boss_jobs_queue_number
vector 4 Network.player boss_defeated_stat:vector ETV
attr source signal_boss_defeated
vector 5 Network.player boss_response_time_stat:vector ETV
attr source signal_boss_response_time
vector 6 Network.player boss_waiting_time_stat:vector ETV
attr source signal_boss_waiting_time
vector 7 Network.player minion_waiting_time_stat:vector ETV
attr source signal_minion_waiting_time
vector 8 Network.player minion_defeated_stat:vector ETV
attr source signal_minion_defeated
vector 9 Network.player minion_response_time_stat:vector ETV
attr source signal_minion_response_time
vector 10 Network.player minion_recovered_stat:vector ETV
attr source signal_minion_recovered
vector 11 Network.player minion_throughput:vector ETV
attr source signal_minion_throughput
vector 12 Network.player boss_throughput:vector ETV
attr source signal_boss_throughput
0	2011 5736 144 1088 351.409402957577 2495.212845808239 216 1 56 6926 260022
1	7747 10997 144 1088 351.409402957577 2495.212845808239 414 0 55 12925 478675
2	18744 2726 146 1086 370.280462470171 2493.276094709187 106 1 9 277 1189
3	21470 5397 146 1086 370.280462470171 2493.276094709187 210 0 8 339 1477
4	26867 2798 149 1084 372.784376732913 2488.708805447441 104 19 122 7332 610636
5	29665 4082 149 1084 372.784376732913 2488.708805447441 104 0.180869357372 104.62163849172 3019.6282514092 158444.16375346
6	33747 3449 149 1084 372.784376732913 2488.708805447441 104 0 74.882923998462 1849.4895288141 96339.882977473
7	37196 9653 152 1032 378.92421643017 2392.160304119186 244 24.58713400511 512.56998439747 62416.206262729 19913607.420039
8	46849 5398 153 1029 385.766595797921 2378.794702864099 198 17 214 22869 3288219
9	52247 7835 153 1029 385.766595797921 2378.794702864099 198 26.917230344944 523.90418265616 51191.133833219 16195886.43304
10	60082 1274 172 1036 431.695952669617 2395.775553395185 46 8 53 1403 50899
11	61356 20 1089 1089 2500 2500 1 0.0856 0.0856 0.0856 0.00732736
12	61376 20 1089 1089 2500 2500 1 0.0488 0.0488 0.0488 0.00238144

