version 2
run experiments_hard_game_mode1-1380-20230311-19:44:23-11952
attr configname experiments_hard_game_mode1
attr datetime 20230311-19:44:23
attr experiment experiments_hard_game_mode1
attr inifile omnetpp.ini
attr iterationvars "$0=9.5, $1=6, $2=0"
attr iterationvarsf 9.5,6,0-
attr measurement "$0=9.5, $1=6, $2=0"
attr network Network
attr processid 11952
attr repetition 0
attr replication #0
attr resultdir results
attr runnumber 1380
attr seedset 0
param *.boss.arrival_mean 20
param *.boss.service_mean 9.5
param *.minion.arrival_mean 10
param *.minion.service_mean 6
param *.player.recover_rate_x 0
param **.minion.arrival_distribution 0
param **.minion.service_distribution 0
param **.boss.arrival_distribution 0
param **.boss.service_distribution 0

vector 0 Network.player boss_defeated_stat:vector ETV
attr source signal_boss_defeated
vector 1 Network.player boss_jobs_queue_number_stat:vector ETV
attr source signal_boss_jobs_queue_number
vector 2 Network.player boss_response_time_stat:vector ETV
attr source signal_boss_response_time
vector 3 Network.player minion_waiting_time_stat:vector ETV
attr source signal_minion_waiting_time
vector 4 Network.player minion_defeated_stat:vector ETV
attr source signal_minion_defeated
vector 5 Network.player minion_jobs_queue_number_stat:vector ETV
attr source signal_minion_jobs_queue_number
vector 6 Network.player minion_response_time_stat:vector ETV
attr source signal_minion_response_time
vector 7 Network.player minion_jobs_number_stat:vector ETV
attr source signal_minion_jobs_number
vector 8 Network.player boss_jobs_number_stat:vector ETV
attr source signal_boss_jobs_number
vector 9 Network.player minion_recovered_stat:vector ETV
attr source signal_minion_recovered
vector 10 Network.player boss_waiting_time_stat:vector ETV
attr source signal_boss_waiting_time
vector 11 Network.player minion_throughput:vector ETV
attr source signal_minion_throughput
vector 12 Network.player boss_throughput:vector ETV
attr source signal_boss_throughput
0	165	351.486688855947	22
0	172	370.85656141421	23
0	181	393.771456829777	24
0	184	403.721562489832	25
0	189	407.039996226941	26
0	193	422.247760228341	27
0	203	440.972918690383	28
0	206	451.687007402663	29
0	210	472.788604405384	30
0	220	505.606344349681	31
0	227	528.836866789161	32
0	233	541.807892650704	33
0	247	571.170663270383	34
0	250	578.945269333673	35
0	261	616.019026390839	36
0	264	621.814937141397	37
0	269	627.749932795236	38
0	270	632.84493889532	39
0	299	702.051673933575	40
0	307	711.648461135106	41
0	318	719.004666137938	42
0	327	730.227556513346	43
0	336	738.619741986181	44
0	341	744.135717890875	45
0	346	747.189715511359	46
0	349	748.8107142107	47
0	350	754.570089646285	48
0	357	762.043613833718	49
0	358	775.509248479518	50
0	363	792.275542217881	51
0	373	810.724352288256	52
0	376	814.199521414979	53
0	377	817.029070631487	54
0	378	819.413329549333	55
0	396	857.377720902472	56
0	399	862.041993206827	57
0	404	874.081778993476	58
0	419	900.253184715392	59
0	420	900.451069210646	60
0	429	935.881423366875	61
0	430	937.344305354141	62
0	433	947.945470372119	63
0	436	951.683685096502	64
0	449	973.831372137126	65
0	454	989.554928886954	66
0	463	1007.312198477496	67
0	470	1012.14907879455	68
0	473	1016.659732117561	69
0	480	1037.039463273722	70
0	483	1042.490661211599	71
0	491	1065.632260884484	72
0	499	1102.188443382766	73
0	530	1200.70406978571	74
0	546	1211.109510878444	75
0	553	1222.98685030184	76
0	556	1227.249833170067	77
0	557	1227.472028389743	78
0	565	1239.211991649165	79
0	590	1278.643563625899	80
0	618	1346.788612396077	81
0	630	1363.938940439237	82
0	636	1375.955272360179	83
0	641	1389.055308148595	84
0	652	1421.880488208384	85
0	685	1527.84938342349	86
0	686	1531.127059507788	87
0	693	1537.007731265148	88
0	701	1557.408111051127	89
0	710	1567.655227181133	90
0	718	1587.453678338543	91
0	723	1612.191354411964	92
0	732	1621.731597372535	93
0	741	1641.537676415323	94
0	749	1655.216006883863	95
0	760	1680.503934816039	96
0	761	1683.598075219803	97
0	765	1690.866380117966	98
0	792	1753.644778585385	99
0	802	1780.637445812717	100
0	812	1797.793466586837	101
0	829	1842.844729603917	102
0	830	1844.980979697758	103
0	851	1890.768455569192	104
0	858	1906.122772564841	105
0	881	1951.358018480036	106
0	893	1972.809667590572	107
0	908	1997.627756687781	108
0	915	2003.90578994216	109
0	918	2009.51469347715	110
0	921	2013.78677920718	111
0	928	2034.126397476719	112
0	937	2047.214698250276	113
0	940	2054.110424167487	114
0	941	2067.157374755859	115
0	956	2097.863271043465	116
0	994	2205.048714496858	117
0	1014	2266.254323921872	118
0	1033	2332.181895339112	119
0	1036	2338.676565769561	120
0	1051	2371.722928241748	121
0	1067	2409.1322920518	122
0	1070	2420.390834143124	123
0	1077	2440.816078508249	124
0	1086	2467.337696500354	125
0	1097	2483.889837988739	126
0	1100	2491.969479991156	127
1	165	351.486688855947	0
1	171	365.058342191057	0
1	172	370.85656141421	0
1	176	388.037052425803	0
1	180	390.927857908176	1
1	181	393.771456829777	1
1	184	403.721562489832	0
1	188	404.73333087535	0
1	189	407.039996226941	0
1	192	419.146910101711	0
1	193	422.247760228341	0
1	200	436.823234710174	0
1	202	440.900837049397	1
1	203	440.972918690383	1
1	206	451.687007402663	0
1	209	466.342603331937	0
1	210	472.788604405384	0
1	217	497.116149187221	0
1	219	503.09769978815	1
1	220	505.606344349681	1
1	227	528.836866789161	0
1	232	541.577288411556	0
1	233	541.807892650704	0
1	240	557.379584999622	0
1	246	571.013320665705	1
1	247	571.170663270383	1
1	250	578.945269333673	0
1	252	581.474923170251	0
1	261	616.019026390839	0
1	263	618.964030904645	0
1	264	621.814937141397	0
1	266	622.85963881137	0
1	268	624.51956532149	1
1	269	627.749932795236	1
1	270	632.84493889532	0
1	296	694.407150928009	0
1	299	702.051673933575	0
1	304	708.481046712107	0
1	307	711.648461135106	0
1	313	715.529536791828	0
1	315	716.879841144914	1
1	318	719.004666137938	1
1	324	723.6697040014	1
1	327	730.227556513346	1
1	331	734.846307524025	1
1	335	737.31664614593	2
1	336	738.619741986181	2
1	338	739.346914019748	2
1	340	743.358100075954	3
1	341	744.135717890875	3
1	345	746.078159748484	3
1	346	747.189715511359	3
1	349	748.8107142107	2
1	350	754.570089646285	1
1	354	759.713988500873	1
1	357	762.043613833718	1
1	358	775.509248479518	0
1	360	777.877727033664	0
1	363	792.275542217881	0
1	366	794.561121372008	0
1	368	799.685099640979	1
1	370	804.701437837468	2
1	372	806.963595367265	3
1	373	810.724352288256	3
1	376	814.199521414979	2
1	377	817.029070631487	1
1	378	819.413329549333	0
1	389	836.140137449287	0
1	391	841.117217619398	1
1	396	857.377720902472	1
1	398	858.339450889291	1
1	399	862.041993206827	1
1	401	866.949764860109	1
1	403	870.623974825057	2
1	404	874.081778993476	2
1	408	883.238222931355	2
1	416	892.398818790866	3
1	418	896.905318042219	4
1	419	900.253184715392	4
1	420	900.451069210646	3
1	422	909.552892526914	3
1	426	930.008526162325	4
1	429	935.881423366875	4
1	430	937.344305354141	3
1	433	947.945470372119	2
1	435	951.250248410845	2
1	436	951.683685096502	2
1	446	964.447198103986	2
1	449	973.831372137126	2
1	454	989.554928886954	1
1	458	995.956600520193	1
1	463	1007.312198477496	1
1	469	1010.030117456946	1
1	470	1012.14907879455	1
1	473	1016.659732117561	0
1	479	1031.787232155939	0
1	480	1037.039463273722	0
1	482	1041.57153689313	0
1	483	1042.490661211599	0
1	490	1060.559683230173	0
1	491	1065.632260884484	0
1	498	1092.122097599442	0
1	499	1102.188443382766	0
1	527	1186.006490948789	0
1	530	1200.70406978571	0
1	537	1203.356701488495	0
1	541	1205.901663236199	1
1	545	1209.443534644607	2
1	546	1211.109510878444	2
1	548	1212.660171838827	2
1	553	1222.98685030184	2
1	556	1227.249833170067	1
1	557	1227.472028389743	0
1	564	1236.78984715634	0
1	565	1239.211991649165	0
1	589	1275.038720804297	0
1	590	1278.643563625899	0
1	617	1341.831971966471	0
1	618	1346.788612396077	0
1	627	1356.079627233473	0
1	630	1363.938940439237	0
1	633	1369.942905406479	0
1	635	1374.84225275845	1
1	636	1375.955272360179	1
1	641	1389.055308148595	0
1	651	1418.900678856088	0
1	652	1421.880488208384	0
1	682	1518.913265032233	0
1	684	1527.272532464144	1
1	685	1527.84938342349	1
1	686	1531.127059507788	0
1	688	1534.84794874575	0
1	693	1537.007731265148	0
1	700	1551.594958035781	0
1	701	1557.408111051127	0
1	703	1557.582850544547	0
1	710	1567.655227181133	0
1	713	1568.739307218153	0
1	718	1587.453678338543	0
1	722	1601.86730711915	0
1	723	1612.191354411964	0
1	727	1613.347843900331	0
1	732	1621.731597372535	0
1	734	1622.076911568479	0
1	741	1641.537676415323	0
1	748	1652.049086036555	0
1	749	1655.216006883863	0
1	753	1664.665401336451	0
1	759	1680.005761790246	1
1	760	1680.503934816039	1
1	761	1683.598075219803	0
1	764	1686.414640465257	0
1	765	1690.866380117966	0
1	787	1747.885153759755	0
1	792	1753.644778585385	0
1	801	1779.894755724619	0
1	802	1780.637445812717	0
1	811	1795.609136824645	0
1	812	1797.793466586837	0
1	826	1829.264198008331	0
1	828	1830.977423873753	1
1	829	1842.844729603917	1
1	830	1844.980979697758	0
1	848	1890.142463571974	0
1	851	1890.768455569192	0
1	855	1899.267394109141	0
1	858	1906.122772564841	0
1	872	1933.886473698141	0
1	881	1951.358018480036	0
1	892	1971.942596377363	0
1	893	1972.809667590572	0
1	899	1986.420461942477	0
1	907	1996.847244160215	1
1	908	1997.627756687781	1
1	912	2001.842081440919	1
1	914	2002.393665442616	2
1	915	2003.90578994216	2
1	918	2009.51469347715	1
1	921	2013.78677920718	0
1	927	2029.851865139414	0
1	928	2034.126397476719	0
1	930	2035.530374205771	0
1	936	2046.826782324502	1
1	937	2047.214698250276	1
1	939	2048.216878838541	1
1	940	2054.110424167487	1
1	941	2067.157374755859	0
1	953	2092.056321117119	0
1	956	2097.863271043465	0
1	993	2193.888924218505	0
1	994	2205.048714496858	0
1	1011	2250.55891489116	0
1	1014	2266.254323921872	0
1	1030	2321.080740139735	0
1	1033	2332.181895339112	0
1	1035	2335.064538159043	0
1	1036	2338.676565769561	0
1	1050	2367.279148164219	0
1	1051	2371.722928241748	0
1	1062	2391.495205482738	0
1	1067	2409.1322920518	0
1	1069	2409.912083040808	0
1	1070	2420.390834143124	0
1	1076	2434.432498188945	0
1	1077	2440.816078508249	0
1	1085	2463.3924778558	0
1	1086	2467.337696500354	0
1	1092	2476.510344138141	0
1	1096	2480.218280446483	1
1	1097	2483.889837988739	1
1	1100	2491.969479991156	0
2	165	351.486688855947	1.492324835089
2	172	370.85656141421	5.798219223153
2	181	393.771456829777	5.734404403974
2	184	403.721562489832	12.793704581656
2	189	407.039996226941	2.306665351591
2	193	422.247760228341	3.10085012663
2	203	440.972918690383	4.149683980209
2	206	451.687007402663	10.786170353266
2	210	472.788604405384	6.446001073447
2	220	505.606344349681	8.49019516246
2	227	528.836866789161	25.739167001011
2	233	541.807892650704	0.230604239148
2	247	571.170663270383	13.791078270761
2	250	578.945269333673	7.931948667968
2	261	616.019026390839	34.544103220588
2	264	621.814937141397	2.850906236752
2	269	627.749932795236	4.890293983866
2	270	632.84493889532	8.32537357383
2	299	702.051673933575	7.644523005566
2	307	711.648461135106	3.167414422999
2	318	719.004666137938	3.47512934611
2	327	730.227556513346	13.347715368432
2	336	738.619741986181	14.950037984781
2	341	744.135717890875	9.28941036685
2	346	747.189715511359	9.873069365429
2	349	748.8107142107	9.463800190952
2	350	754.570089646285	11.211989570331
2	357	762.043613833718	15.965454085234
2	358	775.509248479518	15.795259978645
2	363	792.275542217881	14.397815184217
2	373	810.724352288256	16.163230916248
2	376	814.199521414979	14.514421774
2	377	817.029070631487	12.327632794019
2	378	819.413329549333	12.449734182068
2	396	857.377720902472	21.237583453185
2	399	862.041993206827	20.924775587429
2	404	874.081778993476	15.742328104185
2	419	900.253184715392	33.303419855283
2	420	900.451069210646	29.827094385589
2	429	935.881423366875	52.64320043552
2	430	937.344305354141	44.945486563275
2	433	947.945470372119	51.0401523299
2	436	951.683685096502	42.130792569588
2	449	973.831372137126	43.822845974801
2	454	989.554928886954	38.304680476109
2	463	1007.312198477496	42.86500037351
2	470	1012.14907879455	16.192478274357
2	473	1016.659732117561	6.629614660615
2	480	1037.039463273722	5.252231117783
2	483	1042.490661211599	0.919124318469
2	491	1065.632260884484	5.072577654311
2	499	1102.188443382766	10.066345783324
2	530	1200.70406978571	14.697578836921
2	546	1211.109510878444	7.752809389949
2	553	1222.98685030184	17.085187065641
2	556	1227.249833170067	17.80629852546
2	557	1227.472028389743	14.811856550916
2	565	1239.211991649165	2.422144492825
2	590	1278.643563625899	3.604842821602
2	618	1346.788612396077	4.956640429606
2	630	1363.938940439237	7.859313205764
2	636	1375.955272360179	6.0123669537
2	641	1389.055308148595	14.213055390145
2	652	1421.880488208384	2.979809352296
2	685	1527.84938342349	8.936118391257
2	686	1531.127059507788	3.854527043644
2	693	1537.007731265148	2.159782519398
2	701	1557.408111051127	5.813153015346
2	710	1567.655227181133	10.072376636586
2	718	1587.453678338543	18.71437112039
2	723	1612.191354411964	10.324047292814
2	732	1621.731597372535	8.383753472204
2	741	1641.537676415323	19.460764846844
2	749	1655.216006883863	3.166920847308
2	760	1680.503934816039	15.838533479588
2	761	1683.598075219803	3.592313429557
2	765	1690.866380117966	4.451739652709
2	792	1753.644778585385	5.75962482563
2	802	1780.637445812717	0.742690088098
2	812	1797.793466586837	2.184329762192
2	829	1842.844729603917	13.580531595586
2	830	1844.980979697758	14.003555824005
2	851	1890.768455569192	0.625991997218
2	858	1906.122772564841	6.8553784557
2	881	1951.358018480036	17.471544781895
2	893	1972.809667590572	0.867071213209
2	908	1997.627756687781	11.207294745304
2	915	2003.90578994216	7.058545781945
2	918	2009.51469347715	7.672612036231
2	921	2013.78677920718	11.393113764564
2	928	2034.126397476719	4.274532337305
2	937	2047.214698250276	11.684324044505
2	940	2054.110424167487	7.283641842985
2	941	2067.157374755859	18.940495917318
2	956	2097.863271043465	5.806949926346
2	994	2205.048714496858	11.159790278353
2	1014	2266.254323921872	15.695409030712
2	1033	2332.181895339112	11.101155199377
2	1036	2338.676565769561	3.612027610518
2	1051	2371.722928241748	4.443780077529
2	1067	2409.1322920518	17.637086569062
2	1070	2420.390834143124	10.478751102316
2	1077	2440.816078508249	6.383580319304
2	1086	2467.337696500354	3.945218644554
2	1097	2483.889837988739	7.379493850598
2	1100	2491.969479991156	11.751199544673
3	165	351.486688855947	17.354639972534
3	166	354.727235154679	16.002704898714
3	169	358.393374420728	8.39901039987
3	172	370.85656141421	14.257154523858
3	173	375.76460528249	10.706263091433
3	184	403.721562489832	15.620456312721
3	189	407.039996226941	3.881047463456
3	190	407.947633732972	3.276376432837
3	193	422.247760228341	17.514429352991
3	194	424.616063230873	5.469153129162
3	197	430.210658529835	5.136258650281
3	206	451.687007402663	6.203685363992
3	212	483.935540730089	0
3	215	493.614546877644	3.261914420774
3	227	528.836866789161	31.72071760194
3	228	532.887327746636	26.482299719151
3	233	541.807892650704	19.262843874293
3	236	551.547820805776	22.813477433098
3	237	553.804052540264	17.720064955688
3	238	554.388411975013	12.811123563457
3	250	578.945269333673	27.695922009195
3	261	616.019026390839	58.639441391217
3	264	621.814937141397	59.206200399817
3	270	632.84493889532	68.977458059359
3	273	645.388640433076	68.768882574879
3	280	657.404423295531	75.92950012528
3	283	661.946990474217	75.112913872528
3	290	675.447325689501	79.890037137391
3	291	686.049033001054	88.944447643944
3	292	686.582310172601	81.769378230818
3	299	702.051673933575	83.08764302893
3	302	708.126898253956	85.267259442586
3	307	711.648461135106	77.891324413452
3	308	711.887488410038	63.916704887447
3	309	713.800873700929	58.451817260779
3	310	714.917625434679	58.449107388203
3	311	715.284049143658	53.459873894903
3	358	775.509248479518	107.26812621045
3	363	792.275542217881	120.96161642729
3	364	792.896694330815	119.52073571992
3	378	819.413329549333	131.15482268092
3	379	822.693161701855	128.28601077385
3	382	825.486079410178	123.87467069553
3	385	832.168205176778	124.46597223029
3	473	1016.659732117561	308.17868540545
3	474	1019.641648220248	309.4989303664
3	475	1022.825654096616	307.29611730479
3	480	1037.039463273722	318.49339836375
3	483	1042.490661211599	322.49181602871
3	484	1043.811182279895	323.62265140499
3	485	1050.874721825409	326.76848284374
3	486	1052.926534724247	319.20648635192
3	487	1055.201071570679	319.85965830389
3	488	1056.120818796821	311.30943875828
3	491	1065.632260884484	318.3064615252
3	494	1074.808109836611	317.88683070364
3	495	1085.605372210603	323.79852258455
3	496	1088.797043137336	310.91931610367
3	499	1102.188443382766	311.60244354394
3	502	1102.299188850762	307.73806747875
3	505	1106.029380298043	292.15424671708
3	506	1106.237993098415	280.91146997045
3	509	1114.559223762556	283.2552398664
3	512	1120.428699052114	284.66953020545
3	517	1147.412563062235	311.27242561295
3	518	1162.445384324442	317.19126964281
3	519	1168.929471464516	317.93003271547
3	520	1177.203374031373	302.94042466539
3	521	1179.33054009561	293.10651273505
3	522	1181.305265573979	294.03562595567
3	525	1184.850265990214	296.95947346724
3	530	1200.70406978571	277.81114041819
3	533	1202.211202918901	268.32914887587
3	534	1202.864911397451	258.39451603955
3	535	1203.322079255802	247.74570944103
3	557	1227.472028389743	270.02139791479
3	558	1231.272683737082	271.4599862013
3	565	1239.211991649165	274.96525382718
3	566	1239.818690581306	274.19166587503
3	571	1241.904252490387	262.3868008862
3	574	1255.925459289893	272.61838804288
3	575	1257.961630617393	265.29394377267
3	576	1258.725157809294	261.53645036232
3	577	1259.560927245079	258.44109422507
3	580	1264.025036520441	254.46092556515
3	581	1264.142378250775	254.18643573136
3	582	1264.666342847112	248.93715721963
3	587	1271.481154373859	245.69325869471
3	590	1278.643563625899	246.85633146996
3	591	1282.065915826188	240.49437893306
3	592	1282.104522342111	221.54483911194
3	595	1284.625411118688	214.29254697778
3	596	1286.052123279878	193.93002568044
3	599	1287.020174449228	184.75784388778
3	600	1301.497814797928	198.15913315492
3	601	1303.349587647975	189.43264187144
3	602	1305.480473834404	189.22051287012
3	603	1309.539077525629	183.19892410714
3	604	1314.80711262745	186.70782375471
3	605	1315.136147189797	133.43585481462
3	608	1320.143195587057	134.13670463827
3	611	1328.330301858252	136.04258233214
3	614	1333.451854116156	132.44497605378
3	615	1339.162402867463	135.80570137897
3	618	1346.788612396077	142.86092900103
3	619	1347.740677866227	138.46234770035
3	630	1363.938940439237	148.38119446345
3	631	1369.278374883256	147.28281889144
3	641	1389.055308148595	164.25698207199
3	644	1396.274314150998	161.70734733369
3	645	1397.850420332472	161.5521789537
3	646	1398.498166514573	161.70831935823
3	647	1407.335766794459	166.91251311646
3	648	1411.91008791214	170.31728013622
3	649	1415.117274112445	162.29278332119
3	652	1421.880488208384	158.37527544563
3	655	1428.993360640859	161.67258944437
3	656	1433.069531583007	164.26163769399
3	657	1436.277980290325	161.23925948603
3	658	1447.643886228211	163.76963900647
3	659	1452.310896801215	166.2478436144
3	660	1452.618362630513	136.68341052518
3	661	1461.319779736741	140.784688054
3	664	1465.925664702878	134.52787921136
3	665	1466.204100821552	124.37212885508
3	666	1467.063995655757	118.46289358707
3	667	1473.604194504864	124.86644665187
3	668	1474.508895477543	124.7496988093
3	669	1478.849162097278	122.7695348638
3	672	1489.325099247443	129.81488323764
3	677	1498.758055460255	128.81515005378
3	678	1499.908098435864	122.19969323321
3	679	1517.266584909404	128.36003604921
3	680	1517.448111579683	127.5312149664
3	686	1531.127059507788	112.2263806517
3	693	1537.007731265148	111.35495092842
3	696	1549.887657226469	86.744562293901
3	701	1557.408111051127	73.211803110637
3	710	1567.655227181133	77.135553276685
3	711	1568.542571982756	70.897062144976
3	718	1587.453678338543	68.54041330631
3	719	1591.287910154723	56.439961408973
3	720	1601.750590434614	66.485807751794
3	723	1612.191354411964	76.353302464906
3	732	1621.731597372535	76.608760456463
3	741	1641.537676415323	90.415370632841
3	744	1644.382559339787	92.787601304006
3	749	1655.216006883863	97.633156339316
3	750	1659.710729705392	95.145971201387
3	751	1662.75249664712	97.985836861653
3	761	1683.598075219803	118.43165244375
3	762	1684.682562190313	115.94325497216
3	765	1690.866380117966	119.87117345325
3	766	1697.204852199392	122.88554312503
3	775	1712.95057450019	111.08326738104
3	776	1713.733748510049	100.49873820724
3	777	1716.423304882731	103.0754609824
3	780	1728.628112710145	114.11253475422
3	783	1731.192222729482	112.22245015436
3	784	1736.270132640797	114.19322107232
3	785	1745.807385806357	123.32585233742
3	792	1753.644778585385	124.60678227282
3	795	1759.738735301673	129.43685262485
3	798	1767.506454266658	125.53583632435
3	799	1768.316665729141	122.51903829821
3	802	1780.637445812717	128.58835977616
3	803	1785.286796347346	120.6213950109
3	804	1788.012552037344	120.9725526364
3	809	1795.04361103285	122.65476787434
3	812	1797.793466586837	111.37882612158
3	813	1799.429681073809	102.00172008444
3	814	1805.690155551623	107.59922054744
3	815	1814.030582951874	113.49569346687
3	816	1816.65175191878	104.32496716312
3	819	1819.226288841326	98.571068925008
3	824	1827.870362754192	98.854167518171
3	830	1844.980979697758	97.095825938003
3	831	1851.240500098107	102.19189963701
3	834	1853.885795345585	101.75304648351
3	841	1867.459420715833	108.21419248159
3	844	1875.84448328121	109.1916655425
3	845	1879.19713762458	99.302381899961
3	846	1880.508253258884	88.999611950403
3	851	1890.768455569192	98.273311176528
3	858	1906.122772564841	110.5136357402
3	859	1911.421015113014	93.522825640763
3	860	1911.491441995324	85.014296112331
3	863	1918.02534174439	90.680491038001
3	864	1922.161576460337	92.897378452006
3	865	1922.65541305052	68.818003057367
3	866	1928.48775165062	71.396937502177
3	867	1928.947690407129	68.0212741177
3	868	1929.678974220028	68.658550423958
3	881	1951.358018480036	79.329135583058
3	890	1969.271434215624	79.12897064365
3	893	1972.809667590572	82.307508183576
3	894	1973.206938004146	81.291471461542
3	895	1976.793001537905	77.525607428764
3	921	2013.78677920718	111.45350612278
3	922	2016.420696774941	101.48808558945
3	923	2021.602738564588	88.257302664228
3	928	2034.126397476719	100.23992377858
3	941	2067.157374755859	130.39539718524
3	942	2070.304253308946	130.4670985007
3	943	2073.170564772577	131.30990557866
3	946	2074.793760393227	127.86109996674
3	951	2083.429907945787	127.66595709971
3	956	2097.863271043465	134.05134619937
3	959	2106.723080382753	142.70803095071
3	962	2111.838463425007	146.02089147311
3	963	2113.990185868712	142.04758949135
3	964	2114.473863984442	130.99888130842
3	965	2114.49111069673	128.07064875425
3	966	2116.451797377759	128.35950574129
3	969	2125.341738015761	137.20238097437
3	970	2131.102330415601	141.3795583119
3	971	2132.098160816663	131.04904729324
3	972	2134.471055541801	124.99111169689
3	973	2139.656575358361	127.02941490491
3	976	2144.149271819506	119.35702483169
3	977	2144.203564696187	114.35169955677
3	980	2153.02146792879	117.49109372302
3	981	2156.687403624949	118.60757789963
3	986	2169.713697760747	128.23040465307
3	987	2177.121166645319	102.8864417605
3	988	2179.77334770682	99.859581287195
3	989	2183.589876127677	100.81589998297
3	994	2205.048714496858	112.99239337974
3	995	2210.444088416372	113.55986817872
3	998	2219.122713556893	113.65456364095
3	999	2224.981508149663	114.46992016785
3	1002	2228.76133338081	109.28383669113
3	1003	2228.857019776521	86.742187328235
3	1004	2230.737079307692	80.130038743762
3	1009	2246.644595337368	85.85096747325
3	1014	2266.254323921872	102.93649612884
3	1015	2273.298806699811	87.765909922041
3	1016	2278.107544783887	84.218620565382
3	1017	2282.159299596046	66.103586249433
3	1026	2317.697317989238	90.245525007296
3	1027	2318.133267941856	84.755234685392
3	1028	2319.268188665392	79.926361465633
3	1033	2332.181895339112	81.622980447952
3	1036	2338.676565769561	80.60013977123
3	1037	2339.561553171299	43.055061340531
3	1040	2347.708140428374	39.179262925141
3	1045	2363.890398287266	54.126254310412
3	1046	2365.169231451119	51.874886141523
3	1051	2371.722928241748	50.642188102013
3	1052	2373.747731366652	45.885200471414
3	1053	2377.492946112386	42.428407953343
3	1054	2381.38776262035	36.716009679653
3	1055	2381.79743677986	31.818458872998
3	1056	2383.368453076145	28.339287691736
3	1067	2409.1322920518	42.850306498954
3	1070	2420.390834143124	53.111685978905
3	1073	2425.441452612003	37.864473098477
3	1074	2433.852976151716	43.40189187749
3	1077	2440.816078508249	49.320873025511
3	1078	2441.139659287311	41.983216749821
3	1079	2456.525271002441	53.611440040883
3	1080	2456.828638139649	46.916555098841
3	1083	2460.307526035708	36.045390574318
3	1086	2467.337696500354	32.905198311409
3	1087	2468.161644697231	10.25580470533
3	1090	2472.551250029889	9.158772174089
3	1100	2491.969479991156	22.269810662809
3	1101	2492.765671312812	16.255327174671
3	1102	2493.180501438764	14.60221800605
3	1103	2494.314971604974	2.817595484253
4	166	354.727235154679	32
4	169	358.393374420728	33
4	173	375.76460528249	34
4	174	381.529903688933	35
4	190	407.947633732972	36
4	194	424.616063230873	37
4	197	430.210658529835	38
4	198	431.535297831142	39
4	207	460.72800389662	40
4	215	493.614546877644	41
4	228	532.887327746636	42
4	236	551.547820805776	43
4	237	553.804052540264	44
4	238	554.388411975013	45
4	273	645.388640433076	46
4	280	657.404423295531	47
4	283	661.946990474217	48
4	290	675.447325689501	49
4	291	686.049033001054	50
4	292	686.582310172601	51
4	302	708.126898253956	52
4	308	711.887488410038	53
4	309	713.800873700929	54
4	310	714.917625434679	55
4	311	715.284049143658	56
4	364	792.896694330815	57
4	379	822.693161701855	58
4	382	825.486079410178	59
4	385	832.168205176778	60
4	474	1019.641648220248	61
4	475	1022.825654096616	62
4	484	1043.811182279895	63
4	485	1050.874721825409	64
4	486	1052.926534724247	65
4	487	1055.201071570679	66
4	488	1056.120818796821	67
4	494	1074.808109836611	68
4	495	1085.605372210603	69
4	496	1088.797043137336	70
4	502	1102.299188850762	71
4	505	1106.029380298043	72
4	506	1106.237993098415	73
4	509	1114.559223762556	74
4	512	1120.428699052114	75
4	517	1147.412563062235	76
4	518	1162.445384324442	77
4	519	1168.929471464516	78
4	520	1177.203374031373	79
4	521	1179.33054009561	80
4	522	1181.305265573979	81
4	525	1184.850265990214	82
4	533	1202.211202918901	83
4	534	1202.864911397451	84
4	535	1203.322079255802	85
4	558	1231.272683737082	86
4	566	1239.818690581306	87
4	571	1241.904252490387	88
4	574	1255.925459289893	89
4	575	1257.961630617393	90
4	576	1258.725157809294	91
4	577	1259.560927245079	92
4	580	1264.025036520441	93
4	581	1264.142378250775	94
4	582	1264.666342847112	95
4	587	1271.481154373859	96
4	591	1282.065915826188	97
4	592	1282.104522342111	98
4	595	1284.625411118688	99
4	596	1286.052123279878	100
4	599	1287.020174449228	101
4	600	1301.497814797928	102
4	601	1303.349587647975	103
4	602	1305.480473834404	104
4	603	1309.539077525629	105
4	604	1314.80711262745	106
4	605	1315.136147189797	107
4	608	1320.143195587057	108
4	611	1328.330301858252	109
4	614	1333.451854116156	110
4	615	1339.162402867463	111
4	619	1347.740677866227	112
4	631	1369.278374883256	113
4	644	1396.274314150998	114
4	645	1397.850420332472	115
4	646	1398.498166514573	116
4	647	1407.335766794459	117
4	648	1411.91008791214	118
4	649	1415.117274112445	119
4	655	1428.993360640859	120
4	656	1433.069531583007	121
4	657	1436.277980290325	122
4	658	1447.643886228211	123
4	659	1452.310896801215	124
4	660	1452.618362630513	125
4	661	1461.319779736741	126
4	664	1465.925664702878	127
4	665	1466.204100821552	128
4	666	1467.063995655757	129
4	667	1473.604194504864	130
4	668	1474.508895477543	131
4	669	1478.849162097278	132
4	672	1489.325099247443	133
4	677	1498.758055460255	134
4	678	1499.908098435864	135
4	679	1517.266584909404	136
4	680	1517.448111579683	137
4	696	1549.887657226469	138
4	711	1568.542571982756	139
4	719	1591.287910154723	140
4	720	1601.750590434614	141
4	744	1644.382559339787	142
4	750	1659.710729705392	143
4	751	1662.75249664712	144
4	762	1684.682562190313	145
4	766	1697.204852199392	146
4	775	1712.95057450019	147
4	776	1713.733748510049	148
4	777	1716.423304882731	149
4	780	1728.628112710145	150
4	783	1731.192222729482	151
4	784	1736.270132640797	152
4	785	1745.807385806357	153
4	795	1759.738735301673	154
4	798	1767.506454266658	155
4	799	1768.316665729141	156
4	803	1785.286796347346	157
4	804	1788.012552037344	158
4	809	1795.04361103285	159
4	813	1799.429681073809	160
4	814	1805.690155551623	161
4	815	1814.030582951874	162
4	816	1816.65175191878	163
4	819	1819.226288841326	164
4	824	1827.870362754192	165
4	831	1851.240500098107	166
4	834	1853.885795345585	167
4	841	1867.459420715833	168
4	844	1875.84448328121	169
4	845	1879.19713762458	170
4	846	1880.508253258884	171
4	859	1911.421015113014	172
4	860	1911.491441995324	173
4	863	1918.02534174439	174
4	864	1922.161576460337	175
4	865	1922.65541305052	176
4	866	1928.48775165062	177
4	867	1928.947690407129	178
4	868	1929.678974220028	179
4	890	1969.271434215624	180
4	894	1973.206938004146	181
4	895	1976.793001537905	182
4	922	2016.420696774941	183
4	923	2021.602738564588	184
4	942	2070.304253308946	185
4	943	2073.170564772577	186
4	946	2074.793760393227	187
4	951	2083.429907945787	188
4	959	2106.723080382753	189
4	962	2111.838463425007	190
4	963	2113.990185868712	191
4	964	2114.473863984442	192
4	965	2114.49111069673	193
4	966	2116.451797377759	194
4	969	2125.341738015761	195
4	970	2131.102330415601	196
4	971	2132.098160816663	197
4	972	2134.471055541801	198
4	973	2139.656575358361	199
4	976	2144.149271819506	200
4	977	2144.203564696187	201
4	980	2153.02146792879	202
4	981	2156.687403624949	203
4	986	2169.713697760747	204
4	987	2177.121166645319	205
4	988	2179.77334770682	206
4	989	2183.589876127677	207
4	995	2210.444088416372	208
4	998	2219.122713556893	209
4	999	2224.981508149663	210
4	1002	2228.76133338081	211
4	1003	2228.857019776521	212
4	1004	2230.737079307692	213
4	1009	2246.644595337368	214
4	1015	2273.298806699811	215
4	1016	2278.107544783887	216
4	1017	2282.159299596046	217
4	1026	2317.697317989238	218
4	1027	2318.133267941856	219
4	1028	2319.268188665392	220
4	1037	2339.561553171299	221
4	1040	2347.708140428374	222
4	1045	2363.890398287266	223
4	1046	2365.169231451119	224
4	1052	2373.747731366652	225
4	1053	2377.492946112386	226
4	1054	2381.38776262035	227
4	1055	2381.79743677986	228
4	1056	2383.368453076145	229
4	1073	2425.441452612003	230
4	1074	2433.852976151716	231
4	1078	2441.139659287311	232
4	1079	2456.525271002441	233
4	1080	2456.828638139649	234
4	1083	2460.307526035708	235
4	1087	2468.161644697231	236
4	1090	2472.551250029889	237
4	1101	2492.765671312812	238
4	1102	2493.180501438764	239
4	1103	2494.314971604974	240
4	1104	2494.435454008357	241
5	166	354.727235154679	2
5	168	356.599406890352	2
5	169	358.393374420728	2
5	173	375.76460528249	1
5	174	381.529903688933	0
5	178	388.101106177111	0
5	183	403.158948763485	1
5	186	404.671257300135	2
5	190	407.947633732972	2
5	194	424.616063230873	1
5	196	425.074399879554	1
5	197	430.210658529835	1
5	198	431.535297831142	0
5	205	445.483322038671	0
5	207	460.72800389662	0
5	212	483.935540730089	0
5	214	490.35263245687	1
5	215	493.614546877644	1
5	222	506.405028027485	1
5	224	522.545048776411	2
5	226	528.734343372678	3
5	228	532.887327746636	3
5	230	536.083987584576	3
5	235	551.249347324478	4
5	236	551.547820805776	4
5	237	553.804052540264	3
5	238	554.388411975013	2
5	242	562.60873674158	2
5	244	563.867480835961	3
5	249	576.619757858197	4
5	254	586.834076601689	5
5	256	595.55728855211	6
5	258	597.10458535711	7
5	260	604.812931941783	8
5	272	633.757136721654	9
5	273	645.388640433076	9
5	275	647.970783522591	9
5	277	655.34905644015	10
5	279	656.468518046476	11
5	280	657.404423295531	11
5	282	661.824175248755	11
5	283	661.946990474217	11
5	285	668.241122269066	11
5	287	671.313925790591	12
5	289	673.375958610896	13
5	290	675.447325689501	13
5	291	686.049033001054	12
5	292	686.582310172601	11
5	294	688.258506868413	11
5	298	701.611408714652	12
5	301	707.702232946483	13
5	302	708.126898253956	13
5	306	710.142717853848	13
5	308	711.887488410038	13
5	309	713.800873700929	12
5	310	714.917625434679	11
5	311	715.284049143658	10
5	317	718.54606490997	10
5	320	719.998845182892	11
5	322	720.188530874903	12
5	326	724.10623898167	13
5	329	733.720048372328	14
5	333	735.341413266788	15
5	343	744.811380038538	16
5	348	747.325799359286	17
5	352	756.921279132968	18
5	356	761.806849626048	19
5	362	790.585999838825	20
5	364	792.896694330815	20
5	375	813.875133580967	20
5	379	822.693161701855	20
5	381	825.326523127968	20
5	382	825.486079410178	20
5	384	831.303983896152	20
5	385	832.168205176778	20
5	387	835.759168846664	20
5	393	845.254114681631	21
5	395	850.999438749043	22
5	406	874.262949365986	23
5	410	886.224027360557	24
5	412	887.269639618309	25
5	414	887.890792522973	26
5	424	922.892929367519	27
5	428	933.882054043028	28
5	432	944.470395357904	29
5	438	955.576369814776	30
5	440	957.450630474955	31
5	442	959.812697535782	32
5	444	964.246737821988	33
5	448	965.627024706273	34
5	451	979.517451604183	35
5	453	983.30707124701	36
5	456	992.667686844724	37
5	460	997.18870744697	38
5	462	1001.119833020011	39
5	465	1009.564110955288	40
5	467	1009.955942519419	41
5	472	1015.729185627484	42
5	474	1019.641648220248	42
5	475	1022.825654096616	41
5	477	1025.78789567915	41
5	484	1043.811182279895	41
5	485	1050.874721825409	40
5	486	1052.926534724247	39
5	487	1055.201071570679	38
5	488	1056.120818796821	37
5	493	1070.332864140911	37
5	494	1074.808109836611	37
5	495	1085.605372210603	36
5	496	1088.797043137336	35
5	501	1102.262330561447	35
5	502	1102.299188850762	35
5	504	1103.338681643008	35
5	505	1106.029380298043	35
5	506	1106.237993098415	34
5	508	1113.91694577653	34
5	509	1114.559223762556	34
5	511	1116.259960964286	34
5	512	1120.428699052114	34
5	514	1126.340153418487	34
5	516	1128.099288872743	35
5	517	1147.412563062235	35
5	518	1162.445384324442	34
5	519	1168.929471464516	33
5	520	1177.203374031373	32
5	521	1179.33054009561	31
5	522	1181.305265573979	30
5	524	1181.700292375175	30
5	525	1184.850265990214	30
5	529	1192.287719526116	30
5	532	1201.006878062373	31
5	533	1202.211202918901	31
5	534	1202.864911397451	30
5	535	1203.322079255802	29
5	539	1203.927683395045	29
5	543	1209.278330165878	30
5	550	1215.55774597579	31
5	552	1221.995555991815	32
5	555	1224.798326076605	33
5	558	1231.272683737082	33
5	560	1234.566966817312	33
5	562	1236.298241378774	34
5	566	1239.818690581306	34
5	568	1240.423253677999	34
5	570	1241.592807775924	35
5	571	1241.904252490387	35
5	573	1252.824490791257	35
5	574	1255.925459289893	35
5	575	1257.961630617393	34
5	576	1258.725157809294	33
5	577	1259.560927245079	32
5	579	1263.505212762752	32
5	580	1264.025036520441	32
5	581	1264.142378250775	31
5	582	1264.666342847112	30
5	584	1267.320771196494	30
5	586	1268.807893889015	31
5	587	1271.481154373859	31
5	591	1282.065915826188	30
5	592	1282.104522342111	29
5	594	1283.87424722174	29
5	595	1284.625411118688	29
5	596	1286.052123279878	28
5	598	1286.063053186813	28
5	599	1287.020174449228	28
5	600	1301.497814797928	27
5	601	1303.349587647975	26
5	602	1305.480473834404	25
5	603	1309.539077525629	24
5	604	1314.80711262745	23
5	605	1315.136147189797	22
5	607	1315.934952105333	22
5	608	1320.143195587057	22
5	610	1320.535091682736	22
5	611	1328.330301858252	22
5	613	1331.397785491519	22
5	614	1333.451854116156	22
5	615	1339.162402867463	21
5	619	1347.740677866227	20
5	621	1348.601102068685	20
5	623	1348.737747852994	21
5	625	1349.759196668243	22
5	629	1359.510216009806	23
5	631	1369.278374883256	23
5	638	1377.70840520265	23
5	640	1388.906548860189	24
5	643	1389.916896613279	25
5	644	1396.274314150998	25
5	645	1397.850420332472	24
5	646	1398.498166514573	23
5	647	1407.335766794459	22
5	648	1411.91008791214	21
5	649	1415.117274112445	20
5	654	1425.652780336723	20
5	655	1428.993360640859	20
5	656	1433.069531583007	19
5	657	1436.277980290325	18
5	658	1447.643886228211	17
5	659	1452.310896801215	16
5	660	1452.618362630513	15
5	661	1461.319779736741	14
5	663	1463.143094932568	14
5	664	1465.925664702878	14
5	665	1466.204100821552	13
5	666	1467.063995655757	12
5	667	1473.604194504864	11
5	668	1474.508895477543	10
5	669	1478.849162097278	9
5	671	1484.19630794049	9
5	672	1489.325099247443	9
5	674	1490.519673904448	9
5	676	1497.64550983778	10
5	677	1498.758055460255	10
5	678	1499.908098435864	9
5	679	1517.266584909404	8
5	680	1517.448111579683	7
5	690	1535.26478268282	7
5	692	1535.838051947058	8
5	695	1545.122836916072	9
5	696	1549.887657226469	9
5	698	1551.122305782482	9
5	705	1564.564758504005	10
5	707	1564.766659785467	11
5	709	1565.16642277605	12
5	711	1568.542571982756	12
5	715	1570.99520666472	12
5	717	1574.319309074357	13
5	719	1591.287910154723	13
5	720	1601.750590434614	12
5	725	1613.23501030281	12
5	729	1614.515577955922	13
5	731	1618.96977257512	14
5	736	1622.481533468933	15
5	738	1629.037996312569	16
5	740	1630.301882676822	17
5	743	1641.970617942308	18
5	744	1644.382559339787	18
5	746	1645.797627430926	18
5	750	1659.710729705392	18
5	751	1662.75249664712	17
5	755	1667.039999400943	17
5	757	1672.388843158512	18
5	762	1684.682562190313	18
5	766	1697.204852199392	17
5	768	1697.427960989364	17
5	770	1698.090935004186	18
5	772	1700.534889485004	19
5	774	1712.326784755656	20
5	775	1712.95057450019	20
5	776	1713.733748510049	19
5	777	1716.423304882731	18
5	779	1720.655219916318	18
5	780	1728.628112710145	18
5	782	1729.016195236021	18
5	783	1731.192222729482	18
5	784	1736.270132640797	17
5	785	1745.807385806357	16
5	789	1749.048600461093	16
5	791	1752.132748862071	17
5	794	1759.245228234243	18
5	795	1759.738735301673	18
5	797	1766.652817738713	18
5	798	1767.506454266658	18
5	799	1768.316665729141	17
5	803	1785.286796347346	16
5	804	1788.012552037344	15
5	806	1791.508641308481	15
5	808	1792.495144392664	16
5	809	1795.04361103285	16
5	813	1799.429681073809	15
5	814	1805.690155551623	14
5	815	1814.030582951874	13
5	816	1816.65175191878	12
5	818	1817.898189472251	12
5	819	1819.226288841326	12
5	821	1826.477145882993	12
5	823	1827.344850706389	13
5	824	1827.870362754192	13
5	831	1851.240500098107	12
5	833	1853.837409993153	12
5	834	1853.885795345585	12
5	836	1857.090814148443	12
5	838	1860.926416289429	13
5	840	1861.02042379607	14
5	841	1867.459420715833	14
5	843	1872.028882896978	14
5	844	1875.84448328121	14
5	845	1879.19713762458	13
5	846	1880.508253258884	12
5	850	1890.502159406996	12
5	853	1891.915466542604	13
5	857	1902.333273084399	14
5	859	1911.421015113014	14
5	860	1911.491441995324	13
5	862	1914.932611185489	13
5	863	1918.02534174439	13
5	864	1922.161576460337	12
5	865	1922.65541305052	11
5	866	1928.48775165062	10
5	867	1928.947690407129	9
5	868	1929.678974220028	8
5	870	1933.34543590036	8
5	874	1936.761977570621	9
5	876	1939.837154808245	10
5	878	1941.860659193917	11
5	880	1946.932660426483	12
5	883	1955.763950846076	13
5	885	1963.81192484409	14
5	887	1964.015049432046	15
5	889	1965.817571951894	16
5	890	1969.271434215624	16
5	894	1973.206938004146	15
5	895	1976.793001537905	14
5	897	1983.474982676025	14
5	901	1988.09229163647	15
5	903	1988.139357041393	16
5	905	1989.722772103698	17
5	910	2001.049113523423	18
5	917	2009.479943844907	19
5	920	2012.627160453453	20
5	922	2016.420696774941	20
5	923	2021.602738564588	19
5	925	2024.792246987819	19
5	932	2038.079825725322	20
5	934	2041.483293107674	21
5	942	2070.304253308946	21
5	943	2073.170564772577	20
5	945	2074.234724884822	20
5	946	2074.793760393227	20
5	948	2079.913766419625	20
5	950	2082.773976144706	21
5	951	2083.429907945787	21
5	955	2096.88422023765	21
5	958	2105.46814991594	22
5	959	2106.723080382753	22
5	961	2110.511587981818	22
5	962	2111.838463425007	22
5	963	2113.990185868712	21
5	964	2114.473863984442	20
5	965	2114.49111069673	19
5	966	2116.451797377759	18
5	968	2119.477496689677	18
5	969	2125.341738015761	18
5	970	2131.102330415601	17
5	971	2132.098160816663	16
5	972	2134.471055541801	15
5	973	2139.656575358361	14
5	975	2142.114832448286	14
5	976	2144.149271819506	14
5	977	2144.203564696187	13
5	979	2150.60704056393	13
5	980	2153.02146792879	13
5	981	2156.687403624949	12
5	983	2160.793627864118	12
5	985	2163.317827793029	13
5	986	2169.713697760747	13
5	987	2177.121166645319	12
5	988	2179.77334770682	11
5	989	2183.589876127677	10
5	991	2185.53289677777	10
5	995	2210.444088416372	10
5	997	2216.055713346613	10
5	998	2219.122713556893	10
5	999	2224.981508149663	9
5	1001	2227.451792981942	9
5	1002	2228.76133338081	9
5	1003	2228.857019776521	8
5	1004	2230.737079307692	7
5	1006	2233.378033256464	7
5	1008	2239.341827199759	8
5	1009	2246.644595337368	8
5	1013	2258.076425998331	8
5	1015	2273.298806699811	8
5	1016	2278.107544783887	7
5	1017	2282.159299596046	6
5	1019	2296.506491830768	6
5	1021	2308.528877503233	7
5	1023	2309.764143976854	8
5	1025	2313.294345309596	9
5	1026	2317.697317989238	9
5	1027	2318.133267941856	8
5	1028	2319.268188665392	7
5	1032	2327.862530895238	7
5	1037	2339.561553171299	7
5	1039	2344.671752940697	7
5	1040	2347.708140428374	7
5	1042	2349.978977906862	7
5	1044	2355.029165384409	8
5	1045	2363.890398287266	8
5	1046	2365.169231451119	7
5	1048	2366.281985552846	7
5	1052	2373.747731366652	7
5	1053	2377.492946112386	6
5	1054	2381.38776262035	5
5	1055	2381.79743677986	4
5	1056	2383.368453076145	3
5	1058	2387.576979513526	3
5	1060	2390.451084274226	4
5	1064	2399.15644253749	5
5	1066	2402.913830961558	6
5	1072	2424.26213546139	7
5	1073	2425.441452612003	7
5	1074	2433.852976151716	6
5	1078	2441.139659287311	5
5	1079	2456.525271002441	4
5	1080	2456.828638139649	3
5	1082	2457.905839991901	3
5	1083	2460.307526035708	3
5	1087	2468.161644697231	2
5	1089	2469.699669328347	2
5	1090	2472.551250029889	2
5	1094	2478.578283432714	2
5	1099	2491.497376120721	3
5	1101	2492.765671312812	3
5	1102	2493.180501438764	2
5	1103	2494.314971604974	1
5	1104	2494.435454008357	0
6	166	354.727235154679	20.595186271266
6	169	358.393374420728	19.668844164763
6	173	375.76460528249	19.165198392138
6	174	381.529903688933	16.471561497876
6	190	407.947633732972	4.788684969487
6	194	424.616063230873	19.882732355523
6	197	430.210658529835	11.063748428124
6	198	431.535297831142	6.460897951588
6	207	460.72800389662	15.244681857949
6	215	493.614546877644	9.679006147555
6	228	532.887327746636	35.771178559415
6	236	551.547820805776	29.002772029365
6	237	553.804052540264	25.069709167586
6	238	554.388411975013	18.304424390437
6	273	645.388640433076	81.521159597115
6	280	657.404423295531	80.784665437334
6	283	661.946990474217	80.472067303966
6	290	675.447325689501	88.613249087812
6	291	686.049033001054	90.491744448944
6	292	686.582310172601	89.477724815491
6	302	708.126898253956	89.162867349311
6	308	711.887488410038	78.130351688384
6	309	713.800873700929	65.830090178338
6	310	714.917625434679	59.568568994529
6	311	715.284049143658	58.815531097182
6	364	792.896694330815	121.58276854022
6	379	822.693161701855	134.43465483344
6	382	825.486079410178	131.07892848217
6	385	832.168205176778	130.55679646213
6	474	1019.641648220248	311.16060150814
6	475	1022.825654096616	312.68293624277
6	484	1043.811182279895	323.812337097
6	485	1050.874721825409	330.68619095051
6	486	1052.926534724247	328.82029574258
6	487	1055.201071570679	321.48102319835
6	488	1056.120818796821	320.77940553003
6	494	1074.808109836611	327.48231047732
6	495	1085.605372210603	328.68409307763
6	496	1088.797043137336	326.99019351129
6	502	1102.299188850762	311.71318901194
6	505	1106.029380298043	311.46825892603
6	506	1106.237993098415	292.36285951745
6	509	1114.559223762556	289.23270063459
6	512	1120.428699052114	289.12471515596
6	517	1147.412563062235	311.65339421557
6	518	1162.445384324442	326.30524687515
6	519	1168.929471464516	323.67535678288
6	520	1177.203374031373	326.20393528233
6	521	1179.33054009561	305.06759072962
6	522	1181.305265573979	295.08123821342
6	525	1184.850265990214	297.5806263719
6	533	1202.211202918901	279.31827355138
6	534	1202.864911397451	268.98285735442
6	535	1203.322079255802	258.8516838979
6	558	1231.272683737082	273.82205326213
6	566	1239.818690581306	275.57195275932
6	571	1241.904252490387	276.27722778411
6	574	1255.925459289893	276.40800768571
6	575	1257.961630617393	274.65455937038
6	576	1258.725157809294	266.05747096457
6	577	1259.560927245079	262.37221979811
6	580	1264.025036520441	262.90520350043
6	581	1264.142378250775	254.57826729549
6	582	1264.666342847112	254.71040032769
6	587	1271.481154373859	255.75196874637
6	591	1282.065915826188	250.27868367025
6	592	1282.104522342111	240.53298544898
6	595	1284.625411118688	224.06572788851
6	596	1286.052123279878	215.71925913897
6	599	1287.020174449228	194.89807684979
6	600	1301.497814797928	199.23548423648
6	601	1303.349587647975	200.01090600497
6	602	1305.480473834404	191.56352805787
6	603	1309.539077525629	193.27911656134
6	604	1314.80711262745	188.46695920896
6	605	1315.136147189797	187.03685831705
6	608	1320.143195587057	138.44290321188
6	611	1328.330301858252	142.32381090946
6	614	1333.451854116156	141.16413459004
6	615	1339.162402867463	138.15552480509
6	619	1347.740677866227	143.81299447118
6	631	1369.278374883256	153.72062890747
6	644	1396.274314150998	171.47598807439
6	645	1397.850420332472	163.28345351516
6	646	1398.498166514573	162.1999251358
6	647	1407.335766794459	170.54591963812
6	648	1411.91008791214	171.48683423414
6	649	1415.117274112445	173.52446633652
6	655	1428.993360640859	165.48814787811
6	656	1433.069531583007	165.74876038651
6	657	1436.277980290325	167.47008640131
6	658	1447.643886228211	172.60516542391
6	659	1452.310896801215	168.43664957947
6	660	1452.618362630513	166.5553094437
6	661	1461.319779736741	145.38482763141
6	664	1465.925664702878	145.39057302014
6	665	1466.204100821552	134.80631533003
6	666	1467.063995655757	125.23202368929
6	667	1473.604194504864	125.00309243618
6	668	1474.508895477543	125.77114762455
6	669	1478.849162097278	129.08996542904
6	672	1489.325099247443	133.24547201397
6	677	1498.758055460255	139.24783945045
6	678	1499.908098435864	129.96519302939
6	679	1517.266584909404	139.55817970675
6	680	1517.448111579683	128.54156271949
6	696	1549.887657226469	124.23487688975
6	711	1568.542571982756	78.022898078308
6	719	1591.287910154723	72.37464512249
6	720	1601.750590434614	66.902641688864
6	744	1644.382559339787	93.260253557305
6	750	1659.710729705392	102.12787916084
6	751	1662.75249664712	98.187738143115
6	762	1684.682562190313	119.51613941426
6	766	1697.204852199392	126.20964553467
6	775	1712.95057450019	138.63126542583
6	776	1713.733748510049	111.8664413909
6	777	1716.423304882731	103.18829457992
6	780	1728.628112710145	115.28026880981
6	783	1731.192222729482	116.67664477356
6	784	1736.270132640797	117.30036006568
6	785	1745.807385806357	123.73047423788
6	795	1759.738735301673	130.7007389891
6	798	1767.506454266658	137.20457158984
6	799	1768.316665729141	126.34604778683
6	803	1785.286796347346	133.23771031079
6	804	1788.012552037344	123.34715070089
6	809	1795.04361103285	128.00361163191
6	813	1799.429681073809	113.01504060855
6	814	1805.690155551623	108.26219456226
6	815	1814.030582951874	115.93964794769
6	816	1816.65175191878	116.11686243378
6	819	1819.226288841326	106.89950408567
6	824	1827.870362754192	107.21514283787
6	831	1851.240500098107	103.35534633835
6	834	1853.885795345585	104.83719488449
6	841	1867.459420715833	115.32667185376
6	844	1875.84448328121	116.59925504697
6	845	1879.19713762458	112.54431988587
6	846	1880.508253258884	100.61349753426
6	859	1911.421015113014	115.81187828837
6	860	1911.491441995324	93.593252523073
6	863	1918.02534174439	91.548195861397
6	864	1922.161576460337	94.816725753948
6	865	1922.65541305052	93.391215042189
6	866	1928.48775165062	74.650341657467
6	867	1928.947690407129	71.856876258686
6	868	1929.678974220028	68.752557930599
6	890	1969.271434215624	97.242551318646
6	894	1973.206938004146	82.70477859715
6	895	1976.793001537905	84.877534995301
6	922	2016.420696774941	114.08742369054
6	923	2021.602738564588	106.6701273791
6	942	2070.304253308946	133.54227573833
6	943	2073.170564772577	133.33340996433
6	946	2074.793760393227	132.93310119931
6	951	2083.429907945787	136.4972475193
6	959	2106.723080382753	142.91115553866
6	962	2111.838463425007	147.82341399296
6	963	2113.990185868712	148.17261391682
6	964	2114.473863984442	142.53126760708
6	965	2114.49111069673	131.0161280207
6	966	2116.451797377759	130.03133543528
6	969	2125.341738015761	137.24944637929
6	970	2131.102330415601	142.96297337421
6	971	2132.098160816663	142.37538871296
6	972	2134.471055541801	133.42194201838
6	973	2139.656575358361	130.17663151345
6	976	2144.149271819506	131.52211136605
6	977	2144.203564696187	119.41131770837
6	980	2153.02146792879	123.16960278938
6	981	2156.687403624949	121.15702941918
6	986	2169.713697760747	131.63387203542
6	987	2177.121166645319	135.63787353764
6	988	2179.77334770682	105.538622822
6	989	2183.589876127677	103.67610970805
6	995	2210.444088416372	118.38776729925
6	998	2219.122713556893	122.23849331924
6	999	2224.981508149663	119.51335823372
6	1002	2228.76133338081	118.24974539899
6	1003	2228.857019776521	109.37952308684
6	1004	2230.737079307692	88.622246859406
6	1009	2246.644595337368	96.037554773438
6	1015	2273.298806699811	109.98097890678
6	1016	2278.107544783887	92.574648006117
6	1017	2282.159299596046	88.270375377541
6	1026	2317.697317989238	101.64160464262
6	1027	2318.133267941856	90.681474959914
6	1028	2319.268188665392	85.890155408928
6	1037	2339.561553171299	81.485127172968
6	1040	2347.708140428374	51.201648597606
6	1045	2363.890398287266	55.361520784033
6	1046	2365.169231451119	55.405087474265
6	1052	2373.747731366652	52.666991226917
6	1053	2377.492946112386	49.630415217148
6	1054	2381.38776262035	46.323224461307
6	1055	2381.79743677986	37.125683839163
6	1056	2383.368453076145	33.389475169283
6	1073	2425.441452612003	58.162304447784
6	1074	2433.852976151716	46.27599663819
6	1078	2441.139659287311	49.644453804573
6	1079	2456.525271002441	57.368828464951
6	1080	2456.828638139649	53.914807178091
6	1083	2460.307526035708	50.3954429949
6	1087	2468.161644697231	33.729146508286
6	1090	2472.551250029889	14.645410037988
6	1101	2492.765671312812	23.066001984465
6	1102	2493.180501438764	16.670157300623
6	1103	2494.314971604974	15.73668817226
6	1104	2494.435454008357	2.938077887636
7	168	356.599406890352	3
7	178	388.101106177111	1
7	183	403.158948763485	2
7	186	404.671257300135	3
7	196	425.074399879554	2
7	205	445.483322038671	1
7	212	483.935540730089	1
7	214	490.35263245687	2
7	222	506.405028027485	2
7	224	522.545048776411	3
7	226	528.734343372678	4
7	230	536.083987584576	4
7	235	551.249347324478	5
7	242	562.60873674158	3
7	244	563.867480835961	4
7	249	576.619757858197	5
7	254	586.834076601689	6
7	256	595.55728855211	7
7	258	597.10458535711	8
7	260	604.812931941783	9
7	272	633.757136721654	10
7	275	647.970783522591	10
7	277	655.34905644015	11
7	279	656.468518046476	12
7	282	661.824175248755	12
7	285	668.241122269066	12
7	287	671.313925790591	13
7	289	673.375958610896	14
7	294	688.258506868413	12
7	298	701.611408714652	13
7	301	707.702232946483	14
7	306	710.142717853848	14
7	317	718.54606490997	11
7	320	719.998845182892	12
7	322	720.188530874903	13
7	326	724.10623898167	14
7	329	733.720048372328	15
7	333	735.341413266788	16
7	343	744.811380038538	17
7	348	747.325799359286	18
7	352	756.921279132968	19
7	356	761.806849626048	20
7	362	790.585999838825	21
7	375	813.875133580967	21
7	381	825.326523127968	21
7	384	831.303983896152	21
7	387	835.759168846664	21
7	393	845.254114681631	22
7	395	850.999438749043	23
7	406	874.262949365986	24
7	410	886.224027360557	25
7	412	887.269639618309	26
7	414	887.890792522973	27
7	424	922.892929367519	28
7	428	933.882054043028	29
7	432	944.470395357904	30
7	438	955.576369814776	31
7	440	957.450630474955	32
7	442	959.812697535782	33
7	444	964.246737821988	34
7	448	965.627024706273	35
7	451	979.517451604183	36
7	453	983.30707124701	37
7	456	992.667686844724	38
7	460	997.18870744697	39
7	462	1001.119833020011	40
7	465	1009.564110955288	41
7	467	1009.955942519419	42
7	472	1015.729185627484	43
7	477	1025.78789567915	42
7	493	1070.332864140911	38
7	501	1102.262330561447	36
7	504	1103.338681643008	36
7	508	1113.91694577653	35
7	511	1116.259960964286	35
7	514	1126.340153418487	35
7	516	1128.099288872743	36
7	524	1181.700292375175	31
7	529	1192.287719526116	31
7	532	1201.006878062373	32
7	539	1203.927683395045	30
7	543	1209.278330165878	31
7	550	1215.55774597579	32
7	552	1221.995555991815	33
7	555	1224.798326076605	34
7	560	1234.566966817312	34
7	562	1236.298241378774	35
7	568	1240.423253677999	35
7	570	1241.592807775924	36
7	573	1252.824490791257	36
7	579	1263.505212762752	33
7	584	1267.320771196494	31
7	586	1268.807893889015	32
7	594	1283.87424722174	30
7	598	1286.063053186813	29
7	607	1315.934952105333	23
7	610	1320.535091682736	23
7	613	1331.397785491519	23
7	621	1348.601102068685	21
7	623	1348.737747852994	22
7	625	1349.759196668243	23
7	629	1359.510216009806	24
7	638	1377.70840520265	24
7	640	1388.906548860189	25
7	643	1389.916896613279	26
7	654	1425.652780336723	21
7	663	1463.143094932568	15
7	671	1484.19630794049	10
7	674	1490.519673904448	10
7	676	1497.64550983778	11
7	690	1535.26478268282	8
7	692	1535.838051947058	9
7	695	1545.122836916072	10
7	698	1551.122305782482	10
7	705	1564.564758504005	11
7	707	1564.766659785467	12
7	709	1565.16642277605	13
7	715	1570.99520666472	13
7	717	1574.319309074357	14
7	725	1613.23501030281	13
7	729	1614.515577955922	14
7	731	1618.96977257512	15
7	736	1622.481533468933	16
7	738	1629.037996312569	17
7	740	1630.301882676822	18
7	743	1641.970617942308	19
7	746	1645.797627430926	19
7	755	1667.039999400943	18
7	757	1672.388843158512	19
7	768	1697.427960989364	18
7	770	1698.090935004186	19
7	772	1700.534889485004	20
7	774	1712.326784755656	21
7	779	1720.655219916318	19
7	782	1729.016195236021	19
7	789	1749.048600461093	17
7	791	1752.132748862071	18
7	794	1759.245228234243	19
7	797	1766.652817738713	19
7	806	1791.508641308481	16
7	808	1792.495144392664	17
7	818	1817.898189472251	13
7	821	1826.477145882993	13
7	823	1827.344850706389	14
7	833	1853.837409993153	13
7	836	1857.090814148443	13
7	838	1860.926416289429	14
7	840	1861.02042379607	15
7	843	1872.028882896978	15
7	850	1890.502159406996	13
7	853	1891.915466542604	14
7	857	1902.333273084399	15
7	862	1914.932611185489	14
7	870	1933.34543590036	9
7	874	1936.761977570621	10
7	876	1939.837154808245	11
7	878	1941.860659193917	12
7	880	1946.932660426483	13
7	883	1955.763950846076	14
7	885	1963.81192484409	15
7	887	1964.015049432046	16
7	889	1965.817571951894	17
7	897	1983.474982676025	15
7	901	1988.09229163647	16
7	903	1988.139357041393	17
7	905	1989.722772103698	18
7	910	2001.049113523423	19
7	917	2009.479943844907	20
7	920	2012.627160453453	21
7	925	2024.792246987819	20
7	932	2038.079825725322	21
7	934	2041.483293107674	22
7	945	2074.234724884822	21
7	948	2079.913766419625	21
7	950	2082.773976144706	22
7	955	2096.88422023765	22
7	958	2105.46814991594	23
7	961	2110.511587981818	23
7	968	2119.477496689677	19
7	975	2142.114832448286	15
7	979	2150.60704056393	14
7	983	2160.793627864118	13
7	985	2163.317827793029	14
7	991	2185.53289677777	11
7	997	2216.055713346613	11
7	1001	2227.451792981942	10
7	1006	2233.378033256464	8
7	1008	2239.341827199759	9
7	1013	2258.076425998331	9
7	1019	2296.506491830768	7
7	1021	2308.528877503233	8
7	1023	2309.764143976854	9
7	1025	2313.294345309596	10
7	1032	2327.862530895238	8
7	1039	2344.671752940697	8
7	1042	2349.978977906862	8
7	1044	2355.029165384409	9
7	1048	2366.281985552846	8
7	1058	2387.576979513526	4
7	1060	2390.451084274226	5
7	1064	2399.15644253749	6
7	1066	2402.913830961558	7
7	1072	2424.26213546139	8
7	1082	2457.905839991901	4
7	1089	2469.699669328347	3
7	1094	2478.578283432714	3
7	1099	2491.497376120721	4
8	171	365.058342191057	1
8	176	388.037052425803	1
8	180	390.927857908176	2
8	188	404.73333087535	1
8	192	419.146910101711	1
8	200	436.823234710174	1
8	202	440.900837049397	2
8	209	466.342603331937	1
8	217	497.116149187221	1
8	219	503.09769978815	2
8	232	541.577288411556	1
8	240	557.379584999622	1
8	246	571.013320665705	2
8	252	581.474923170251	1
8	263	618.964030904645	1
8	266	622.85963881137	1
8	268	624.51956532149	2
8	296	694.407150928009	1
8	304	708.481046712107	1
8	313	715.529536791828	1
8	315	716.879841144914	2
8	324	723.6697040014	2
8	331	734.846307524025	2
8	335	737.31664614593	3
8	338	739.346914019748	3
8	340	743.358100075954	4
8	345	746.078159748484	4
8	354	759.713988500873	2
8	360	777.877727033664	1
8	366	794.561121372008	1
8	368	799.685099640979	2
8	370	804.701437837468	3
8	372	806.963595367265	4
8	389	836.140137449287	1
8	391	841.117217619398	2
8	398	858.339450889291	2
8	401	866.949764860109	2
8	403	870.623974825057	3
8	408	883.238222931355	3
8	416	892.398818790866	4
8	418	896.905318042219	5
8	422	909.552892526914	4
8	426	930.008526162325	5
8	435	951.250248410845	3
8	446	964.447198103986	3
8	458	995.956600520193	2
8	469	1010.030117456946	2
8	479	1031.787232155939	1
8	482	1041.57153689313	1
8	490	1060.559683230173	1
8	498	1092.122097599442	1
8	527	1186.006490948789	1
8	537	1203.356701488495	1
8	541	1205.901663236199	2
8	545	1209.443534644607	3
8	548	1212.660171838827	3
8	564	1236.78984715634	1
8	589	1275.038720804297	1
8	617	1341.831971966471	1
8	627	1356.079627233473	1
8	633	1369.942905406479	1
8	635	1374.84225275845	2
8	651	1418.900678856088	1
8	682	1518.913265032233	1
8	684	1527.272532464144	2
8	688	1534.84794874575	1
8	700	1551.594958035781	1
8	703	1557.582850544547	1
8	713	1568.739307218153	1
8	722	1601.86730711915	1
8	727	1613.347843900331	1
8	734	1622.076911568479	1
8	748	1652.049086036555	1
8	753	1664.665401336451	1
8	759	1680.005761790246	2
8	764	1686.414640465257	1
8	787	1747.885153759755	1
8	801	1779.894755724619	1
8	811	1795.609136824645	1
8	826	1829.264198008331	1
8	828	1830.977423873753	2
8	848	1890.142463571974	1
8	855	1899.267394109141	1
8	872	1933.886473698141	1
8	892	1971.942596377363	1
8	899	1986.420461942477	1
8	907	1996.847244160215	2
8	912	2001.842081440919	2
8	914	2002.393665442616	3
8	927	2029.851865139414	1
8	930	2035.530374205771	1
8	936	2046.826782324502	2
8	939	2048.216878838541	2
8	953	2092.056321117119	1
8	993	2193.888924218505	1
8	1011	2250.55891489116	1
8	1030	2321.080740139735	1
8	1035	2335.064538159043	1
8	1050	2367.279148164219	1
8	1062	2391.495205482738	1
8	1069	2409.912083040808	1
8	1076	2434.432498188945	1
8	1085	2463.3924778558	1
8	1092	2476.510344138141	1
8	1096	2480.218280446483	2
9	171	365.058342191057	14
9	188	404.73333087535	15
9	192	419.146910101711	16
9	217	497.116149187221	17
9	232	541.577288411556	18
9	240	557.379584999622	19
9	252	581.474923170251	20
9	263	618.964030904645	21
9	266	622.85963881137	22
9	296	694.407150928009	23
9	304	708.481046712107	24
9	313	715.529536791828	25
9	360	777.877727033664	26
9	366	794.561121372008	27
9	389	836.140137449287	28
9	479	1031.787232155939	29
9	482	1041.57153689313	30
9	490	1060.559683230173	31
9	498	1092.122097599442	32
9	527	1186.006490948789	33
9	537	1203.356701488495	34
9	564	1236.78984715634	35
9	589	1275.038720804297	36
9	617	1341.831971966471	37
9	627	1356.079627233473	38
9	633	1369.942905406479	39
9	651	1418.900678856088	40
9	682	1518.913265032233	41
9	688	1534.84794874575	42
9	700	1551.594958035781	43
9	703	1557.582850544547	44
9	713	1568.739307218153	45
9	722	1601.86730711915	46
9	727	1613.347843900331	47
9	734	1622.076911568479	48
9	748	1652.049086036555	49
9	753	1664.665401336451	50
9	764	1686.414640465257	51
9	787	1747.885153759755	52
9	801	1779.894755724619	53
9	811	1795.609136824645	54
9	826	1829.264198008331	55
9	848	1890.142463571974	56
9	855	1899.267394109141	57
9	872	1933.886473698141	58
9	892	1971.942596377363	59
9	899	1986.420461942477	60
9	927	2029.851865139414	61
9	930	2035.530374205771	62
9	953	2092.056321117119	63
9	993	2193.888924218505	64
9	1011	2250.55891489116	65
9	1030	2321.080740139735	66
9	1035	2335.064538159043	67
9	1050	2367.279148164219	68
9	1062	2391.495205482738	69
9	1069	2409.912083040808	70
9	1076	2434.432498188945	71
9	1085	2463.3924778558	72
9	1092	2476.510344138141	73
10	171	365.058342191057	0
10	176	388.037052425803	0
10	181	393.771456829777	2.843598921601
10	188	404.73333087535	0
10	192	419.146910101711	0
10	200	436.823234710174	0
10	203	440.972918690383	0.072081640986
10	209	466.342603331937	0
10	217	497.116149187221	0
10	220	505.606344349681	2.508644561531
10	232	541.577288411556	0
10	240	557.379584999622	0
10	247	571.170663270383	0.157342604678
10	252	581.474923170251	0
10	263	618.964030904645	0
10	266	622.85963881137	0
10	269	627.749932795236	3.230367473746
10	296	694.407150928009	0
10	304	708.481046712107	0
10	313	715.529536791828	0
10	318	719.004666137938	2.124824993024
10	327	730.227556513346	6.557852511946
10	336	738.619741986181	3.773434462156
10	341	744.135717890875	6.819071744945
10	346	747.189715511359	7.842801491611
10	349	748.8107142107	5.452614134746
10	350	754.570089646285	8.491929897801
10	357	762.043613833718	2.329625332845
10	360	777.877727033664	0
10	366	794.561121372008	0
10	373	810.724352288256	11.039252647277
10	376	814.199521414979	9.498083577511
10	377	817.029070631487	10.065475264222
10	389	836.140137449287	0
10	396	857.377720902472	16.260503283074
10	399	862.041993206827	3.702542317536
10	404	874.081778993476	7.132014133367
10	419	900.253184715392	29.629209890335
10	420	900.451069210646	17.212846279291
10	429	935.881423366875	43.482604576009
10	430	937.344305354141	40.438987311922
10	433	947.945470372119	38.392577845205
10	436	951.683685096502	21.675158934177
10	449	973.831372137126	22.581123726281
10	454	989.554928886954	25.107730782968
10	463	1007.312198477496	11.355597957303
10	470	1012.14907879455	2.118961337604
10	479	1031.787232155939	0
10	482	1041.57153689313	0
10	490	1060.559683230173	0
10	498	1092.122097599442	0
10	527	1186.006490948789	0
10	537	1203.356701488495	0
10	546	1211.109510878444	5.207847642245
10	553	1222.98685030184	13.543315657233
10	556	1227.249833170067	14.58966133124
10	564	1236.78984715634	0
10	589	1275.038720804297	0
10	617	1341.831971966471	0
10	627	1356.079627233473	0
10	633	1369.942905406479	0
10	636	1375.955272360179	1.113019601729
10	651	1418.900678856088	0
10	682	1518.913265032233	0
10	685	1527.84938342349	0.576850959346
10	688	1534.84794874575	0
10	700	1551.594958035781	0
10	703	1557.582850544547	0
10	713	1568.739307218153	0
10	722	1601.86730711915	0
10	727	1613.347843900331	0
10	734	1622.076911568479	0
10	748	1652.049086036555	0
10	753	1664.665401336451	0
10	760	1680.503934816039	0.498173025793
10	764	1686.414640465257	0
10	787	1747.885153759755	0
10	801	1779.894755724619	0
10	811	1795.609136824645	0
10	826	1829.264198008331	0
10	829	1842.844729603917	11.867305730164
10	848	1890.142463571974	0
10	855	1899.267394109141	0
10	872	1933.886473698141	0
10	892	1971.942596377363	0
10	899	1986.420461942477	0
10	908	1997.627756687781	0.780512527566
10	915	2003.90578994216	2.063708501241
10	918	2009.51469347715	7.121028034534
10	927	2029.851865139414	0
10	930	2035.530374205771	0
10	937	2047.214698250276	0.387915925774
10	940	2054.110424167487	5.893545328946
10	953	2092.056321117119	0
10	993	2193.888924218505	0
10	1011	2250.55891489116	0
10	1030	2321.080740139735	0
10	1035	2335.064538159043	0
10	1050	2367.279148164219	0
10	1062	2391.495205482738	0
10	1069	2409.912083040808	0
10	1076	2434.432498188945	0
10	1085	2463.3924778558	0
10	1092	2476.510344138141	0
10	1097	2483.889837988739	3.671557542256
11	1105	2500	0.0964
12	1105	2500	0.0508

