file 61199 1678560304                                           
version 2
run experiments_hard_game_mode1-1543-20230311-19:45:04-12790
attr configname experiments_hard_game_mode1
attr datetime 20230311-19:45:04
attr experiment experiments_hard_game_mode1
attr inifile omnetpp.ini
attr iterationvars "$0=10, $1=3, $2=100"
attr iterationvarsf 10,3,100-
attr measurement "$0=10, $1=3, $2=100"
attr network Network
attr processid 12790
attr repetition 13
attr replication #13
attr resultdir results
attr runnumber 1543
attr seedset 13
param *.boss.arrival_mean 20
param *.boss.service_mean 10
param *.minion.arrival_mean 10
param *.minion.service_mean 3
param *.player.recover_rate_x 100
param **.minion.arrival_distribution 0
param **.minion.service_distribution 0
param **.boss.arrival_distribution 0
param **.boss.service_distribution 0

vector 0 Network.player boss_jobs_number_stat:vector ETV
attr source signal_boss_jobs_number
vector 1 Network.player boss_jobs_queue_number_stat:vector ETV
attr source signal_boss_jobs_queue_number
vector 2 Network.player boss_defeated_stat:vector ETV
attr source signal_boss_defeated
vector 3 Network.player boss_response_time_stat:vector ETV
attr source signal_boss_response_time
vector 4 Network.player boss_waiting_time_stat:vector ETV
attr source signal_boss_waiting_time
vector 5 Network.player minion_jobs_number_stat:vector ETV
attr source signal_minion_jobs_number
vector 6 Network.player minion_jobs_queue_number_stat:vector ETV
attr source signal_minion_jobs_queue_number
vector 7 Network.player minion_waiting_time_stat:vector ETV
attr source signal_minion_waiting_time
vector 8 Network.player minion_defeated_stat:vector ETV
attr source signal_minion_defeated
vector 9 Network.player minion_response_time_stat:vector ETV
attr source signal_minion_response_time
vector 10 Network.player minion_recovered_stat:vector ETV
attr source signal_minion_recovered
vector 11 Network.player minion_throughput:vector ETV
attr source signal_minion_throughput
vector 12 Network.player boss_throughput:vector ETV
attr source signal_boss_throughput
0	2019 2654 160 1118 350.881313172297 2490.461691942782 103 1 5 185 439
1	4673 5297 160 1121 350.881313172297 2499.17098673709 206 0 4 164 344
2	9970 2767 161 1121 353.400641430858 2499.17098673709 103 18 120 7107 581435
3	12737 4030 161 1121 353.400641430858 2499.17098673709 103 0.19855744152 63.252109921047 1693.8427749258 45644.299799434
4	16767 3311 161 1121 353.400641430858 2499.17098673709 103 0 41.624058056461 693.2566414982 15040.070972152
5	20078 5642 163 1120 354.220807892071 2494.009934103584 219 1 13 818 5038
6	25720 11199 163 1120 354.220807892071 2494.009934103584 435 0 12 1189 7213
7	36919 8958 190 1103 398.343106074126 2445.627055548079 248 0 111.42656080217 5814.2318834141 331098.30220591
8	45877 5923 195 1101 409.822578989584 2444.540789624909 216 34 249 30564 5164596
9	51800 8471 195 1101 409.822578989584 2444.540789624909 216 0.186965937073 113.75785672042 5819.1248936603 334298.1489763
10	60271 888 210 1107 429.073456309595 2452.701691149425 32 9 40 784 21936
11	61159 20 1122 1122 2500 2500 1 0.0996 0.0996 0.0996 0.00992016
12	61179 19 1122 1122 2500 2500 1 0.048 0.048 0.048 0.002304

