version 2
run experiments_hard_game_mode1-921-20230311-19:42:37-9455
attr configname experiments_hard_game_mode1
attr datetime 20230311-19:42:37
attr experiment experiments_hard_game_mode1
attr inifile omnetpp.ini
attr iterationvars "$0=9, $1=3, $2=0"
attr iterationvarsf 9,3,0-
attr measurement "$0=9, $1=3, $2=0"
attr network Network
attr processid 9455
attr repetition 21
attr replication #21
attr resultdir results
attr runnumber 921
attr seedset 21
param *.boss.arrival_mean 20
param *.boss.service_mean 9
param *.minion.arrival_mean 10
param *.minion.service_mean 3
param *.player.recover_rate_x 0
param **.minion.arrival_distribution 0
param **.minion.service_distribution 0
param **.boss.arrival_distribution 0
param **.boss.service_distribution 0

vector 0 Network.player boss_defeated_stat:vector ETV
attr source signal_boss_defeated
vector 1 Network.player boss_jobs_queue_number_stat:vector ETV
attr source signal_boss_jobs_queue_number
vector 2 Network.player boss_response_time_stat:vector ETV
attr source signal_boss_response_time
vector 3 Network.player minion_waiting_time_stat:vector ETV
attr source signal_minion_waiting_time
vector 4 Network.player minion_defeated_stat:vector ETV
attr source signal_minion_defeated
vector 5 Network.player minion_jobs_queue_number_stat:vector ETV
attr source signal_minion_jobs_queue_number
vector 6 Network.player minion_response_time_stat:vector ETV
attr source signal_minion_response_time
vector 7 Network.player minion_jobs_number_stat:vector ETV
attr source signal_minion_jobs_number
vector 8 Network.player boss_jobs_number_stat:vector ETV
attr source signal_boss_jobs_number
vector 9 Network.player boss_waiting_time_stat:vector ETV
attr source signal_boss_waiting_time
vector 10 Network.player minion_recovered_stat:vector ETV
attr source signal_minion_recovered
vector 11 Network.player minion_throughput:vector ETV
attr source signal_minion_throughput
vector 12 Network.player boss_throughput:vector ETV
attr source signal_boss_throughput
0	151	352.639959751195	15
0	186	449.496621191008	16
0	195	499.812586326188	17
0	203	510.410010819501	18
0	209	527.135634617493	19
0	214	530.054421782724	20
0	217	539.947163588068	21
0	234	582.614254441361	22
0	240	621.213633956601	23
0	243	634.240077492064	24
0	252	661.776804094457	25
0	258	678.917684893145	26
0	273	711.1306876415	27
0	287	730.337224505595	28
0	313	766.733929982804	29
0	316	768.893400043493	30
0	327	781.809391289378	31
0	330	790.009389728158	32
0	333	792.80162302782	33
0	346	804.873881054077	34
0	347	807.670540193237	35
0	348	811.052502013931	36
0	355	844.648726978186	37
0	356	846.870529115777	38
0	368	872.812351231703	39
0	398	905.961563874833	40
0	403	910.851857101957	41
0	408	920.854894481265	42
0	425	934.721925959063	43
0	428	939.434279245036	44
0	452	976.706833610406	45
0	474	1028.689574541131	46
0	481	1033.227856415274	47
0	493	1071.478200514551	48
0	505	1097.434692986436	49
0	506	1098.887412422768	50
0	511	1104.719720350576	51
0	530	1135.164466305477	52
0	533	1137.283920985296	53
0	546	1169.401561082242	54
0	566	1221.128062872054	55
0	567	1223.141785880922	56
0	568	1226.884852808112	57
0	589	1296.715974128971	58
0	590	1300.273949138326	59
0	594	1308.63380718454	60
0	599	1321.292441172663	61
0	600	1321.420792082529	62
0	606	1341.251738799383	63
0	613	1350.795667867476	64
0	617	1354.888956439914	65
0	639	1410.317810834177	66
0	660	1437.737610161415	67
0	669	1457.624192258209	68
0	670	1470.12619286599	69
0	673	1477.626372384345	70
0	674	1479.943098605948	71
0	675	1481.581133268254	72
0	734	1581.187256970261	73
0	738	1600.064911097924	74
0	749	1641.056981568671	75
0	755	1657.257555882875	76
0	767	1686.449858042993	77
0	797	1750.009713761868	78
0	804	1776.460904830675	79
0	807	1779.345331077513	80
0	808	1792.24069214557	81
0	839	1855.894970104155	82
0	847	1866.83802322629	83
0	848	1871.559233908419	84
0	874	1925.963998585381	85
0	879	1933.00925414723	86
0	885	1942.531809277835	87
0	893	1958.571734750686	88
0	911	1984.495647383831	89
0	914	1996.194528862775	90
0	923	2005.613426363829	91
0	932	2036.415834008379	92
0	933	2047.25012121943	93
0	938	2055.535211073911	94
0	952	2080.683318268441	95
0	953	2084.401626648186	96
0	973	2129.114134762623	97
0	974	2130.16306393526	98
0	994	2167.53700151335	99
0	997	2174.478655109159	100
0	1002	2198.91845019167	101
0	1023	2251.837334802272	102
0	1026	2260.454043487448	103
0	1029	2275.01029983319	104
0	1044	2307.677191987711	105
0	1073	2414.347740157618	106
0	1082	2434.329446261122	107
0	1083	2439.429502741714	108
0	1088	2456.336294181918	109
1	151	352.639959751195	0
1	185	437.655607876823	0
1	186	449.496621191008	0
1	188	476.417763818169	0
1	195	499.812586326188	0
1	200	505.157294903869	0
1	203	510.410010819501	0
1	206	518.497244516544	0
1	208	524.0058841167	1
1	209	527.135634617493	1
1	213	529.768904742497	1
1	214	530.054421782724	1
1	217	539.947163588068	0
1	233	580.600471402607	0
1	234	582.614254441361	0
1	239	617.556769837513	0
1	240	621.213633956601	0
1	242	627.787029116695	0
1	243	634.240077492064	0
1	251	659.958738792625	0
1	252	661.776804094457	0
1	257	677.472481062608	0
1	258	678.917684893145	0
1	270	707.079421658916	0
1	273	711.1306876415	0
1	284	727.849037380949	0
1	287	730.337224505595	0
1	310	762.10861487089	0
1	312	766.064582611732	1
1	313	766.733929982804	1
1	315	767.243145531648	1
1	316	768.893400043493	1
1	318	772.710391185803	1
1	322	780.04016885003	2
1	324	781.156737009427	3
1	327	781.809391289378	3
1	329	785.089428818756	3
1	330	790.009389728158	3
1	332	791.300089263771	3
1	333	792.80162302782	3
1	343	801.447574365974	3
1	346	804.873881054077	3
1	347	807.670540193237	2
1	348	811.052502013931	1
1	354	828.207746898685	1
1	355	844.648726978186	1
1	356	846.870529115777	0
1	367	872.233908686601	0
1	368	872.812351231703	0
1	389	897.458853731429	0
1	395	904.239175991417	1
1	398	905.961563874833	1
1	402	908.062744141541	1
1	403	910.851857101957	1
1	408	920.854894481265	0
1	424	930.827557754315	0
1	425	934.721925959063	0
1	427	936.983423856897	0
1	428	939.434279245036	0
1	451	975.863125736149	0
1	452	976.706833610406	0
1	473	1024.781438977254	0
1	474	1028.689574541131	0
1	478	1031.249239247124	0
1	481	1033.227856415274	0
1	488	1057.375757117136	0
1	493	1071.478200514551	0
1	496	1071.984350674741	0
1	504	1087.347407495617	1
1	505	1097.434692986436	1
1	506	1098.887412422768	0
1	510	1104.624125570428	0
1	511	1104.719720350576	0
1	527	1131.913251019904	0
1	530	1135.164466305477	0
1	532	1135.430596268884	0
1	533	1137.283920985296	0
1	541	1156.225977596079	0
1	546	1169.401561082242	0
1	551	1183.033137147023	0
1	553	1184.399680763421	1
1	563	1202.823700682684	2
1	566	1221.128062872054	2
1	567	1223.141785880922	1
1	568	1226.884852808112	0
1	584	1290.756257528264	0
1	586	1291.773124459133	1
1	589	1296.715974128971	1
1	590	1300.273949138326	0
1	593	1303.250290103507	0
1	594	1308.63380718454	0
1	596	1311.742924506421	0
1	598	1318.834994364708	1
1	599	1321.292441172663	1
1	600	1321.420792082529	0
1	605	1341.051374691128	0
1	606	1341.251738799383	0
1	608	1348.418308572707	0
1	613	1350.795667867476	0
1	616	1352.969785587635	0
1	617	1354.888956439914	0
1	626	1392.271716502791	0
1	628	1395.251755794326	1
1	639	1410.317810834177	1
1	645	1420.79883808038	1
1	655	1432.314240596926	2
1	657	1432.462336685495	3
1	660	1437.737610161415	3
1	664	1439.522554827319	3
1	668	1453.866869318157	4
1	669	1457.624192258209	4
1	670	1470.12619286599	3
1	673	1477.626372384345	2
1	674	1479.943098605948	1
1	675	1481.581133268254	0
1	731	1572.04492876378	0
1	734	1581.187256970261	0
1	737	1595.075952196652	0
1	738	1600.064911097924	0
1	748	1640.764755717333	0
1	749	1641.056981568671	0
1	754	1652.793029395307	0
1	755	1657.257555882875	0
1	764	1681.66743090527	0
1	767	1686.449858042993	0
1	782	1726.483585756461	0
1	786	1731.217903927377	1
1	792	1745.062392548567	2
1	797	1750.009713761868	2
1	801	1761.688329774283	2
1	804	1776.460904830675	2
1	807	1779.345331077513	1
1	808	1792.24069214557	0
1	830	1834.890265730179	0
1	839	1855.894970104155	0
1	842	1861.258659594882	0
1	844	1862.537144774147	1
1	847	1866.83802322629	1
1	848	1871.559233908419	0
1	869	1921.970189220149	0
1	874	1925.963998585381	0
1	876	1926.174871237724	0
1	879	1933.00925414723	0
1	884	1939.677308397534	0
1	885	1942.531809277835	0
1	890	1947.375216089019	0
1	893	1958.571734750686	0
1	908	1982.883816033365	0
1	910	1983.984816311616	1
1	911	1984.495647383831	1
1	913	1991.286837472051	1
1	914	1996.194528862775	1
1	916	1996.754152655681	1
1	922	2002.466128489888	2
1	923	2005.613426363829	2
1	932	2036.415834008379	1
1	933	2047.25012121943	0
1	937	2055.107241010381	0
1	938	2055.535211073911	0
1	947	2068.075372850136	0
1	951	2075.632832202764	1
1	952	2080.683318268441	1
1	953	2084.401626648186	0
1	962	2104.666754849128	0
1	972	2127.889419142281	1
1	973	2129.114134762623	1
1	974	2130.16306393526	0
1	989	2158.870692950259	0
1	993	2167.354006824154	1
1	994	2167.53700151335	1
1	997	2174.478655109159	0
1	1001	2188.12599603428	0
1	1002	2198.91845019167	0
1	1022	2251.243384943465	0
1	1023	2251.837334802272	0
1	1025	2258.364926004097	0
1	1026	2260.454043487448	0
1	1028	2269.872364346719	0
1	1029	2275.01029983319	0
1	1043	2307.555450401146	0
1	1044	2307.677191987711	0
1	1070	2408.063543574337	0
1	1072	2409.514620667025	1
1	1073	2414.347740157618	1
1	1079	2424.407726500811	1
1	1081	2432.363775165864	2
1	1082	2434.329446261122	2
1	1083	2439.429502741714	1
1	1088	2456.336294181918	0
1	1097	2490.842751616098	0
2	151	352.639959751195	11.42951662459
2	186	449.496621191008	11.841013314185
2	195	499.812586326188	23.394822508019
2	203	510.410010819501	5.252715915632
2	209	527.135634617493	8.638390100949
2	214	530.054421782724	6.048537666024
2	217	539.947163588068	10.178258845571
2	234	582.614254441361	2.013783038754
2	240	621.213633956601	3.656864119088
2	243	634.240077492064	6.453048375369
2	252	661.776804094457	1.818065301832
2	258	678.917684893145	1.445203830537
2	273	711.1306876415	4.051265982584
2	287	730.337224505595	2.488187124646
2	313	766.733929982804	4.625315111914
2	316	768.893400043493	2.828817431761
2	327	781.809391289378	14.56624575773
2	330	790.009389728158	17.298998542355
2	333	792.80162302782	12.76145417779
2	346	804.873881054077	23.71714404465
2	347	807.670540193237	22.581111374481
2	348	811.052502013931	19.75241275016
2	355	844.648726978186	43.201152612212
2	356	846.870529115777	18.662782217092
2	368	872.812351231703	0.578442545102
2	398	905.961563874833	8.502710143404
2	403	910.851857101957	6.61268111054
2	408	920.854894481265	12.792150339724
2	425	934.721925959063	3.894368204748
2	428	939.434279245036	2.450855388139
2	452	976.706833610406	0.843707874257
2	474	1028.689574541131	3.908135563877
2	481	1033.227856415274	1.97861716815
2	493	1071.478200514551	14.102443397415
2	505	1097.434692986436	25.450342311695
2	506	1098.887412422768	11.540004927151
2	511	1104.719720350576	0.095594780148
2	530	1135.164466305477	3.251215285573
2	533	1137.283920985296	1.853324716412
2	546	1169.401561082242	13.175583486163
2	566	1221.128062872054	38.094925725031
2	567	1223.141785880922	38.742105117501
2	568	1226.884852808112	24.061152125428
2	589	1296.715974128971	5.959716600707
2	590	1300.273949138326	8.500824679193
2	594	1308.63380718454	5.383517081033
2	599	1321.292441172663	9.549516666242
2	600	1321.420792082529	2.585797717821
2	606	1341.251738799383	0.200364108255
2	613	1350.795667867476	2.377359294769
2	617	1354.888956439914	1.919170852279
2	639	1410.317810834177	18.046094331386
2	660	1437.737610161415	42.485854367089
2	669	1457.624192258209	36.825354177829
2	670	1470.12619286599	37.811952269064
2	673	1477.626372384345	45.16403569885
2	674	1479.943098605948	40.420543778629
2	675	1481.581133268254	27.714263950097
2	734	1581.187256970261	9.142328206481
2	738	1600.064911097924	4.988958901272
2	749	1641.056981568671	0.292225851338
2	755	1657.257555882875	4.464526487568
2	767	1686.449858042993	4.782427137723
2	797	1750.009713761868	23.526128005407
2	804	1776.460904830675	45.243000903298
2	807	1779.345331077513	34.282938528946
2	808	1792.24069214557	30.552362371287
2	839	1855.894970104155	21.004704373976
2	847	1866.83802322629	5.579363631408
2	848	1871.559233908419	9.022089134272
2	874	1925.963998585381	3.993809365232
2	879	1933.00925414723	6.834382909506
2	885	1942.531809277835	2.854500880301
2	893	1958.571734750686	11.196518661667
2	911	1984.495647383831	1.611831350466
2	914	1996.194528862775	12.209712551159
2	923	2005.613426363829	14.326588891778
2	932	2036.415834008379	39.661681352698
2	933	2047.25012121943	44.783992729542
2	938	2055.535211073911	0.42797006353
2	952	2080.683318268441	12.607945418305
2	953	2084.401626648186	8.768794445422
2	973	2129.114134762623	24.447379913495
2	974	2130.16306393526	2.273644792979
2	994	2167.53700151335	8.666308563091
2	997	2174.478655109159	7.124648285005
2	1002	2198.91845019167	10.79245415739
2	1023	2251.837334802272	0.593949858807
2	1026	2260.454043487448	2.089117483351
2	1029	2275.01029983319	5.137935486471
2	1044	2307.677191987711	0.121741586565
2	1073	2414.347740157618	6.284196583281
2	1082	2434.329446261122	24.814825594097
2	1083	2439.429502741714	15.021776240903
2	1088	2456.336294181918	23.972519016054
3	151	352.639959751195	17.284212655559
3	152	353.558932560254	12.348489433649
3	155	363.579054885799	0
3	158	373.543285395769	0
3	161	376.152406704369	1.490492518823
3	164	379.716957088455	0
3	167	389.216009352237	0
3	170	396.071423758288	0
3	173	398.038762616448	0
3	176	420.926712749432	0
3	179	421.697435476152	0
3	182	427.106563712059	0.71797439427
3	195	499.812586326188	18.376142802216
3	196	500.951050860871	11.30228097851
3	197	501.154895366647	7.101304801974
3	203	510.410010819501	0.510278601159
3	217	539.947163588068	11.754407437908
3	218	542.05669469537	5.081220166557
3	221	547.138558063227	0
3	224	560.03261985754	0
3	227	562.385083159734	0
3	230	570.527389667603	0
3	236	608.890487285279	0
3	245	655.955770116286	0
3	248	657.445543481161	0
3	254	671.478368522561	0
3	260	679.535327752802	0
3	263	700.541593501188	0
3	266	703.644066229174	0
3	273	711.1306876415	4.790332454249
3	274	712.876889916361	5.797468257445
3	277	713.931133983809	3.855592852965
3	278	714.690877495346	1.70754212167
3	281	717.003022803627	0
3	287	730.337224505595	1.133414546198
3	292	732.575202334644	1.795130960984
3	293	734.16992096678	2.423338017706
3	296	748.936832870384	0
3	299	751.848064610048	0.390918147434
3	304	754.864699091103	1.650707009369
3	305	755.686351165579	1.189789476845
3	308	761.394955609275	0
3	356	846.870529115777	84.761914244887
3	357	847.258159599963	69.533627039391
3	358	850.221708930349	68.476994029696
3	359	851.11811055762	57.664663783906
3	360	853.700668759455	58.080051193283
3	361	853.996039705987	57.496226339378
3	362	855.937245522007	57.85535492332
3	363	858.165199985144	54.352150997066
3	364	859.782574372303	44.362754919049
3	365	865.829203022501	44.62760248956
3	368	872.812351231703	0.578442545102
3	373	876.059049813528	2.608443209359
3	374	877.691330566028	3.045235740821
3	379	880.978165216495	2.980739949876
3	380	881.723103448672	2.455119345904
3	383	887.619515064544	0
3	408	920.854894481265	31.466250367122
3	411	924.450795900726	33.780322584091
3	412	924.768108035695	27.309254304266
3	415	928.622717156589	24.937803565352
3	416	929.436863767434	25.308638008122
3	417	929.441787461772	23.886539544322
3	420	929.829329805358	22.556087258095
3	425	934.721925959063	22.746975520112
3	428	939.434279245036	21.785116978005
3	431	950.906460568159	28.581710354921
3	432	951.54962852315	24.489332124891
3	435	954.882279660754	25.24382555233
3	438	960.606984588094	30.347899985248
3	439	963.537032735595	32.70947498128
3	440	965.31578885939	28.332365002493
3	445	968.017986457688	23.814533464384
3	448	973.667624621253	19.66021239749
3	449	974.788557928901	16.003734418575
3	452	976.706833610406	11.231674410238
3	455	981.815590731933	14.728940421549
3	456	985.009976482097	12.617869538049
3	457	985.258894076801	9.395768340652
3	462	991.451396554851	11.090282923789
3	463	992.95142368306	6.583994550048
3	466	998.955009137389	10.837812770451
3	467	1000.66579524778	4.505365490166
3	470	1004.266479547776	2.74103507392
3	476	1028.831373523952	0
3	481	1033.227856415274	1.97861716815
3	482	1034.407631179795	1.27432749844
3	485	1040.913054093895	4.708871988738
3	493	1071.478200514551	4.153984088677
3	494	1071.619863035024	4.117271953118
3	506	1098.887412422768	26.903061748027
3	511	1104.719720350576	31.205296949688
3	512	1108.762379264286	23.260999416337
3	513	1111.124661077268	24.370961377361
3	514	1112.156304141384	8.934177125379
3	515	1115.590564979123	10.966439408695
3	518	1116.152725647456	0
3	521	1126.434529361977	0
3	524	1127.077114862804	0.035321296294
3	530	1135.164466305477	0.625411330596
3	533	1137.283920985296	1.853324716412
3	536	1142.211940775652	3.948458093465
3	539	1156.12305913709	0
3	546	1169.401561082242	13.175583486163
3	547	1169.580532982228	11.717986268093
3	548	1172.55947742617	10.372020350896
3	568	1226.884852808112	35.363304482817
3	569	1227.841584917	34.218212066949
3	570	1233.764976164449	39.290607687022
3	571	1235.665820637042	41.017095792739
3	572	1238.486305508398	25.2712336786
3	575	1252.704514483121	0
3	578	1261.23242101734	0
3	581	1277.893770322476	0
3	590	1300.273949138326	6.576856311956
3	602	1326.086669640338	0
3	613	1350.795667867476	1.762189487322
3	614	1351.367338687129	2.205732453444
3	617	1354.888956439914	1.919170852279
3	620	1358.298849909792	0
3	623	1361.627248330642	0
3	675	1481.581133268254	82.633891712431
3	676	1484.104814502554	82.578673700477
3	677	1485.483782183177	79.626944151388
3	678	1492.58848805977	86.704290580748
3	679	1492.83125369028	85.596226530064
3	680	1495.003689870576	83.476802483262
3	681	1497.320167531178	78.443220188409
3	682	1500.069327657944	75.39750046788
3	683	1500.427293521872	73.175575020509
3	684	1501.698159563457	72.443250979482
3	687	1504.416492584678	75.121673478582
3	688	1507.834418734392	71.45035852035
3	689	1509.405498368772	71.536397115006
3	692	1513.179073238645	71.985934561772
3	693	1515.633879871259	42.326866188096
3	696	1526.687432611291	23.004999390502
3	701	1530.073110305051	20.266032826979
3	702	1530.131713297181	13.883877191536
3	711	1539.856886574156	13.16580828531
3	712	1540.7714017043	11.068741245094
3	715	1548.505181695026	15.503043370636
3	718	1548.826698005555	12.128226776003
3	719	1549.123393491926	10.8893962885
3	722	1551.000788653852	12.55067931292
3	723	1551.423197447432	6.056839575656
3	726	1555.275408683346	6.586697768069
3	727	1556.854037166185	6.552376087568
3	728	1557.983088804921	4.698250451929
3	734	1581.187256970261	3.537270968004
3	740	1607.203150496704	0
3	743	1627.914224295672	0
3	746	1640.74915603755	0
3	749	1641.056981568671	0.292225851338
3	752	1651.521775860583	0
3	755	1657.257555882875	4.464526487568
3	758	1669.18562057105	0
3	761	1675.541657840223	0
3	767	1686.449858042993	2.387743133015
3	770	1706.362005494458	0
3	773	1708.703987353032	1.026236610335
3	776	1714.469484724958	0
3	779	1723.125223890593	0
3	808	1792.24069214557	62.220078414639
3	809	1797.200150837308	59.322229418008
3	812	1805.796189303353	66.425191337182
3	817	1814.95181355454	68.989802534111
3	818	1815.803597055086	65.921759766982
3	821	1823.857238696848	64.670375916674
3	822	1824.330991210284	54.700688901347
3	823	1824.543822874308	47.176542267253
3	824	1824.607665635996	24.378110205602
3	825	1826.33696944564	20.342899347769
3	826	1832.752438634538	22.59658058303
3	827	1833.193425083615	10.52241391418
3	839	1855.894970104155	17.936952476178
3	840	1857.638186536152	15.857935821711
3	848	1871.559233908419	20.449925294769
3	849	1876.285335449788	21.263788988533
3	850	1878.862588411605	17.603928816723
3	851	1878.871618787698	15.45580256073
3	854	1881.021825344395	0
3	857	1885.846746368614	0
3	860	1890.499301310651	0
3	863	1894.827859983567	0.094409632499
3	866	1918.63216097021	0
3	874	1925.963998585381	1.77570060451
3	879	1933.00925414723	7.690154191139
3	880	1935.912908477756	9.738037240032
3	881	1937.868653296391	8.282816402803
3	887	1945.324858033802	0
3	893	1958.571734750686	9.468778069651
3	896	1970.195359007643	0
3	899	1972.073306983018	0
3	902	1977.296437415521	0
3	905	1978.336379637879	0
3	933	2047.25012121943	46.604122449694
3	934	2048.248466280016	46.715335935962
3	935	2054.546108484472	46.551082389663
3	938	2055.535211073911	30.931834588675
3	939	2055.697442116708	30.746883801125
3	940	2057.319681956815	23.881962526998
3	941	2059.171144983358	4.063903972977
3	944	2063.221642504184	0.184779138619
3	953	2084.401626648186	11.364087179624
3	956	2098.626161585843	0
3	959	2101.652191291521	0
3	974	2130.16306393526	25.440544310919
3	977	2131.936674675963	17.636393463174
3	978	2132.890488281044	9.294617676459
3	979	2135.41705848016	8.936666774905
3	980	2136.666440530878	5.528431753701
3	983	2145.312916017673	0
3	986	2155.265748692222	0
3	997	2174.478655109159	14.739490384627
3	998	2174.994024774699	4.815990127261
3	1004	2202.388911678322	0
3	1009	2203.938050825949	0.732359514774
3	1010	2204.028464745637	0.503909104626
3	1013	2210.289759920931	0
3	1016	2218.38631511756	5.58785614479
3	1019	2247.549440949729	0
3	1031	2280.676308392161	0
3	1034	2285.947942009678	0
3	1037	2293.178156133197	0
3	1040	2298.799601909191	0.736102122005
3	1046	2331.409750970106	0
3	1049	2335.595798817299	0
3	1052	2337.869263900486	0
3	1055	2345.414111781883	0
3	1058	2367.882882518354	0
3	1061	2375.883843674064	0
3	1064	2396.56508061736	0
3	1067	2402.72537027751	0
3	1088	2456.336294181918	37.727395385599
3	1089	2457.294374666788	36.365898534854
3	1090	2460.545278049574	20.028600750327
3	1091	2467.984133659187	19.75195460555
3	1094	2489.019590075643	0
4	152	353.558932560254	35
4	153	356.088727092657	36
4	156	364.814582328226	37
4	161	376.152406704369	38
4	162	376.187826783337	39
4	165	379.761583012581	40
4	168	390.733259292829	41
4	171	397.662294503731	42
4	174	401.544022792397	43
4	177	421.370083163397	44
4	182	427.106563712059	45
4	183	427.537897006851	46
4	196	500.951050860871	47
4	197	501.154895366647	48
4	198	504.965116852968	49
4	204	512.113496425781	50
4	218	542.05669469537	51
4	219	542.660864226218	52
4	222	548.512746271775	53
4	225	560.312273730259	54
4	228	562.991287954306	55
4	231	573.803172745717	56
4	237	611.198364302467	57
4	246	656.918928801094	58
4	249	657.541904578569	59
4	255	671.480880923801	60
4	261	682.273659587405	61
4	264	701.693773037688	62
4	274	712.876889916361	63
4	277	713.931133983809	64
4	278	714.690877495346	65
4	279	714.839089771683	66
4	282	719.955711002805	67
4	292	732.575202334644	68
4	293	734.16992096678	69
4	294	739.7877555213	70
4	299	751.848064610048	71
4	304	754.864699091103	72
4	305	755.686351165579	73
4	306	758.240381256554	74
4	357	847.258159599963	75
4	358	850.221708930349	76
4	359	851.11811055762	77
4	360	853.700668759455	78
4	361	853.996039705987	79
4	362	855.937245522007	80
4	363	858.165199985144	81
4	364	859.782574372303	82
4	365	865.829203022501	83
4	373	876.059049813528	84
4	374	877.691330566028	85
4	379	880.978165216495	86
4	380	881.723103448672	87
4	381	884.921947415415	88
4	411	924.450795900726	89
4	412	924.768108035695	90
4	415	928.622717156589	91
4	416	929.436863767434	92
4	417	929.441787461772	93
4	420	929.829329805358	94
4	431	950.906460568159	95
4	432	951.54962852315	96
4	435	954.882279660754	97
4	438	960.606984588094	98
4	439	963.537032735595	99
4	440	965.31578885939	100
4	445	968.017986457688	101
4	448	973.667624621253	102
4	449	974.788557928901	103
4	455	981.815590731933	104
4	456	985.009976482097	105
4	457	985.258894076801	106
4	462	991.451396554851	107
4	463	992.95142368306	108
4	466	998.955009137389	109
4	467	1000.66579524778	110
4	470	1004.266479547776	111
4	471	1014.62249093731	112
4	482	1034.407631179795	113
4	485	1040.913054093895	114
4	486	1050.183181862525	115
4	494	1071.619863035024	116
4	512	1108.762379264286	117
4	513	1111.124661077268	118
4	514	1112.156304141384	119
4	515	1115.590564979123	120
4	516	1115.917071712446	121
4	519	1122.51477575887	122
4	524	1127.077114862804	123
4	525	1127.789078735431	124
4	536	1142.211940775652	125
4	537	1142.841010365234	126
4	547	1169.580532982228	127
4	548	1172.55947742617	128
4	549	1179.848101683559	129
4	569	1227.841584917	130
4	570	1233.764976164449	131
4	571	1235.665820637042	132
4	572	1238.486305508398	133
4	573	1240.184878085388	134
4	576	1253.148347702688	135
4	579	1262.004213382824	136
4	582	1279.301720997788	137
4	591	1300.585834864286	138
4	603	1326.838451385998	139
4	614	1351.367338687129	140
4	618	1357.866394245674	141
4	621	1358.555098157052	142
4	624	1363.911765305135	143
4	676	1484.104814502554	144
4	677	1485.483782183177	145
4	678	1492.58848805977	146
4	679	1492.83125369028	147
4	680	1495.003689870576	148
4	681	1497.320167531178	149
4	682	1500.069327657944	150
4	683	1500.427293521872	151
4	684	1501.698159563457	152
4	687	1504.416492584678	153
4	688	1507.834418734392	154
4	689	1509.405498368772	155
4	692	1513.179073238645	156
4	693	1515.633879871259	157
4	696	1526.687432611291	158
4	701	1530.073110305051	159
4	702	1530.131713297181	160
4	711	1539.856886574156	161
4	712	1540.7714017043	162
4	715	1548.505181695026	163
4	718	1548.826698005555	164
4	719	1549.123393491926	165
4	722	1551.000788653852	166
4	723	1551.423197447432	167
4	726	1555.275408683346	168
4	727	1556.854037166185	169
4	728	1557.983088804921	170
4	729	1568.865299185585	171
4	735	1592.013263407521	172
4	741	1608.464483735272	173
4	744	1628.14370309217	174
4	750	1647.246554769089	175
4	756	1658.294003582516	176
4	759	1669.372939350516	177
4	762	1675.715304754205	178
4	768	1688.287345288388	179
4	773	1708.703987353032	180
4	774	1714.044143336459	181
4	777	1717.253141025897	182
4	780	1724.353625717501	183
4	809	1797.200150837308	184
4	812	1805.796189303353	185
4	817	1814.95181355454	186
4	818	1815.803597055086	187
4	821	1823.857238696848	188
4	822	1824.330991210284	189
4	823	1824.543822874308	190
4	824	1824.607665635996	191
4	825	1826.33696944564	192
4	826	1832.752438634538	193
4	827	1833.193425083615	194
4	828	1833.558649381642	195
4	840	1857.638186536152	196
4	849	1876.285335449788	197
4	850	1878.862588411605	198
4	851	1878.871618787698	199
4	852	1880.907644712584	200
4	855	1881.859866841307	201
4	858	1887.346353003236	202
4	863	1894.827859983567	203
4	864	1895.481703121506	204
4	867	1920.362721020905	205
4	880	1935.912908477756	206
4	881	1937.868653296391	207
4	882	1939.657368219546	208
4	888	1946.713104520698	209
4	894	1961.660887033405	210
4	897	1971.338489160193	211
4	900	1974.498806156189	212
4	903	1977.953174659813	213
4	906	1981.410575035127	214
4	934	2048.248466280016	215
4	935	2054.546108484472	216
4	939	2055.697442116708	217
4	940	2057.319681956815	218
4	941	2059.171144983358	219
4	944	2063.221642504184	220
4	945	2064.752361230804	221
4	954	2090.879206458639	222
4	957	2099.489358980219	223
4	960	2104.267905238419	224
4	977	2131.936674675963	225
4	978	2132.890488281044	226
4	979	2135.41705848016	227
4	980	2136.666440530878	228
4	981	2139.442637054397	229
4	984	2149.660453508261	230
4	987	2155.657630502098	231
4	998	2174.994024774699	232
4	999	2179.273812658715	233
4	1009	2203.938050825949	234
4	1010	2204.028464745637	235
4	1011	2206.799577042263	236
4	1016	2218.38631511756	237
4	1017	2219.405936030965	238
4	1020	2248.452170882915	239
4	1032	2281.660862103017	240
4	1035	2288.415442724807	241
4	1040	2298.799601909191	242
4	1041	2299.452654509329	243
4	1047	2332.837781414799	244
4	1050	2336.868034097346	245
4	1053	2340.305558426551	246
4	1056	2346.711037919071	247
4	1059	2368.094737126777	248
4	1062	2376.174014186727	249
4	1065	2397.79700444884	250
4	1068	2405.697141114263	251
4	1089	2457.294374666788	252
4	1090	2460.545278049574	253
4	1091	2467.984133659187	254
4	1092	2469.126782001723	255
4	1095	2489.096011024566	256
5	152	353.558932560254	1
5	153	356.088727092657	0
5	155	363.579054885799	0
5	156	364.814582328226	0
5	158	373.543285395769	0
5	160	374.661914185546	1
5	161	376.152406704369	1
5	162	376.187826783337	0
5	164	379.716957088455	0
5	165	379.761583012581	0
5	167	389.216009352237	0
5	168	390.733259292829	0
5	170	396.071423758288	0
5	171	397.662294503731	0
5	173	398.038762616448	0
5	174	401.544022792397	0
5	176	420.926712749432	0
5	177	421.370083163397	0
5	179	421.697435476152	0
5	181	426.388589317789	1
5	182	427.106563712059	1
5	183	427.537897006851	0
5	190	481.436443523972	0
5	192	489.648769882361	1
5	194	494.053590564673	2
5	196	500.951050860871	2
5	197	501.154895366647	1
5	198	504.965116852968	0
5	202	509.899732218342	0
5	204	512.113496425781	0
5	211	528.19275615016	0
5	216	536.975474528813	1
5	218	542.05669469537	1
5	219	542.660864226218	0
5	221	547.138558063227	0
5	222	548.512746271775	0
5	224	560.03261985754	0
5	225	560.312273730259	0
5	227	562.385083159734	0
5	228	562.991287954306	0
5	230	570.527389667603	0
5	231	573.803172745717	0
5	236	608.890487285279	0
5	237	611.198364302467	0
5	245	655.955770116286	0
5	246	656.918928801094	0
5	248	657.445543481161	0
5	249	657.541904578569	0
5	254	671.478368522561	0
5	255	671.480880923801	0
5	260	679.535327752802	0
5	261	682.273659587405	0
5	263	700.541593501188	0
5	264	701.693773037688	0
5	266	703.644066229174	0
5	268	706.340355187251	1
5	272	710.075541130844	2
5	274	712.876889916361	2
5	276	712.983335373676	2
5	277	713.931133983809	2
5	278	714.690877495346	1
5	279	714.839089771683	0
5	281	717.003022803627	0
5	282	719.955711002805	0
5	286	729.203809959397	0
5	289	730.78007137366	1
5	291	731.746582949074	2
5	292	732.575202334644	2
5	293	734.16992096678	1
5	294	739.7877555213	0
5	296	748.936832870384	0
5	298	751.457146462614	1
5	299	751.848064610048	1
5	301	753.213992081734	1
5	303	754.496561688734	2
5	304	754.864699091103	2
5	305	755.686351165579	1
5	306	758.240381256554	0
5	308	761.394955609275	0
5	320	777.724532560572	1
5	326	781.744714900653	2
5	335	793.453446773714	3
5	337	795.620617566172	4
5	339	796.499813366609	5
5	341	798.081890598687	6
5	345	803.813048988078	7
5	350	815.419819453254	8
5	352	821.201600532941	9
5	357	847.258159599963	9
5	358	850.221708930349	8
5	359	851.11811055762	7
5	360	853.700668759455	6
5	361	853.996039705987	5
5	362	855.937245522007	4
5	363	858.165199985144	3
5	364	859.782574372303	2
5	365	865.829203022501	1
5	370	873.450606604169	1
5	372	874.646094825207	2
5	373	876.059049813528	2
5	374	877.691330566028	1
5	376	877.997425266619	1
5	378	879.267984102768	2
5	379	880.978165216495	2
5	380	881.723103448672	1
5	381	884.921947415415	0
5	383	887.619515064544	0
5	385	889.388644114143	1
5	387	890.670473316635	2
5	391	903.684913591237	3
5	393	904.128225759312	4
5	397	905.55524791745	5
5	400	907.273242547263	6
5	405	911.974950438951	7
5	407	917.649162267031	8
5	410	922.324750213238	9
5	411	924.450795900726	9
5	412	924.768108035695	8
5	414	927.060296398259	8
5	415	928.622717156589	8
5	416	929.436863767434	7
5	417	929.441787461772	6
5	419	929.638454108424	6
5	420	929.829329805358	6
5	422	930.259084602846	6
5	430	944.203452993304	7
5	431	950.906460568159	7
5	432	951.54962852315	6
5	434	954.007412223763	6
5	435	954.882279660754	6
5	437	958.784823510326	6
5	438	960.606984588094	6
5	439	963.537032735595	5
5	440	965.31578885939	4
5	442	965.475159200168	4
5	444	967.086650310384	5
5	445	968.017986457688	5
5	447	972.392106944048	5
5	448	973.667624621253	5
5	449	974.788557928901	4
5	454	980.361113631062	4
5	455	981.815590731933	4
5	456	985.009976482097	3
5	457	985.258894076801	2
5	459	986.367429133012	2
5	461	988.117196366938	3
5	462	991.451396554851	3
5	463	992.95142368306	2
5	465	996.160429757614	2
5	466	998.955009137389	2
5	467	1000.66579524778	1
5	469	1001.525444473856	1
5	470	1004.266479547776	1
5	471	1014.62249093731	0
5	476	1028.831373523952	0
5	480	1033.133303681355	1
5	482	1034.407631179795	1
5	484	1036.204182105157	1
5	485	1040.913054093895	1
5	486	1050.183181862525	0
5	490	1067.324216425874	0
5	492	1067.502591081906	1
5	494	1071.619863035024	1
5	498	1073.514423400888	1
5	500	1085.501379847949	2
5	502	1086.753699699907	3
5	508	1103.222127016005	4
5	512	1108.762379264286	4
5	513	1111.124661077268	3
5	514	1112.156304141384	2
5	515	1115.590564979123	1
5	516	1115.917071712446	0
5	518	1116.152725647456	0
5	519	1122.51477575887	0
5	521	1126.434529361977	0
5	523	1127.04179356651	1
5	524	1127.077114862804	1
5	525	1127.789078735431	0
5	529	1134.539054974881	0
5	535	1138.263482682187	1
5	536	1142.211940775652	1
5	537	1142.841010365234	0
5	539	1156.12305913709	0
5	543	1157.862546714135	1
5	545	1162.187457075274	2
5	547	1169.580532982228	2
5	548	1172.55947742617	1
5	549	1179.848101683559	0
5	555	1191.521548325295	0
5	557	1193.623372850051	1
5	559	1194.474368477427	2
5	561	1194.648724844303	3
5	565	1213.215071829798	4
5	569	1227.841584917	4
5	570	1233.764976164449	3
5	571	1235.665820637042	2
5	572	1238.486305508398	1
5	573	1240.184878085388	0
5	575	1252.704514483121	0
5	576	1253.148347702688	0
5	578	1261.23242101734	0
5	579	1262.004213382824	0
5	581	1277.893770322476	0
5	582	1279.301720997788	0
5	588	1293.69709282637	0
5	591	1300.585834864286	0
5	602	1326.086669640338	0
5	603	1326.838451385998	0
5	610	1349.033478380154	0
5	612	1349.161606233685	1
5	614	1351.367338687129	1
5	618	1357.866394245674	0
5	620	1358.298849909792	0
5	621	1358.555098157052	0
5	623	1361.627248330642	0
5	624	1363.911765305135	0
5	630	1398.947241555823	0
5	632	1401.526140802077	1
5	634	1405.856838031789	2
5	636	1405.884197479022	3
5	638	1407.235027160216	4
5	641	1411.526887387314	5
5	643	1418.876947342769	6
5	647	1424.671827190064	7
5	649	1427.251718501363	8
5	651	1429.254908583975	9
5	653	1429.294819106096	10
5	659	1436.384060214042	11
5	662	1437.869101253766	12
5	666	1441.193138676873	13
5	672	1473.307013683163	14
5	676	1484.104814502554	14
5	677	1485.483782183177	13
5	678	1492.58848805977	12
5	679	1492.83125369028	11
5	680	1495.003689870576	10
5	681	1497.320167531178	9
5	682	1500.069327657944	8
5	683	1500.427293521872	7
5	684	1501.698159563457	6
5	686	1503.682433220789	6
5	687	1504.416492584678	6
5	688	1507.834418734392	5
5	689	1509.405498368772	4
5	691	1509.807077478072	4
5	692	1513.179073238645	4
5	693	1515.633879871259	3
5	695	1516.247836105645	3
5	696	1526.687432611291	3
5	698	1526.691078288846	3
5	700	1529.702660459206	4
5	701	1530.073110305051	4
5	702	1530.131713297181	3
5	704	1533.00213832439	3
5	706	1536.698471229552	4
5	708	1538.233997203426	5
5	710	1538.450109340932	6
5	711	1539.856886574156	6
5	712	1540.7714017043	5
5	714	1545.366357871776	5
5	715	1548.505181695026	5
5	717	1548.688710915277	5
5	718	1548.826698005555	5
5	719	1549.123393491926	4
5	721	1550.301661078617	4
5	722	1551.000788653852	4
5	723	1551.423197447432	3
5	725	1553.284838352992	3
5	726	1555.275408683346	3
5	727	1556.854037166185	2
5	728	1557.983088804921	1
5	729	1568.865299185585	0
5	733	1577.649986002257	0
5	735	1592.013263407521	0
5	740	1607.203150496704	0
5	741	1608.464483735272	0
5	743	1627.914224295672	0
5	744	1628.14370309217	0
5	746	1640.74915603755	0
5	750	1647.246554769089	0
5	752	1651.521775860583	0
5	756	1658.294003582516	0
5	758	1669.18562057105	0
5	759	1669.372939350516	0
5	761	1675.541657840223	0
5	762	1675.715304754205	0
5	766	1684.062114909978	0
5	768	1688.287345288388	0
5	770	1706.362005494458	0
5	772	1707.677750742697	1
5	773	1708.703987353032	1
5	774	1714.044143336459	0
5	776	1714.469484724958	0
5	777	1717.253141025897	0
5	779	1723.125223890593	0
5	780	1724.353625717501	0
5	784	1730.020613730931	0
5	788	1737.8779214193	1
5	790	1739.370997966171	2
5	794	1745.962011020429	3
5	796	1749.881837288104	4
5	799	1759.186862780174	5
5	803	1769.630302308937	6
5	806	1777.367280607055	7
5	809	1797.200150837308	7
5	811	1800.229555430394	7
5	812	1805.796189303353	7
5	814	1805.994070097871	7
5	816	1810.155858051508	8
5	817	1814.95181355454	8
5	818	1815.803597055086	7
5	820	1822.671011169435	7
5	821	1823.857238696848	7
5	822	1824.330991210284	6
5	823	1824.543822874308	5
5	824	1824.607665635996	4
5	825	1826.33696944564	3
5	826	1832.752438634538	2
5	827	1833.193425083615	1
5	828	1833.558649381642	0
5	832	1837.958017627977	0
5	834	1841.780250714441	1
5	836	1851.10930861365	2
5	838	1855.021546461255	3
5	840	1857.638186536152	3
5	846	1863.415816226968	3
5	849	1876.285335449788	3
5	850	1878.862588411605	2
5	851	1878.871618787698	1
5	852	1880.907644712584	0
5	854	1881.021825344395	0
5	855	1881.859866841307	0
5	857	1885.846746368614	0
5	858	1887.346353003236	0
5	860	1890.499301310651	0
5	862	1894.733450351068	1
5	863	1894.827859983567	1
5	864	1895.481703121506	0
5	866	1918.63216097021	0
5	867	1920.362721020905	0
5	871	1924.188297980871	0
5	873	1925.319099956091	1
5	878	1929.585836893588	2
5	880	1935.912908477756	2
5	881	1937.868653296391	1
5	882	1939.657368219546	0
5	887	1945.324858033802	0
5	888	1946.713104520698	0
5	892	1949.102956681035	0
5	894	1961.660887033405	0
5	896	1970.195359007643	0
5	897	1971.338489160193	0
5	899	1972.073306983018	0
5	900	1974.498806156189	0
5	902	1977.296437415521	0
5	903	1977.953174659813	0
5	905	1978.336379637879	0
5	906	1981.410575035127	0
5	918	2000.645998769736	0
5	920	2001.533130344054	1
5	925	2007.995026094809	2
5	927	2024.603376485236	3
5	929	2024.950558315583	4
5	931	2033.437719429817	5
5	934	2048.248466280016	5
5	935	2054.546108484472	4
5	939	2055.697442116708	3
5	940	2057.319681956815	2
5	941	2059.171144983358	1
5	943	2063.036863365565	1
5	944	2063.221642504184	1
5	945	2064.752361230804	0
5	949	2073.037539468562	0
5	954	2090.879206458639	0
5	956	2098.626161585843	0
5	957	2099.489358980219	0
5	959	2101.652191291521	0
5	960	2104.267905238419	0
5	964	2104.722519624341	0
5	966	2114.300281212789	1
5	968	2123.595870604585	2
5	970	2126.480391705255	3
5	976	2131.138008777177	4
5	977	2131.936674675963	4
5	978	2132.890488281044	3
5	979	2135.41705848016	2
5	980	2136.666440530878	1
5	981	2139.442637054397	0
5	983	2145.312916017673	0
5	984	2149.660453508261	0
5	986	2155.265748692222	0
5	987	2155.657630502098	0
5	991	2159.739164724532	0
5	996	2170.178034647438	1
5	998	2174.994024774699	1
5	999	2179.273812658715	0
5	1004	2202.388911678322	0
5	1006	2203.205691311175	1
5	1008	2203.524555641011	2
5	1009	2203.938050825949	2
5	1010	2204.028464745637	1
5	1011	2206.799577042263	0
5	1013	2210.289759920931	0
5	1015	2212.79845897277	1
5	1016	2218.38631511756	1
5	1017	2219.405936030965	0
5	1019	2247.549440949729	0
5	1020	2248.452170882915	0
5	1031	2280.676308392161	0
5	1032	2281.660862103017	0
5	1034	2285.947942009678	0
5	1035	2288.415442724807	0
5	1037	2293.178156133197	0
5	1039	2298.063499787186	1
5	1040	2298.799601909191	1
5	1041	2299.452654509329	0
5	1046	2331.409750970106	0
5	1047	2332.837781414799	0
5	1049	2335.595798817299	0
5	1050	2336.868034097346	0
5	1052	2337.869263900486	0
5	1053	2340.305558426551	0
5	1055	2345.414111781883	0
5	1056	2346.711037919071	0
5	1058	2367.882882518354	0
5	1059	2368.094737126777	0
5	1061	2375.883843674064	0
5	1062	2376.174014186727	0
5	1064	2396.56508061736	0
5	1065	2397.79700444884	0
5	1067	2402.72537027751	0
5	1068	2405.697141114263	0
5	1075	2418.608898796319	0
5	1077	2420.928476131934	1
5	1085	2440.516677299247	2
5	1087	2448.232179053637	3
5	1089	2457.294374666788	3
5	1090	2460.545278049574	2
5	1091	2467.984133659187	1
5	1092	2469.126782001723	0
5	1094	2489.019590075643	0
5	1095	2489.096011024566	0
5	1099	2491.481527160442	0
6	152	353.558932560254	18.203185464618
6	153	356.088727092657	14.878283966052
6	156	364.814582328226	1.235527442427
6	161	376.152406704369	2.6091213086
6	162	376.187826783337	1.525912597791
6	165	379.761583012581	0.044625924126
6	168	390.733259292829	1.517249940592
6	171	397.662294503731	1.590870745443
6	174	401.544022792397	3.505260175949
6	177	421.370083163397	0.443370413965
6	182	427.106563712059	5.409128235907
6	183	427.537897006851	1.149307689062
6	196	500.951050860871	19.514607336899
6	197	501.154895366647	11.506125484286
6	198	504.965116852968	10.911526288295
6	204	512.113496425781	2.213764207439
6	218	542.05669469537	13.86393854521
6	219	542.660864226218	5.685389697405
6	222	548.512746271775	1.374188208548
6	225	560.312273730259	0.279653872719
6	228	562.991287954306	0.606204794572
6	231	573.803172745717	3.275783078114
6	237	611.198364302467	2.307877017188
6	246	656.918928801094	0.963158684808
6	249	657.541904578569	0.096361097408
6	255	671.480880923801	0.00251240124
6	261	682.273659587405	2.738331834603
6	264	701.693773037688	1.1521795365
6	274	712.876889916361	6.53653472911
6	277	713.931133983809	6.851712324893
6	278	714.690877495346	4.615336364502
6	279	714.839089771683	1.855754398007
6	282	719.955711002805	2.952688199178
6	292	732.575202334644	3.371392375247
6	293	734.16992096678	3.38984959312
6	294	739.7877555213	8.041172572226
6	299	751.848064610048	2.911231739664
6	304	754.864699091103	3.407552628489
6	305	755.686351165579	2.472359083845
6	306	758.240381256554	3.74381956782
6	357	847.258159599963	85.149544729073
6	358	850.221708930349	72.497176369777
6	359	851.11811055762	69.373395656967
6	360	853.700668759455	60.247221985741
6	361	853.996039705987	58.375422139815
6	362	855.937245522007	59.437432155398
6	363	858.165199985144	60.083309386457
6	364	859.782574372303	55.969525384225
6	365	865.829203022501	50.409383569247
6	373	876.059049813528	3.825141126927
6	374	877.691330566028	4.240723961859
6	379	880.978165216495	6.332070391288
6	380	881.723103448672	3.725678182053
6	381	884.921947415415	5.653963312647
6	411	924.450795900726	35.062151786583
6	412	924.768108035695	34.09763471906
6	415	928.622717156589	31.16386342516
6	416	929.436863767434	25.751950176197
6	417	929.441787461772	25.31356170246
6	420	929.829329805358	24.274081887908
6	431	950.906460568159	33.257298301128
6	432	951.54962852315	29.224878309912
6	435	954.882279660754	27.821983262495
6	438	960.606984588094	30.96853047967
6	439	963.537032735595	33.277948132749
6	440	965.31578885939	34.488231105075
6	445	968.017986457688	31.034562600791
6	448	973.667624621253	29.464171627949
6	449	974.788557928901	20.781145705138
6	455	981.815590731933	16.340431531765
6	456	985.009976482097	17.923326171713
6	457	985.258894076801	12.866787132753
6	462	991.451396554851	15.588270818702
6	463	992.95142368306	12.590310051998
6	466	998.955009137389	12.587580004377
6	467	1000.66579524778	12.548598880842
6	470	1004.266479547776	8.106049790162
6	471	1014.62249093731	13.097046463454
6	482	1034.407631179795	3.158391932671
6	485	1040.913054093895	7.77975041254
6	486	1050.183181862525	13.978999757368
6	494	1071.619863035024	4.29564660915
6	512	1108.762379264286	35.247955863398
6	513	1111.124661077268	25.623281229319
6	514	1112.156304141384	25.402604441477
6	515	1115.590564979123	12.368437963118
6	516	1115.917071712446	11.292946142018
6	519	1122.51477575887	6.362050111414
6	524	1127.077114862804	0.642585500827
6	525	1127.789078735431	0.747285168921
6	536	1142.211940775652	6.781344506768
6	537	1142.841010365234	4.577527683047
6	547	1169.580532982228	13.354555386149
6	548	1172.55947742617	14.696930712035
6	549	1179.848101683559	17.660644608285
6	569	1227.841584917	36.320036591705
6	570	1233.764976164449	40.141603314398
6	571	1235.665820637042	41.191452159615
6	572	1238.486305508398	43.837580664095
6	573	1240.184878085388	26.96980625559
6	576	1253.148347702688	0.443833219567
6	579	1262.004213382824	0.771792365484
6	582	1279.301720997788	1.407950675312
6	591	1300.585834864286	6.888742037916
6	603	1326.838451385998	0.75178174566
6	614	1351.367338687129	2.333860306975
6	618	1357.866394245674	4.896608658039
6	621	1358.555098157052	0.25624824726
6	624	1363.911765305135	2.284516974493
6	676	1484.104814502554	85.157572946731
6	677	1485.483782183177	83.9576413811
6	678	1492.58848805977	86.731650027981
6	679	1492.83125369028	86.947056211258
6	680	1495.003689870576	87.76866271036
6	681	1497.320167531178	85.793280143864
6	682	1500.069327657944	81.192380315175
6	683	1500.427293521872	75.755466331808
6	684	1501.698159563457	74.446441062094
6	687	1504.416492584678	75.161584000703
6	688	1507.834418734392	78.539599628296
6	689	1509.405498368772	73.02143815473
6	692	1513.179073238645	75.309971984879
6	693	1515.633879871259	74.440741194386
6	696	1526.687432611291	53.380418928128
6	701	1530.073110305051	26.390677084262
6	702	1530.131713297181	20.324635819109
6	711	1539.856886574156	23.609050468511
6	712	1540.7714017043	14.080323415454
6	715	1548.505181695026	18.80252123582
6	718	1548.826698005555	15.824559681165
6	719	1549.123393491926	12.424922262374
6	722	1551.000788653852	12.766791450426
6	723	1551.423197447432	12.9730881065
6	726	1555.275408683346	9.90905081157
6	727	1556.854037166185	8.165326250908
6	728	1557.983088804921	7.681427726304
6	729	1568.865299185585	15.580460832593
6	735	1592.013263407521	14.363277405264
6	741	1608.464483735272	1.261333238568
6	744	1628.14370309217	0.229478796498
6	750	1647.246554769089	6.481799051756
6	756	1658.294003582516	5.500974187209
6	759	1669.372939350516	0.187318779466
6	762	1675.715304754205	0.173646913982
6	768	1688.287345288388	4.22523037841
6	773	1708.703987353032	2.341981858574
6	774	1714.044143336459	6.366392593762
6	777	1717.253141025897	2.783656300939
6	780	1724.353625717501	1.228401826908
6	809	1797.200150837308	67.179537106377
6	812	1805.796189303353	67.918267884053
6	817	1814.95181355454	75.580815588369
6	818	1815.803597055086	69.841586034657
6	821	1823.857238696848	73.975401408744
6	822	1824.330991210284	65.14412843011
6	823	1824.543822874308	54.913520565371
6	824	1824.607665635996	47.240385028941
6	825	1826.33696944564	26.107414015246
6	826	1832.752438634538	26.758368536667
6	827	1833.193425083615	23.037567032107
6	828	1833.558649381642	10.887638212207
6	840	1857.638186536152	19.680168908175
6	849	1876.285335449788	25.176026836138
6	850	1878.862588411605	23.84104195035
6	851	1878.871618787698	17.612959192816
6	852	1880.907644712584	17.491828485616
6	855	1881.859866841307	0.838041496912
6	858	1887.346353003236	1.499606634622
6	863	1894.827859983567	4.328558672916
6	864	1895.481703121506	0.748252770438
6	867	1920.362721020905	1.730560050695
6	880	1935.912908477756	10.593808521665
6	881	1937.868653296391	11.693782058667
6	882	1939.657368219546	10.071531325958
6	888	1946.713104520698	1.388246486896
6	894	1961.660887033405	12.55793035237
6	897	1971.338489160193	1.14313015255
6	900	1974.498806156189	2.425499173171
6	903	1977.953174659813	0.656737244292
6	906	1981.410575035127	3.074195397248
6	934	2048.248466280016	47.60246751028
6	935	2054.546108484472	53.012978140418
6	939	2055.697442116708	31.094065631472
6	940	2057.319681956815	32.369123641232
6	941	2059.171144983358	25.733425553541
6	944	2063.221642504184	8.114401493803
6	945	2064.752361230804	1.715497865239
6	954	2090.879206458639	17.841666990077
6	957	2099.489358980219	0.863197394376
6	960	2104.267905238419	2.615713946898
6	977	2131.936674675963	27.214155051622
6	978	2132.890488281044	18.590207068255
6	979	2135.41705848016	11.821187875575
6	980	2136.666440530878	10.186048825623
6	981	2139.442637054397	8.30462827722
6	984	2149.660453508261	4.347537490588
6	987	2155.657630502098	0.391881809876
6	998	2174.994024774699	15.254860050167
6	999	2179.273812658715	9.095778011277
6	1009	2203.938050825949	1.549139147627
6	1010	2204.028464745637	0.822773434462
6	1011	2206.799577042263	3.275021401252
6	1016	2218.38631511756	8.096555196629
6	1017	2219.405936030965	6.607477058195
6	1020	2248.452170882915	0.902729933186
6	1032	2281.660862103017	0.984553710856
6	1035	2288.415442724807	2.467500715129
6	1040	2298.799601909191	5.621445775994
6	1041	2299.452654509329	1.389154722143
6	1047	2332.837781414799	1.428030444693
6	1050	2336.868034097346	1.272235280047
6	1053	2340.305558426551	2.436294526065
6	1056	2346.711037919071	1.296926137188
6	1059	2368.094737126777	0.211854608423
6	1062	2376.174014186727	0.290170512663
6	1065	2397.79700444884	1.23192383148
6	1068	2405.697141114263	2.971770836753
6	1089	2457.294374666788	38.685475870469
6	1090	2460.545278049574	39.61680191764
6	1091	2467.984133659187	27.46745635994
6	1092	2469.126782001723	20.894602948086
6	1095	2489.096011024566	0.076420948923
7	155	363.579054885799	1
7	158	373.543285395769	1
7	160	374.661914185546	2
7	164	379.716957088455	1
7	167	389.216009352237	1
7	170	396.071423758288	1
7	173	398.038762616448	1
7	176	420.926712749432	1
7	179	421.697435476152	1
7	181	426.388589317789	2
7	190	481.436443523972	1
7	192	489.648769882361	2
7	194	494.053590564673	3
7	202	509.899732218342	1
7	211	528.19275615016	1
7	216	536.975474528813	2
7	221	547.138558063227	1
7	224	560.03261985754	1
7	227	562.385083159734	1
7	230	570.527389667603	1
7	236	608.890487285279	1
7	245	655.955770116286	1
7	248	657.445543481161	1
7	254	671.478368522561	1
7	260	679.535327752802	1
7	263	700.541593501188	1
7	266	703.644066229174	1
7	268	706.340355187251	2
7	272	710.075541130844	3
7	276	712.983335373676	3
7	281	717.003022803627	1
7	286	729.203809959397	1
7	289	730.78007137366	2
7	291	731.746582949074	3
7	296	748.936832870384	1
7	298	751.457146462614	2
7	301	753.213992081734	2
7	303	754.496561688734	3
7	308	761.394955609275	1
7	320	777.724532560572	2
7	326	781.744714900653	3
7	335	793.453446773714	4
7	337	795.620617566172	5
7	339	796.499813366609	6
7	341	798.081890598687	7
7	345	803.813048988078	8
7	350	815.419819453254	9
7	352	821.201600532941	10
7	370	873.450606604169	2
7	372	874.646094825207	3
7	376	877.997425266619	2
7	378	879.267984102768	3
7	383	887.619515064544	1
7	385	889.388644114143	2
7	387	890.670473316635	3
7	391	903.684913591237	4
7	393	904.128225759312	5
7	397	905.55524791745	6
7	400	907.273242547263	7
7	405	911.974950438951	8
7	407	917.649162267031	9
7	410	922.324750213238	10
7	414	927.060296398259	9
7	419	929.638454108424	7
7	422	930.259084602846	7
7	430	944.203452993304	8
7	434	954.007412223763	7
7	437	958.784823510326	7
7	442	965.475159200168	5
7	444	967.086650310384	6
7	447	972.392106944048	6
7	454	980.361113631062	5
7	459	986.367429133012	3
7	461	988.117196366938	4
7	465	996.160429757614	3
7	469	1001.525444473856	2
7	476	1028.831373523952	1
7	480	1033.133303681355	2
7	484	1036.204182105157	2
7	490	1067.324216425874	1
7	492	1067.502591081906	2
7	498	1073.514423400888	2
7	500	1085.501379847949	3
7	502	1086.753699699907	4
7	508	1103.222127016005	5
7	518	1116.152725647456	1
7	521	1126.434529361977	1
7	523	1127.04179356651	2
7	529	1134.539054974881	1
7	535	1138.263482682187	2
7	539	1156.12305913709	1
7	543	1157.862546714135	2
7	545	1162.187457075274	3
7	555	1191.521548325295	1
7	557	1193.623372850051	2
7	559	1194.474368477427	3
7	561	1194.648724844303	4
7	565	1213.215071829798	5
7	575	1252.704514483121	1
7	578	1261.23242101734	1
7	581	1277.893770322476	1
7	588	1293.69709282637	1
7	602	1326.086669640338	1
7	610	1349.033478380154	1
7	612	1349.161606233685	2
7	620	1358.298849909792	1
7	623	1361.627248330642	1
7	630	1398.947241555823	1
7	632	1401.526140802077	2
7	634	1405.856838031789	3
7	636	1405.884197479022	4
7	638	1407.235027160216	5
7	641	1411.526887387314	6
7	643	1418.876947342769	7
7	647	1424.671827190064	8
7	649	1427.251718501363	9
7	651	1429.254908583975	10
7	653	1429.294819106096	11
7	659	1436.384060214042	12
7	662	1437.869101253766	13
7	666	1441.193138676873	14
7	672	1473.307013683163	15
7	686	1503.682433220789	7
7	691	1509.807077478072	5
7	695	1516.247836105645	4
7	698	1526.691078288846	4
7	700	1529.702660459206	5
7	704	1533.00213832439	4
7	706	1536.698471229552	5
7	708	1538.233997203426	6
7	710	1538.450109340932	7
7	714	1545.366357871776	6
7	717	1548.688710915277	6
7	721	1550.301661078617	5
7	725	1553.284838352992	4
7	733	1577.649986002257	1
7	740	1607.203150496704	1
7	743	1627.914224295672	1
7	746	1640.74915603755	1
7	752	1651.521775860583	1
7	758	1669.18562057105	1
7	761	1675.541657840223	1
7	766	1684.062114909978	1
7	770	1706.362005494458	1
7	772	1707.677750742697	2
7	776	1714.469484724958	1
7	779	1723.125223890593	1
7	784	1730.020613730931	1
7	788	1737.8779214193	2
7	790	1739.370997966171	3
7	794	1745.962011020429	4
7	796	1749.881837288104	5
7	799	1759.186862780174	6
7	803	1769.630302308937	7
7	806	1777.367280607055	8
7	811	1800.229555430394	8
7	814	1805.994070097871	8
7	816	1810.155858051508	9
7	820	1822.671011169435	8
7	832	1837.958017627977	1
7	834	1841.780250714441	2
7	836	1851.10930861365	3
7	838	1855.021546461255	4
7	846	1863.415816226968	4
7	854	1881.021825344395	1
7	857	1885.846746368614	1
7	860	1890.499301310651	1
7	862	1894.733450351068	2
7	866	1918.63216097021	1
7	871	1924.188297980871	1
7	873	1925.319099956091	2
7	878	1929.585836893588	3
7	887	1945.324858033802	1
7	892	1949.102956681035	1
7	896	1970.195359007643	1
7	899	1972.073306983018	1
7	902	1977.296437415521	1
7	905	1978.336379637879	1
7	918	2000.645998769736	1
7	920	2001.533130344054	2
7	925	2007.995026094809	3
7	927	2024.603376485236	4
7	929	2024.950558315583	5
7	931	2033.437719429817	6
7	943	2063.036863365565	2
7	949	2073.037539468562	1
7	956	2098.626161585843	1
7	959	2101.652191291521	1
7	964	2104.722519624341	1
7	966	2114.300281212789	2
7	968	2123.595870604585	3
7	970	2126.480391705255	4
7	976	2131.138008777177	5
7	983	2145.312916017673	1
7	986	2155.265748692222	1
7	991	2159.739164724532	1
7	996	2170.178034647438	2
7	1004	2202.388911678322	1
7	1006	2203.205691311175	2
7	1008	2203.524555641011	3
7	1013	2210.289759920931	1
7	1015	2212.79845897277	2
7	1019	2247.549440949729	1
7	1031	2280.676308392161	1
7	1034	2285.947942009678	1
7	1037	2293.178156133197	1
7	1039	2298.063499787186	2
7	1046	2331.409750970106	1
7	1049	2335.595798817299	1
7	1052	2337.869263900486	1
7	1055	2345.414111781883	1
7	1058	2367.882882518354	1
7	1061	2375.883843674064	1
7	1064	2396.56508061736	1
7	1067	2402.72537027751	1
7	1075	2418.608898796319	1
7	1077	2420.928476131934	2
7	1085	2440.516677299247	3
7	1087	2448.232179053637	4
7	1094	2489.019590075643	1
7	1099	2491.481527160442	1
8	185	437.655607876823	1
8	188	476.417763818169	1
8	200	505.157294903869	1
8	206	518.497244516544	1
8	208	524.0058841167	2
8	213	529.768904742497	2
8	233	580.600471402607	1
8	239	617.556769837513	1
8	242	627.787029116695	1
8	251	659.958738792625	1
8	257	677.472481062608	1
8	270	707.079421658916	1
8	284	727.849037380949	1
8	310	762.10861487089	1
8	312	766.064582611732	2
8	315	767.243145531648	2
8	318	772.710391185803	2
8	322	780.04016885003	3
8	324	781.156737009427	4
8	329	785.089428818756	4
8	332	791.300089263771	4
8	343	801.447574365974	4
8	354	828.207746898685	2
8	367	872.233908686601	1
8	389	897.458853731429	1
8	395	904.239175991417	2
8	402	908.062744141541	2
8	424	930.827557754315	1
8	427	936.983423856897	1
8	451	975.863125736149	1
8	473	1024.781438977254	1
8	478	1031.249239247124	1
8	488	1057.375757117136	1
8	496	1071.984350674741	1
8	504	1087.347407495617	2
8	510	1104.624125570428	1
8	527	1131.913251019904	1
8	532	1135.430596268884	1
8	541	1156.225977596079	1
8	551	1183.033137147023	1
8	553	1184.399680763421	2
8	563	1202.823700682684	3
8	584	1290.756257528264	1
8	586	1291.773124459133	2
8	593	1303.250290103507	1
8	596	1311.742924506421	1
8	598	1318.834994364708	2
8	605	1341.051374691128	1
8	608	1348.418308572707	1
8	616	1352.969785587635	1
8	626	1392.271716502791	1
8	628	1395.251755794326	2
8	645	1420.79883808038	2
8	655	1432.314240596926	3
8	657	1432.462336685495	4
8	664	1439.522554827319	4
8	668	1453.866869318157	5
8	731	1572.04492876378	1
8	737	1595.075952196652	1
8	748	1640.764755717333	1
8	754	1652.793029395307	1
8	764	1681.66743090527	1
8	782	1726.483585756461	1
8	786	1731.217903927377	2
8	792	1745.062392548567	3
8	801	1761.688329774283	3
8	830	1834.890265730179	1
8	842	1861.258659594882	1
8	844	1862.537144774147	2
8	869	1921.970189220149	1
8	876	1926.174871237724	1
8	884	1939.677308397534	1
8	890	1947.375216089019	1
8	908	1982.883816033365	1
8	910	1983.984816311616	2
8	913	1991.286837472051	2
8	916	1996.754152655681	2
8	922	2002.466128489888	3
8	937	2055.107241010381	1
8	947	2068.075372850136	1
8	951	2075.632832202764	2
8	962	2104.666754849128	1
8	972	2127.889419142281	2
8	989	2158.870692950259	1
8	993	2167.354006824154	2
8	1001	2188.12599603428	1
8	1022	2251.243384943465	1
8	1025	2258.364926004097	1
8	1028	2269.872364346719	1
8	1043	2307.555450401146	1
8	1070	2408.063543574337	1
8	1072	2409.514620667025	2
8	1079	2424.407726500811	2
8	1081	2432.363775165864	3
8	1097	2490.842751616098	1
9	185	437.655607876823	0
9	188	476.417763818169	0
9	200	505.157294903869	0
9	206	518.497244516544	0
9	209	527.135634617493	3.129750500793
9	214	530.054421782724	0.285517040227
9	233	580.600471402607	0
9	239	617.556769837513	0
9	242	627.787029116695	0
9	251	659.958738792625	0
9	257	677.472481062608	0
9	270	707.079421658916	0
9	284	727.849037380949	0
9	310	762.10861487089	0
9	313	766.733929982804	0.669347371072
9	316	768.893400043493	1.650254511845
9	327	781.809391289378	9.099000103575
9	330	790.009389728158	9.969220878128
9	333	792.80162302782	11.644886018393
9	346	804.873881054077	19.784452235321
9	347	807.670540193237	16.370450929466
9	348	811.052502013931	9.604927647957
9	355	844.648726978186	16.440980079501
9	367	872.233908686601	0
9	389	897.458853731429	0
9	398	905.961563874833	1.722387883416
9	403	910.851857101957	2.789112960416
9	424	930.827557754315	0
9	427	936.983423856897	0
9	451	975.863125736149	0
9	473	1024.781438977254	0
9	478	1031.249239247124	0
9	488	1057.375757117136	0
9	496	1071.984350674741	0
9	505	1097.434692986436	10.087285490819
9	510	1104.624125570428	0
9	527	1131.913251019904	0
9	532	1135.430596268884	0
9	541	1156.225977596079	0
9	551	1183.033137147023	0
9	566	1221.128062872054	36.728382108633
9	567	1223.141785880922	20.318085198238
9	584	1290.756257528264	0
9	589	1296.715974128971	4.942849669838
9	593	1303.250290103507	0
9	596	1311.742924506421	0
9	599	1321.292441172663	2.457446807955
9	605	1341.051374691128	0
9	608	1348.418308572707	0
9	616	1352.969785587635	0
9	626	1392.271716502791	0
9	639	1410.317810834177	15.066055039851
9	660	1437.737610161415	16.938772081035
9	669	1457.624192258209	25.309951661283
9	670	1470.12619286599	37.663856180495
9	673	1477.626372384345	38.103817557026
9	674	1479.943098605948	26.076229287791
9	731	1572.04492876378	0
9	737	1595.075952196652	0
9	748	1640.764755717333	0
9	754	1652.793029395307	0
9	764	1681.66743090527	0
9	782	1726.483585756461	0
9	797	1750.009713761868	18.791809834491
9	804	1776.460904830675	31.398512282108
9	807	1779.345331077513	17.65700130323
9	830	1834.890265730179	0
9	842	1861.258659594882	0
9	847	1866.83802322629	4.300878452143
9	869	1921.970189220149	0
9	876	1926.174871237724	0
9	884	1939.677308397534	0
9	890	1947.375216089019	0
9	908	1982.883816033365	0
9	911	1984.495647383831	0.510831072215
9	914	1996.194528862775	4.907691390724
9	923	2005.613426363829	8.859273708148
9	932	2036.415834008379	33.949705518491
9	937	2055.107241010381	0
9	947	2068.075372850136	0
9	952	2080.683318268441	5.050486065677
9	962	2104.666754849128	0
9	973	2129.114134762623	1.224715620342
9	989	2158.870692950259	0
9	994	2167.53700151335	0.182994689196
9	1001	2188.12599603428	0
9	1022	2251.243384943465	0
9	1025	2258.364926004097	0
9	1028	2269.872364346719	0
9	1043	2307.555450401146	0
9	1070	2408.063543574337	0
9	1073	2414.347740157618	4.833119490593
9	1082	2434.329446261122	9.921719760311
9	1083	2439.429502741714	7.06572757585
9	1097	2490.842751616098	0
10	270	707.079421658916	8
10	310	762.10861487089	9
10	367	872.233908686601	10
10	389	897.458853731429	11
10	424	930.827557754315	12
10	427	936.983423856897	13
10	451	975.863125736149	14
10	478	1031.249239247124	15
10	496	1071.984350674741	16
10	510	1104.624125570428	17
10	532	1135.430596268884	18
10	541	1156.225977596079	19
10	616	1352.969785587635	20
10	748	1640.764755717333	21
10	754	1652.793029395307	22
10	842	1861.258659594882	23
10	876	1926.174871237724	24
10	937	2055.107241010381	25
11	1100	2500	0.1024
12	1100	2500	0.0436

