file 59215 1678560093                                           
version 2
run experiments_hard_game_mode1-621-20230311-19:41:33-7806
attr configname experiments_hard_game_mode1
attr datetime 20230311-19:41:33
attr experiment experiments_hard_game_mode1
attr inifile omnetpp.ini
attr iterationvars "$0=8.5, $1=3, $2=0"
attr iterationvarsf 8.5,3,0-
attr measurement "$0=8.5, $1=3, $2=0"
attr network Network
attr processid 7806
attr repetition 21
attr replication #21
attr resultdir results
attr runnumber 621
attr seedset 21
param *.boss.arrival_mean 20
param *.boss.service_mean 8.5
param *.minion.arrival_mean 10
param *.minion.service_mean 3
param *.player.recover_rate_x 0
param **.minion.arrival_distribution 0
param **.minion.service_distribution 0
param **.boss.arrival_distribution 0
param **.boss.service_distribution 0

vector 0 Network.player boss_defeated_stat:vector ETV
attr source signal_boss_defeated
vector 1 Network.player boss_jobs_queue_number_stat:vector ETV
attr source signal_boss_jobs_queue_number
vector 2 Network.player boss_response_time_stat:vector ETV
attr source signal_boss_response_time
vector 3 Network.player minion_waiting_time_stat:vector ETV
attr source signal_minion_waiting_time
vector 4 Network.player minion_defeated_stat:vector ETV
attr source signal_minion_defeated
vector 5 Network.player minion_jobs_queue_number_stat:vector ETV
attr source signal_minion_jobs_queue_number
vector 6 Network.player minion_response_time_stat:vector ETV
attr source signal_minion_response_time
vector 7 Network.player minion_jobs_number_stat:vector ETV
attr source signal_minion_jobs_number
vector 8 Network.player boss_jobs_number_stat:vector ETV
attr source signal_boss_jobs_number
vector 9 Network.player boss_waiting_time_stat:vector ETV
attr source signal_boss_waiting_time
vector 10 Network.player minion_recovered_stat:vector ETV
attr source signal_minion_recovered
vector 11 Network.player minion_throughput:vector ETV
attr source signal_minion_throughput
vector 12 Network.player boss_throughput:vector ETV
attr source signal_boss_throughput
0	2011 2539 152 1088 352.004986605385 2453.65447470372 95 15 109 5890 436620
1	4550 4876 152 1097 352.004986605385 2490.842751616098 190 0 4 110 218
2	9426 3698 152 1088 352.004986605385 2453.65447470372 95 0.090283959029 42.466483176952 1151.151638202 26897.473731264
3	13124 8420 152 1094 352.004986605385 2489.019590075643 241 0 81.742656315999 3708.9367323312 171625.92576525
4	21544 6057 153 1095 352.694849269202 2489.096011024566 221 36 256 32266 5610306
5	27601 11366 153 1099 352.694849269202 2491.481527160442 442 0 14 874 5058
6	38967 8620 153 1095 352.694849269202 2489.096011024566 221 0.00251240124 82.807028445611 4082.2478864141 189792.77833406
7	47587 5685 155 1099 363.579054885799 2491.481527160442 221 1 15 658 3624
8	53272 2442 185 1097 437.655607876823 2490.842751616098 95 1 5 150 314
9	55714 2910 185 1097 437.655607876823 2490.842751616098 95 0 34.611997346132 420.5581022906 8637.2421511613
10	58624 550 214 994 529.768904742497 2167.354006824154 20 8 27 350 6790
11	59174 20 1100 1100 2500 2500 1 0.1024 0.1024 0.1024 0.01048576
12	59194 20 1100 1100 2500 2500 1 0.0436 0.0436 0.0436 0.00190096

