version 2
run experiments_hard_game_mode1-1590-20230311-19:45:16-13025
attr configname experiments_hard_game_mode1
attr datetime 20230311-19:45:16
attr experiment experiments_hard_game_mode1
attr inifile omnetpp.ini
attr iterationvars "$0=10, $1=4, $2=100"
attr iterationvarsf 10,4,100-
attr measurement "$0=10, $1=4, $2=100"
attr network Network
attr processid 13025
attr repetition 0
attr replication #0
attr resultdir results
attr runnumber 1590
attr seedset 0
param *.boss.arrival_mean 20
param *.boss.service_mean 10
param *.minion.arrival_mean 10
param *.minion.service_mean 4
param *.player.recover_rate_x 100
param **.minion.arrival_distribution 0
param **.minion.service_distribution 0
param **.boss.arrival_distribution 0
param **.boss.service_distribution 0

vector 0 Network.player boss_defeated_stat:vector ETV
attr source signal_boss_defeated
vector 1 Network.player boss_jobs_queue_number_stat:vector ETV
attr source signal_boss_jobs_queue_number
vector 2 Network.player boss_response_time_stat:vector ETV
attr source signal_boss_response_time
vector 3 Network.player minion_jobs_number_stat:vector ETV
attr source signal_minion_jobs_number
vector 4 Network.player minion_jobs_queue_number_stat:vector ETV
attr source signal_minion_jobs_queue_number
vector 5 Network.player minion_waiting_time_stat:vector ETV
attr source signal_minion_waiting_time
vector 6 Network.player minion_defeated_stat:vector ETV
attr source signal_minion_defeated
vector 7 Network.player minion_response_time_stat:vector ETV
attr source signal_minion_response_time
vector 8 Network.player boss_jobs_number_stat:vector ETV
attr source signal_boss_jobs_number
vector 9 Network.player boss_waiting_time_stat:vector ETV
attr source signal_boss_waiting_time
vector 10 Network.player minion_recovered_stat:vector ETV
attr source signal_minion_recovered
vector 11 Network.player minion_throughput:vector ETV
attr source signal_minion_throughput
vector 12 Network.player boss_throughput:vector ETV
attr source signal_boss_throughput
0	168	351.56523226832	22
0	174	371.161730847007	23
0	181	394.073267587881	24
0	184	404.547063019518	25
0	189	407.161399666499	26
0	194	422.410962866584	27
0	203	441.191323110394	28
0	206	452.469311228583	29
0	210	473.127867619776	30
0	221	506.053196726652	31
0	228	530.506378241894	32
0	233	541.820029715922	33
0	248	571.89650949516	34
0	251	580.080305351255	35
0	262	617.837137086659	36
0	265	621.964984838068	37
0	270	628.007316689124	38
0	271	633.370481005002	39
0	308	702.454017249657	40
0	318	711.815167157369	41
0	325	719.18756768247	42
0	334	731.001136498689	43
0	345	739.835015943779	44
0	350	745.641306369773	45
0	355	748.856040707124	46
0	356	750.562355127483	47
0	357	756.624855585994	48
0	364	764.491723151713	49
0	367	778.66607541045	50
0	370	793.821670341205	51
0	379	811.575048652269	52
0	382	815.233121417241	53
0	383	818.211594276723	54
0	384	820.721340506035	55
0	403	858.49548845264	56
0	404	863.405248773014	57
0	411	876.078707495802	58
0	424	903.627555624134	59
0	425	903.835855092823	60
0	434	941.130964730959	61
0	435	942.670840507028	62
0	440	953.829961578584	63
0	445	957.764924446356	64
0	456	981.07827922596	65
0	465	997.6293915942	66
0	476	1016.321254321086	67
0	477	1021.412707286406	68
0	480	1026.160763415891	69
0	485	1037.315896490448	70
0	490	1042.539036175728	71
0	497	1065.899238655763	72
0	507	1102.718251055573	73
0	555	1201.477626566601	74
0	567	1211.517553477915	75
0	574	1224.020016028859	76
0	577	1228.507366416466	77
0	578	1228.741256121388	78
0	588	1239.339472938261	79
0	610	1278.833292195457	80
0	639	1347.049488208161	81
0	652	1364.352588502699	82
0	658	1376.271712726163	83
0	665	1390.061224082391	84
0	672	1422.037320279558	85
0	692	1528.319705444082	86
0	693	1531.769890795974	87
0	700	1537.121404029327	88
0	711	1557.714066472987	89
0	718	1568.316568195709	90
0	725	1588.438645239616	91
0	733	1612.734725322112	92
0	744	1622.172847555283	93
0	753	1642.65786318354	94
0	760	1655.382686928459	95
0	771	1681.33754184128	96
0	772	1684.594531739979	97
0	775	1691.100682204951	98
0	808	1753.947916734102	99
0	819	1780.676534764722	100
0	826	1797.908431311163	101
0	840	1843.559494424737	102
0	841	1845.808178734044	103
0	863	1890.801402516414	104
0	872	1906.483581957247	105
0	889	1952.277573468556	106
0	904	1972.855302917583	107
0	918	1998.217614305955	108
0	925	2004.826070363196	109
0	928	2010.730179347396	110
0	931	2015.227111694796	111
0	941	2034.351372862893	112
0	950	2047.829662673671	113
0	953	2055.088321533893	114
0	954	2068.82195373218	115
0	972	2098.168899986957	116
0	1005	2205.63607187993	117
0	1022	2267.080398081384	118
0	1039	2332.766166665395	119
0	1042	2338.866672485904	120
0	1058	2371.956811403723	121
0	1072	2410.060559765961	122
0	1073	2421.090824084189	123
0	1080	2441.152056419791	124
0	1089	2467.54533958691	125
0	1099	2484.278232401928	126
0	1102	2492.783118720262	127
1	168	351.56523226832	0
1	173	365.058342191057	0
1	174	371.161730847007	0
1	176	388.037052425803	0
1	180	390.927857908176	1
1	181	394.073267587881	1
1	184	404.547063019518	0
1	188	404.73333087535	0
1	189	407.161399666499	0
1	193	419.146910101711	0
1	194	422.410962866584	0
1	200	436.823234710174	0
1	202	440.900837049397	1
1	203	441.191323110394	1
1	206	452.469311228583	0
1	209	466.342603331937	0
1	210	473.127867619776	0
1	218	497.116149187221	0
1	220	503.09769978815	1
1	221	506.053196726652	1
1	228	530.506378241894	0
1	232	541.577288411556	0
1	233	541.820029715922	0
1	241	557.379584999622	0
1	247	571.013320665705	1
1	248	571.89650949516	1
1	251	580.080305351255	0
1	253	581.474923170251	0
1	262	617.837137086659	0
1	264	618.964030904645	0
1	265	621.964984838068	0
1	267	622.85963881137	0
1	269	624.51956532149	1
1	270	628.007316689124	1
1	271	633.370481005002	0
1	305	694.407150928009	0
1	308	702.454017249657	0
1	315	708.481046712107	0
1	318	711.815167157369	0
1	320	715.529536791828	0
1	322	716.879841144914	1
1	325	719.18756768247	1
1	331	723.6697040014	1
1	334	731.001136498689	1
1	338	734.846307524025	1
1	342	737.31664614593	2
1	344	739.346914019748	3
1	345	739.835015943779	3
1	347	743.358100075954	3
1	350	745.641306369773	3
1	352	746.078159748484	3
1	355	748.856040707124	3
1	356	750.562355127483	2
1	357	756.624855585994	1
1	361	759.713988500873	1
1	364	764.491723151713	1
1	366	777.877727033664	1
1	367	778.66607541045	1
1	370	793.821670341205	0
1	372	794.561121372008	0
1	374	799.685099640979	1
1	376	804.701437837468	2
1	378	806.963595367265	3
1	379	811.575048652269	3
1	382	815.233121417241	2
1	383	818.211594276723	1
1	384	820.721340506035	0
1	394	836.140137449287	0
1	396	841.117217619398	1
1	402	858.339450889291	2
1	403	858.49548845264	2
1	404	863.405248773014	1
1	406	866.949764860109	1
1	408	870.623974825057	2
1	411	876.078707495802	2
1	413	883.238222931355	2
1	421	892.398818790866	3
1	423	896.905318042219	4
1	424	903.627555624134	4
1	425	903.835855092823	3
1	427	909.552892526914	3
1	431	930.008526162325	4
1	434	941.130964730959	4
1	435	942.670840507028	3
1	439	951.250248410845	3
1	440	953.829961578584	3
1	445	957.764924446356	2
1	451	964.447198103986	2
1	456	981.07827922596	2
1	462	995.956600520193	2
1	465	997.6293915942	2
1	473	1010.030117456946	2
1	476	1016.321254321086	2
1	477	1021.412707286406	1
1	480	1026.160763415891	0
1	484	1031.787232155939	0
1	485	1037.315896490448	0
1	489	1041.57153689313	0
1	490	1042.539036175728	0
1	496	1060.559683230173	0
1	497	1065.899238655763	0
1	504	1092.122097599442	0
1	507	1102.718251055573	0
1	550	1186.006490948789	0
1	555	1201.477626566601	0
1	558	1203.356701488495	0
1	562	1205.901663236199	1
1	566	1209.443534644607	2
1	567	1211.517553477915	2
1	569	1212.660171838827	2
1	574	1224.020016028859	2
1	577	1228.507366416466	1
1	578	1228.741256121388	0
1	587	1236.78984715634	0
1	588	1239.339472938261	0
1	609	1275.038720804297	0
1	610	1278.833292195457	0
1	638	1341.831971966471	0
1	639	1347.049488208161	0
1	649	1356.079627233473	0
1	652	1364.352588502699	0
1	655	1369.942905406479	0
1	657	1374.84225275845	1
1	658	1376.271712726163	1
1	665	1390.061224082391	0
1	671	1418.900678856088	0
1	672	1422.037320279558	0
1	689	1518.913265032233	0
1	691	1527.272532464144	1
1	692	1528.319705444082	1
1	693	1531.769890795974	0
1	695	1534.84794874575	0
1	700	1537.121404029327	0
1	708	1551.594958035781	0
1	710	1557.582850544547	1
1	711	1557.714066472987	1
1	718	1568.316568195709	0
1	720	1568.739307218153	0
1	725	1588.438645239616	0
1	732	1601.86730711915	0
1	733	1612.734725322112	0
1	737	1613.347843900331	0
1	743	1622.076911568479	1
1	744	1622.172847555283	1
1	753	1642.65786318354	0
1	759	1652.049086036555	0
1	760	1655.382686928459	0
1	764	1664.665401336451	0
1	770	1680.005761790246	1
1	771	1681.33754184128	1
1	772	1684.594531739979	0
1	774	1686.414640465257	0
1	775	1691.100682204951	0
1	803	1747.885153759755	0
1	808	1753.947916734102	0
1	818	1779.894755724619	0
1	819	1780.676534764722	0
1	825	1795.609136824645	0
1	826	1797.908431311163	0
1	837	1829.264198008331	0
1	839	1830.977423873753	1
1	840	1843.559494424737	1
1	841	1845.808178734044	0
1	860	1890.142463571974	0
1	863	1890.801402516414	0
1	869	1899.267394109141	0
1	872	1906.483581957247	0
1	880	1933.886473698141	0
1	889	1952.277573468556	0
1	903	1971.942596377363	0
1	904	1972.855302917583	0
1	909	1986.420461942477	0
1	917	1996.847244160215	1
1	918	1998.217614305955	1
1	922	2001.842081440919	1
1	924	2002.393665442616	2
1	925	2004.826070363196	2
1	928	2010.730179347396	1
1	931	2015.227111694796	0
1	940	2029.851865139414	0
1	941	2034.351372862893	0
1	943	2035.530374205771	0
1	949	2046.826782324502	1
1	950	2047.829662673671	1
1	952	2048.216878838541	1
1	953	2055.088321533893	1
1	954	2068.82195373218	0
1	969	2092.056321117119	0
1	972	2098.168899986957	0
1	1004	2193.888924218505	0
1	1005	2205.63607187993	0
1	1019	2250.55891489116	0
1	1022	2267.080398081384	0
1	1036	2321.080740139735	0
1	1039	2332.766166665395	0
1	1041	2335.064538159043	0
1	1042	2338.866672485904	0
1	1057	2367.279148164219	0
1	1058	2371.956811403723	0
1	1065	2391.495205482738	0
1	1071	2409.912083040808	1
1	1072	2410.060559765961	1
1	1073	2421.090824084189	0
1	1079	2434.432498188945	0
1	1080	2441.152056419791	0
1	1088	2463.3924778558	0
1	1089	2467.54533958691	0
1	1094	2476.510344138141	0
1	1098	2480.218280446483	1
1	1099	2484.278232401928	1
1	1102	2492.783118720262	0
2	168	351.56523226832	1.570868247462
2	174	371.161730847007	6.10338865595
2	181	394.073267587881	6.036215162078
2	184	404.547063019518	13.619205111342
2	189	407.161399666499	2.428068791149
2	194	422.410962866584	3.264052764873
2	203	441.191323110394	4.36808840022
2	206	452.469311228583	11.568474179186
2	210	473.127867619776	6.785264287839
2	221	506.053196726652	8.937047539431
2	228	530.506378241894	27.408678453744
2	233	541.820029715922	0.242741304366
2	248	571.89650949516	14.516924495538
2	251	580.080305351255	9.06698468555
2	262	617.837137086659	36.362213916408
2	265	621.964984838068	3.000953933423
2	270	628.007316689124	5.147677877754
2	271	633.370481005002	8.850915683512
2	308	702.454017249657	8.046866321648
2	318	711.815167157369	3.334120445262
2	325	719.18756768247	3.658030890642
2	334	731.001136498689	14.121295353775
2	345	739.835015943779	16.165311942379
2	350	745.641306369773	10.794998845748
2	355	748.856040707124	11.539394561194
2	356	750.562355127483	11.215441107735
2	357	756.624855585994	13.26675551004
2	364	764.491723151713	18.413563403229
2	367	778.66607541045	18.952086909577
2	370	793.821670341205	15.943943307541
2	379	811.575048652269	17.013927280261
2	382	815.233121417241	15.548021776262
2	383	818.211594276723	13.510156439255
2	384	820.721340506035	13.75774513877
2	403	858.49548845264	22.355351003353
2	404	863.405248773014	22.288031153616
2	411	876.078707495802	17.739256606511
2	424	903.627555624134	36.677790764025
2	425	903.835855092823	33.211880267766
2	434	941.130964730959	57.892741799604
2	435	942.670840507028	50.272021716162
2	440	953.829961578584	56.924643536365
2	445	957.764924446356	48.212031919442
2	456	981.07827922596	51.069753063635
2	465	997.6293915942	46.379143183355
2	476	1016.321254321086	51.8740562171
2	477	1021.412707286406	25.456106766213
2	480	1026.160763415891	16.130645958945
2	485	1037.315896490448	5.528664334509
2	490	1042.539036175728	0.967499282598
2	497	1065.899238655763	5.33955542559
2	507	1102.718251055573	10.596153456131
2	555	1201.477626566601	15.471135617812
2	567	1211.517553477915	8.16085198942
2	574	1224.020016028859	18.11835279266
2	577	1228.507366416466	19.063831771859
2	578	1228.741256121388	16.081084282561
2	588	1239.339472938261	2.549625781921
2	610	1278.833292195457	3.79457139116
2	639	1347.049488208161	5.21751624169
2	652	1364.352588502699	8.272961269226
2	658	1376.271712726163	6.328807319684
2	665	1390.061224082391	15.218971323941
2	672	1422.037320279558	3.13664142347
2	692	1528.319705444082	9.406440411849
2	693	1531.769890795974	4.49735833183
2	700	1537.121404029327	2.273455283577
2	711	1557.714066472987	6.119108437206
2	718	1568.316568195709	10.733717651162
2	725	1588.438645239616	19.699338021463
2	733	1612.734725322112	10.867418202962
2	744	1622.172847555283	8.825003654952
2	753	1642.65786318354	20.580951615061
2	760	1655.382686928459	3.333600891904
2	771	1681.33754184128	16.672140504829
2	772	1684.594531739979	4.588769949733
2	775	1691.100682204951	4.686041739694
2	808	1753.947916734102	6.062762974347
2	819	1780.676534764722	0.781779040103
2	826	1797.908431311163	2.299294486518
2	840	1843.559494424737	14.295296416406
2	841	1845.808178734044	14.830754860291
2	863	1890.801402516414	0.65893894444
2	872	1906.483581957247	7.216187848106
2	889	1952.277573468556	18.391099770415
2	904	1972.855302917583	0.91270654022
2	918	1998.217614305955	11.797152363478
2	925	2004.826070363196	7.978826202981
2	928	2010.730179347396	8.888097906477
2	931	2015.227111694796	12.83344625218
2	941	2034.351372862893	4.499507723479
2	950	2047.829662673671	12.2992884679
2	953	2055.088321533893	8.261539209391
2	954	2068.82195373218	20.605074893639
2	972	2098.168899986957	6.112578869838
2	1005	2205.63607187993	11.747147661425
2	1022	2267.080398081384	16.521483190224
2	1039	2332.766166665395	11.68542652566
2	1042	2338.866672485904	3.802134326861
2	1058	2371.956811403723	4.677663239504
2	1072	2410.060559765961	18.565354283223
2	1073	2421.090824084189	11.178741043381
2	1080	2441.152056419791	6.719558230846
2	1089	2467.54533958691	4.15286173111
2	1099	2484.278232401928	7.767888263787
2	1102	2492.783118720262	12.564838273779
3	170	356.599406890352	1
3	178	388.101106177111	1
3	183	403.158948763485	2
3	186	404.671257300135	3
3	197	425.074399879554	1
3	205	445.483322038671	1
3	212	483.935540730089	1
3	214	490.35263245687	2
3	223	506.405028027485	1
3	225	522.545048776411	2
3	227	528.734343372678	3
3	230	536.083987584576	4
3	238	551.249347324478	2
3	243	562.60873674158	2
3	245	563.867480835961	3
3	250	576.619757858197	4
3	255	586.834076601689	5
3	257	595.55728855211	6
3	259	597.10458535711	7
3	261	604.812931941783	8
3	273	633.757136721654	9
3	277	647.970783522591	8
3	280	655.34905644015	8
3	282	656.468518046476	9
3	286	661.824175248755	8
3	289	668.241122269066	8
3	292	671.313925790591	8
3	294	673.375958610896	9
3	301	688.258506868413	5
3	307	701.611408714652	4
3	311	707.702232946483	4
3	317	710.142717853848	3
3	324	718.54606490997	4
3	327	719.998845182892	5
3	329	720.188530874903	6
3	333	724.10623898167	7
3	336	733.720048372328	8
3	340	735.341413266788	9
3	349	744.811380038538	10
3	354	747.325799359286	11
3	359	756.921279132968	12
3	363	761.806849626048	13
3	369	790.585999838825	14
3	381	813.875133580967	15
3	387	825.326523127968	15
3	389	831.303983896152	16
3	392	835.759168846664	16
3	398	845.254114681631	17
3	400	850.999438749043	18
3	410	874.262949365986	19
3	415	886.224027360557	20
3	417	887.269639618309	21
3	419	887.890792522973	22
3	429	922.892929367519	23
3	433	933.882054043028	24
3	437	944.470395357904	25
3	442	955.576369814776	26
3	444	957.450630474955	27
3	447	959.812697535782	28
3	449	964.246737821988	29
3	453	965.627024706273	30
3	455	979.517451604183	31
3	458	983.30707124701	32
3	460	992.667686844724	33
3	464	997.18870744697	34
3	467	1001.119833020011	35
3	469	1009.564110955288	36
3	471	1009.955942519419	37
3	475	1015.729185627484	38
3	479	1025.78789567915	39
3	500	1070.332864140911	31
3	506	1102.262330561447	30
3	509	1103.338681643008	31
3	513	1113.91694577653	30
3	517	1116.259960964286	29
3	522	1126.340153418487	27
3	527	1128.099288872743	25
3	546	1181.700292375175	9
3	552	1192.287719526116	8
3	554	1201.006878062373	9
3	560	1203.927683395045	9
3	564	1209.278330165878	10
3	571	1215.55774597579	11
3	573	1221.995555991815	12
3	576	1224.798326076605	13
3	581	1234.566966817312	13
3	585	1236.298241378774	12
3	590	1240.423253677999	13
3	592	1241.592807775924	14
3	596	1252.824490791257	13
3	601	1263.505212762752	11
3	603	1267.320771196494	12
3	605	1268.807893889015	13
3	613	1283.87424722174	11
3	617	1286.063053186813	10
3	627	1315.934952105333	3
3	631	1320.535091682736	2
3	635	1331.397785491519	1
3	641	1348.601102068685	1
3	643	1348.737747852994	2
3	645	1349.759196668243	3
3	651	1359.510216009806	2
3	660	1377.70840520265	2
3	662	1388.906548860189	3
3	664	1389.916896613279	4
3	674	1425.652780336723	1
3	677	1463.143094932568	1
3	680	1484.19630794049	1
3	683	1490.519673904448	1
3	686	1497.64550983778	1
3	697	1535.26478268282	1
3	699	1535.838051947058	2
3	703	1545.122836916072	2
3	706	1551.122305782482	2
3	713	1564.564758504005	3
3	715	1564.766659785467	4
3	717	1565.16642277605	5
3	722	1570.99520666472	6
3	724	1574.319309074357	7
3	735	1613.23501030281	3
3	739	1614.515577955922	4
3	741	1618.96977257512	5
3	746	1622.481533468933	6
3	748	1629.037996312569	7
3	750	1630.301882676822	8
3	752	1641.970617942308	9
3	756	1645.797627430926	9
3	766	1667.039999400943	7
3	768	1672.388843158512	8
3	779	1697.427960989364	7
3	781	1698.090935004186	8
3	783	1700.534889485004	9
3	786	1712.326784755656	9
3	791	1720.655219916318	7
3	795	1729.016195236021	6
3	805	1749.048600461093	1
3	807	1752.132748862071	2
3	811	1759.245228234243	2
3	814	1766.652817738713	2
3	821	1791.508641308481	1
3	823	1792.495144392664	2
3	830	1817.898189472251	1
3	833	1826.477145882993	1
3	835	1827.344850706389	2
3	845	1853.837409993153	1
3	847	1857.090814148443	2
3	851	1860.926416289429	1
3	853	1861.02042379607	2
3	857	1872.028882896978	1
3	862	1890.502159406996	1
3	866	1891.915466542604	1
3	871	1902.333273084399	1
3	875	1914.932611185489	1
3	878	1933.34543590036	1
3	882	1936.761977570621	2
3	884	1939.837154808245	3
3	886	1941.860659193917	4
3	888	1946.932660426483	5
3	891	1955.763950846076	6
3	894	1963.81192484409	6
3	896	1964.015049432046	7
3	899	1965.817571951894	7
3	907	1983.474982676025	5
3	911	1988.09229163647	6
3	913	1988.139357041393	7
3	915	1989.722772103698	8
3	920	2001.049113523423	9
3	927	2009.479943844907	10
3	930	2012.627160453453	11
3	937	2024.792246987819	8
3	945	2038.079825725322	8
3	947	2041.483293107674	9
3	958	2074.234724884822	8
3	963	2079.913766419625	6
3	966	2082.773976144706	6
3	971	2096.88422023765	6
3	976	2105.46814991594	5
3	979	2110.511587981818	5
3	982	2119.477496689677	5
3	989	2142.114832448286	1
3	992	2150.60704056393	1
3	994	2160.793627864118	2
3	997	2163.317827793029	2
3	1001	2185.53289677777	1
3	1007	2216.055713346613	1
3	1009	2227.451792981942	2
3	1011	2233.378033256464	3
3	1013	2239.341827199759	4
3	1021	2258.076425998331	1
3	1025	2296.506491830768	1
3	1028	2308.528877503233	1
3	1030	2309.764143976854	2
3	1032	2313.294345309596	3
3	1038	2327.862530895238	2
3	1045	2344.671752940697	2
3	1049	2349.978977906862	1
3	1052	2355.029165384409	1
3	1055	2366.281985552846	1
3	1061	2387.576979513526	1
3	1063	2390.451084274226	2
3	1067	2399.15644253749	3
3	1069	2402.913830961558	4
3	1076	2424.26213546139	4
3	1085	2457.905839991901	1
3	1091	2469.699669328347	1
3	1096	2478.578283432714	1
3	1101	2491.497376120721	2
4	170	356.599406890352	0
4	171	359.871436135872	0
4	178	388.101106177111	0
4	183	403.158948763485	1
4	186	404.671257300135	2
4	190	407.766491337186	2
4	191	418.96240578232	1
4	195	424.633735667568	0
4	197	425.074399879554	0
4	198	425.957492747092	0
4	205	445.483322038671	0
4	207	458.496642224554	0
4	212	483.935540730089	0
4	214	490.35263245687	1
4	215	490.388211495126	1
4	216	495.422920339827	0
4	223	506.405028027485	0
4	225	522.545048776411	1
4	227	528.734343372678	2
4	230	536.083987584576	3
4	234	548.313315152636	3
4	235	549.817469642294	2
4	236	550.207042598793	1
4	238	551.249347324478	1
4	239	555.127010006594	1
4	243	562.60873674158	1
4	245	563.867480835961	2
4	250	576.619757858197	3
4	255	586.834076601689	4
4	257	595.55728855211	5
4	259	597.10458535711	6
4	261	604.812931941783	7
4	273	633.757136721654	8
4	274	641.381002913306	8
4	275	644.485081294411	7
4	277	647.970783522591	7
4	278	653.485304771267	7
4	280	655.34905644015	7
4	282	656.468518046476	8
4	283	660.553109645635	8
4	284	660.90862776	7
4	286	661.824175248755	7
4	287	667.987133402488	7
4	289	668.241122269066	7
4	290	670.47282656437	7
4	292	671.313925790591	7
4	294	673.375958610896	8
4	295	678.739580196498	8
4	296	678.898931713119	7
4	297	680.174521907046	6
4	298	680.919023062879	5
4	299	681.163305535532	4
4	301	688.258506868413	4
4	302	689.582917474053	4
4	303	694.023973597788	3
4	307	701.611408714652	3
4	309	706.050429575306	3
4	311	707.702232946483	3
4	312	708.236984343654	3
4	313	708.296523166063	2
4	317	710.142717853848	2
4	324	718.54606490997	3
4	327	719.998845182892	4
4	329	720.188530874903	5
4	333	724.10623898167	6
4	336	733.720048372328	7
4	340	735.341413266788	8
4	349	744.811380038538	9
4	354	747.325799359286	10
4	359	756.921279132968	11
4	363	761.806849626048	12
4	369	790.585999838825	13
4	381	813.875133580967	14
4	385	822.84401109028	14
4	387	825.326523127968	14
4	389	831.303983896152	15
4	390	834.424918547764	15
4	392	835.759168846664	15
4	398	845.254114681631	16
4	400	850.999438749043	17
4	410	874.262949365986	18
4	415	886.224027360557	19
4	417	887.269639618309	20
4	419	887.890792522973	21
4	429	922.892929367519	22
4	433	933.882054043028	23
4	437	944.470395357904	24
4	442	955.576369814776	25
4	444	957.450630474955	26
4	447	959.812697535782	27
4	449	964.246737821988	28
4	453	965.627024706273	29
4	455	979.517451604183	30
4	458	983.30707124701	31
4	460	992.667686844724	32
4	464	997.18870744697	33
4	467	1001.119833020011	34
4	469	1009.564110955288	35
4	471	1009.955942519419	36
4	475	1015.729185627484	37
4	479	1025.78789567915	38
4	481	1027.041110794755	38
4	482	1031.750137158431	37
4	486	1038.832254388069	36
4	487	1039.445419205497	35
4	491	1048.656268810479	34
4	492	1055.854443726474	33
4	493	1057.982224344296	32
4	494	1058.056054656294	31
4	498	1066.038313856011	30
4	500	1070.332864140911	30
4	501	1071.585800965438	30
4	502	1075.49878449181	29
4	506	1102.262330561447	29
4	509	1103.338681643008	30
4	510	1104.799877239022	30
4	511	1109.122601999071	29
4	513	1113.91694577653	29
4	514	1114.638537043643	29
4	515	1116.056647753134	28
4	517	1116.259960964286	28
4	518	1117.37313140538	28
4	519	1119.736465016203	27
4	520	1125.965352502716	26
4	522	1126.340153418487	26
4	523	1126.970107924844	26
4	524	1127.40591357721	25
4	525	1127.710692149444	24
4	527	1128.099288872743	24
4	528	1130.086749593381	24
4	529	1132.62051982494	23
4	530	1142.190362291036	22
4	531	1142.594828245797	21
4	532	1143.985202851851	20
4	533	1153.332674051522	19
4	534	1154.690121603188	18
4	535	1155.199139731122	17
4	536	1155.756319354978	16
4	537	1158.732392205219	15
4	538	1158.810620025442	14
4	539	1159.159929756333	13
4	540	1163.703137440831	12
4	541	1173.652119019714	11
4	542	1175.018988317535	10
4	543	1178.684570188984	9
4	544	1181.559155512809	8
4	546	1181.700292375175	8
4	547	1182.510296953603	8
4	548	1185.138440569516	7
4	552	1192.287719526116	7
4	554	1201.006878062373	8
4	556	1202.712141799966	8
4	560	1203.927683395045	8
4	564	1209.278330165878	9
4	571	1215.55774597579	10
4	573	1221.995555991815	11
4	576	1224.798326076605	12
4	579	1231.446991915538	12
4	581	1234.566966817312	12
4	582	1234.959015316752	12
4	583	1235.17837169165	11
4	585	1236.298241378774	11
4	590	1240.423253677999	12
4	592	1241.592807775924	13
4	593	1248.913163322028	13
4	594	1252.327531493964	12
4	596	1252.824490791257	12
4	597	1256.134563994835	12
4	598	1257.262700973798	11
4	599	1257.897411287232	10
4	601	1263.505212762752	10
4	603	1267.320771196494	11
4	605	1268.807893889015	12
4	606	1270.440668965506	12
4	607	1274.000291928186	11
4	611	1283.645962863726	10
4	613	1283.87424722174	10
4	614	1284.696700318042	10
4	615	1285.128531106109	9
4	617	1286.063053186813	9
4	618	1287.688604092145	9
4	619	1290.738151503932	8
4	620	1292.876275637468	7
4	621	1304.854258478465	6
4	622	1309.596173433448	5
4	623	1312.313620728213	4
4	624	1314.452586533092	3
4	625	1314.770907170191	2
4	627	1315.934952105333	2
4	628	1317.882247552194	2
4	629	1318.087224771726	1
4	631	1320.535091682736	1
4	632	1323.888169509211	1
4	633	1326.958759486635	0
4	635	1331.397785491519	0
4	636	1331.583409570635	0
4	641	1348.601102068685	0
4	643	1348.737747852994	1
4	645	1349.759196668243	2
4	646	1352.961234634757	2
4	647	1353.564368616543	1
4	651	1359.510216009806	1
4	653	1365.05964660697	1
4	660	1377.70840520265	1
4	662	1388.906548860189	2
4	664	1389.916896613279	3
4	666	1392.557908754233	3
4	667	1404.130233069927	2
4	668	1404.251250850113	1
4	669	1407.784174362599	0
4	674	1425.652780336723	0
4	675	1434.23939764427	0
4	677	1463.143094932568	0
4	678	1472.491880293041	0
4	680	1484.19630794049	0
4	681	1487.309282817123	0
4	683	1490.519673904448	0
4	684	1491.11123710553	0
4	686	1497.64550983778	0
4	687	1500.022195169322	0
4	697	1535.26478268282	0
4	699	1535.838051947058	1
4	701	1537.721331158924	1
4	703	1545.122836916072	1
4	704	1546.628862702778	1
4	706	1551.122305782482	1
4	713	1564.564758504005	2
4	715	1564.766659785467	3
4	717	1565.16642277605	4
4	722	1570.99520666472	5
4	724	1574.319309074357	6
4	726	1591.283749801675	6
4	727	1593.311594429494	5
4	728	1596.40403468238	4
4	729	1597.127025996054	3
4	730	1598.929388442499	2
4	735	1613.23501030281	2
4	739	1614.515577955922	3
4	741	1618.96977257512	4
4	746	1622.481533468933	5
4	748	1629.037996312569	6
4	750	1630.301882676822	7
4	752	1641.970617942308	8
4	754	1644.840897645819	8
4	756	1645.797627430926	8
4	757	1646.633935227607	8
4	761	1657.092093608017	7
4	762	1660.477366882227	6
4	766	1667.039999400943	6
4	768	1672.388843158512	7
4	776	1696.279161514941	7
4	777	1696.81930248993	6
4	779	1697.427960989364	6
4	781	1698.090935004186	7
4	783	1700.534889485004	8
4	784	1705.412106243118	8
4	786	1712.326784755656	8
4	787	1713.070373529502	8
4	788	1715.472929571838	7
4	789	1720.160302235509	6
4	791	1720.655219916318	6
4	792	1724.069481128821	6
4	793	1727.316689180442	5
4	795	1729.016195236021	5
4	796	1731.490338832318	5
4	797	1737.050623765819	4
4	798	1738.798069743756	3
4	799	1740.51442769212	2
4	800	1746.277143634031	1
4	801	1747.535591530246	0
4	805	1749.048600461093	0
4	807	1752.132748862071	1
4	809	1755.711446899088	1
4	811	1759.245228234243	1
4	812	1764.760530479253	1
4	814	1766.652817738713	1
4	815	1770.350572189504	1
4	816	1772.585675085084	0
4	821	1791.508641308481	0
4	823	1792.495144392664	1
4	827	1811.299821728196	1
4	828	1817.853770425233	0
4	830	1817.898189472251	0
4	831	1817.945140727124	0
4	833	1826.477145882993	0
4	835	1827.344850706389	1
4	842	1848.565668544676	1
4	843	1851.138365087642	0
4	845	1853.837409993153	0
4	847	1857.090814148443	1
4	848	1857.725635726553	1
4	849	1858.032261564226	0
4	851	1860.926416289429	0
4	853	1861.02042379607	1
4	854	1861.413938831362	1
4	855	1867.598880100244	0
4	857	1872.028882896978	0
4	858	1883.971160054036	0
4	862	1890.502159406996	0
4	864	1891.066249458797	0
4	866	1891.915466542604	0
4	867	1894.30617556511	0
4	871	1902.333273084399	0
4	873	1908.239527002421	0
4	875	1914.932611185489	0
4	876	1918.387305711921	0
4	878	1933.34543590036	0
4	882	1936.761977570621	1
4	884	1939.837154808245	2
4	886	1941.860659193917	3
4	888	1946.932660426483	4
4	891	1955.763950846076	5
4	892	1963.629866376964	5
4	894	1963.81192484409	5
4	896	1964.015049432046	6
4	897	1965.727785412355	6
4	899	1965.817571951894	6
4	900	1967.638659721442	6
4	901	1968.720790135209	5
4	905	1982.203160978147	4
4	907	1983.474982676025	4
4	911	1988.09229163647	5
4	913	1988.139357041393	6
4	915	1989.722772103698	7
4	920	2001.049113523423	8
4	927	2009.479943844907	9
4	930	2012.627160453453	10
4	932	2018.637367056299	10
4	933	2020.071848685436	9
4	934	2024.026387013856	8
4	935	2024.037884822048	7
4	937	2024.792246987819	7
4	938	2026.93324884556	7
4	945	2038.079825725322	7
4	947	2041.483293107674	8
4	955	2069.485840666222	8
4	956	2071.06777048298	7
4	958	2074.234724884822	7
4	959	2074.52478369402	7
4	960	2077.519914668117	6
4	961	2077.556109919237	5
4	963	2079.913766419625	5
4	964	2082.045440394013	5
4	966	2082.773976144706	5
4	967	2085.52388188476	5
4	971	2096.88422023765	5
4	973	2103.107212576672	5
4	974	2104.875333284339	4
4	976	2105.46814991594	4
4	977	2107.419685564911	4
4	979	2110.511587981818	4
4	980	2116.986887500236	4
4	982	2119.477496689677	4
4	983	2120.75724218506	4
4	984	2126.542992278741	3
4	985	2130.448855340588	2
4	986	2132.968738828019	1
4	987	2133.032529758493	0
4	989	2142.114832448286	0
4	990	2143.368205469067	0
4	992	2150.60704056393	0
4	994	2160.793627864118	1
4	995	2161.212051250381	1
4	997	2163.317827793029	1
4	998	2168.339903838172	1
4	999	2173.036225690131	0
4	1001	2185.53289677777	0
4	1002	2188.738722167154	0
4	1007	2216.055713346613	0
4	1009	2227.451792981942	1
4	1011	2233.378033256464	2
4	1013	2239.341827199759	3
4	1014	2239.747725608741	3
4	1015	2240.038358910487	2
4	1016	2240.794972726177	1
4	1017	2243.353209125675	0
4	1021	2258.076425998331	0
4	1023	2267.670389682543	0
4	1025	2296.506491830768	0
4	1026	2301.937550002151	0
4	1028	2308.528877503233	0
4	1030	2309.764143976854	1
4	1032	2313.294345309596	2
4	1033	2319.317049409161	2
4	1034	2320.16960485173	1
4	1038	2327.862530895238	1
4	1043	2341.363482316394	1
4	1045	2344.671752940697	1
4	1046	2344.81484200081	1
4	1047	2345.08795810715	0
4	1049	2349.978977906862	0
4	1050	2351.026322104385	0
4	1052	2355.029165384409	0
4	1053	2360.662720841512	0
4	1055	2366.281985552846	0
4	1059	2374.445704698207	0
4	1061	2387.576979513526	0
4	1063	2390.451084274226	1
4	1067	2399.15644253749	2
4	1069	2402.913830961558	3
4	1074	2422.026470906926	3
4	1076	2424.26213546139	3
4	1077	2424.896392145274	3
4	1081	2441.35430117793	2
4	1082	2446.326885214127	1
4	1083	2447.718145302673	0
4	1085	2457.905839991901	0
4	1086	2460.832243547006	0
4	1091	2469.699669328347	0
4	1092	2470.230463542785	0
4	1096	2478.578283432714	0
4	1101	2491.497376120721	1
4	1103	2493.539432164402	1
4	1104	2493.619753766657	0
5	170	356.599406890352	0
5	184	404.547063019518	16.445956842407
5	189	407.161399666499	4.002450903014
5	190	407.766491337186	3.095234037051
5	191	418.96240578232	14.22907490697
5	194	422.410962866584	3.264052764873
5	197	425.074399879554	0
5	206	452.469311228583	6.985989189912
5	212	483.935540730089	0
5	215	490.388211495126	0.035579038256
5	228	530.506378241894	24.101350214409
5	233	541.820029715922	19.274980939511
5	234	548.313315152636	19.578971779958
5	235	549.817469642294	13.733482057718
5	236	550.207042598793	8.629754187237
5	239	555.127010006594	3.877662682116
5	251	580.080305351255	22.700720351633
5	262	617.837137086659	55.228400345079
5	265	621.964984838068	58.097504002107
5	271	633.370481005002	56.750723146805
5	274	641.381002913306	59.906079743055
5	275	644.485081294411	57.651004692722
5	278	653.485304771267	57.928016219157
5	283	660.553109645635	63.448524288525
5	284	660.90862776	56.095695818217
5	287	667.987133402488	49.023102497843
5	290	670.47282656437	47.613187753
5	295	678.739580196498	44.982443474844
5	296	678.898931713119	30.928148190528
5	297	680.174521907046	24.825465466896
5	298	680.919023062879	24.450505016403
5	299	681.163305535532	19.339130286777
5	302	689.582917474053	21.341795204987
5	303	694.023973597788	22.710047807197
5	308	702.454017249657	29.078058638761
5	309	706.050429575306	17.791922706893
5	312	708.236984343654	13.829833415645
5	313	708.296523166063	6.685114451411
5	318	711.815167157369	4.112934210886
5	370	793.821670341205	85.340623629098
5	384	820.721340506035	110.57862265219
5	385	822.84401109028	107.31447429845
5	390	834.424918547764	115.87885363779
5	480	1026.160763415891	306.161918233
5	481	1027.041110794755	306.85257991985
5	482	1031.750137158431	307.64389817676
5	485	1037.315896490448	303.59584811812
5	486	1038.832254388069	303.49084112128
5	487	1039.445419205497	294.63403916696
5	490	1042.539036175728	295.21323681644
5	491	1048.656268810479	291.73498967751
5	492	1055.854443726474	294.04759410043
5	493	1057.982224344296	267.39622450547
5	494	1058.056054656294	263.49493328429
5	497	1065.899238655763	252.0241050748
5	498	1066.038313856011	240.71179072804
5	501	1071.585800965438	240.28181706929
5	502	1075.49878449181	239.73961564515
5	507	1102.718251055573	266.57811360629
5	510	1104.799877239022	259.54576255739
5	511	1109.122601999071	258.12316325003
5	514	1114.638537043643	240.37558767766
5	515	1116.056647753134	229.83262039258
5	518	1117.37313140538	230.10349178707
5	519	1119.736465016203	231.84567249323
5	520	1125.965352502716	203.0724231352
5	523	1126.970107924844	193.08805388182
5	524	1127.40591357721	182.93551821931
5	525	1127.710692149444	172.13432233467
5	528	1130.086749593381	172.63611911843
5	529	1132.62051982494	172.80782228916
5	530	1142.190362291036	177.94362446905
5	531	1142.594828245797	176.96780353952
5	532	1143.985202851851	164.46775124767
5	533	1153.332674051522	170.02560280451
5	534	1154.690121603188	162.02243475846
5	535	1155.199139731122	158.01043228415
5	536	1155.756319354978	154.63648633497
5	537	1158.732392205219	149.16828124993
5	538	1158.810620025442	148.85467750602
5	539	1159.159929756333	143.43074412885
5	540	1163.703137440831	137.91524176168
5	541	1173.652119019714	141.86488686377
5	542	1175.018988317535	133.4474514244
5	543	1178.684570188984	118.12488695881
5	544	1181.559155512809	111.2262913719
5	547	1182.510296953603	90.388199354161
5	548	1185.138440569516	82.876110008069
5	555	1201.477626566601	98.138944923593
5	556	1202.712141799966	88.795196023436
5	578	1228.741256121388	112.4812951571
5	579	1231.446991915538	105.10683849705
5	582	1234.959015316752	106.85972644401
5	583	1235.17837169165	53.478079316475
5	588	1239.339472938261	53.332981989472
5	593	1248.913163322028	56.625443795912
5	594	1252.327531493964	51.320653431591
5	597	1256.134563994835	52.77786250634
5	598	1257.262700973798	53.335017578753
5	599	1257.897411287232	48.619081121354
5	606	1270.440668965506	54.882922989716
5	607	1274.000291928186	52.004735936371
5	610	1278.833292195457	54.034966118852
5	611	1283.645962863726	49.078996046414
5	614	1284.696700318042	48.398458939268
5	615	1285.128531106109	48.338683949769
5	618	1287.688604092145	47.265350414146
5	619	1290.738151503932	49.145343728008
5	620	1292.876275637468	40.051784846211
5	621	1304.854258478465	41.349045715713
5	622	1309.596173433448	42.275402236954
5	623	1312.313620728213	43.505726839198
5	624	1314.452586533092	39.413865728795
5	625	1314.770907170191	30.896659948451
5	628	1317.882247552194	31.819194365381
5	629	1318.087224771726	2.152272666393
5	632	1323.888169509211	3.353077826475
5	635	1331.397785491519	0
5	641	1348.601102068685	0
5	646	1352.961234634757	4.223486781763
5	647	1353.564368616543	3.8051719483
5	652	1364.352588502699	8.272961269226
5	653	1365.05964660697	5.549430597164
5	665	1390.061224082391	20.118318675912
5	666	1392.557908754233	14.849503551583
5	667	1404.130233069927	15.223684209738
5	668	1404.251250850113	14.334354236834
5	674	1425.652780336723	0
5	677	1463.143094932568	0
5	680	1484.19630794049	0
5	683	1490.519673904448	0
5	686	1497.64550983778	0
5	700	1537.121404029327	1.856621346507
5	701	1537.721331158924	1.883279211866
5	704	1546.628862702778	1.506025786706
5	718	1568.316568195709	17.194262413227
5	725	1588.438645239616	36.843687203835
5	726	1591.283749801675	26.71899129767
5	727	1593.311594429494	28.544934644027
5	728	1596.40403468238	31.23761190633
5	729	1597.127025996054	28.387718777901
5	730	1598.929388442499	27.934181777779
5	733	1612.734725322112	38.415416247755
5	753	1642.65786318354	40.79055606439
5	754	1644.840897645819	31.605887343009
5	757	1646.633935227607	33.286091327276
5	760	1655.382686928459	40.867108972537
5	761	1657.092093608017	38.122321032897
5	762	1660.477366882227	37.995833413294
5	772	1684.594531739979	55.55653542741
5	775	1691.100682204951	60.798799528129
5	776	1696.279161514941	54.308543572633
5	777	1696.81930248993	51.021675059004
5	784	1705.412106243118	53.363020206563
5	787	1713.070373529502	48.404972193051
5	788	1715.472929571838	48.432930170895
5	789	1720.160302235509	47.771459076997
5	792	1724.069481128821	37.654840663564
5	793	1727.316689180442	29.888728191078
5	796	1731.490338832318	33.399403828132
5	797	1737.050623765819	36.515734280815
5	798	1738.798069743756	26.4712849881
5	799	1740.51442769212	19.859207775802
5	800	1746.277143634031	17.26094839801
5	808	1753.947916734102	4.899316273009
5	809	1755.711446899088	3.578698037017
5	812	1764.760530479253	5.51530224501
5	815	1770.350572189504	3.697754450791
5	821	1791.508641308481	0
5	826	1797.908431311163	5.413286918499
5	827	1811.299821728196	15.690684903551
5	830	1817.898189472251	0
5	833	1826.477145882993	0
5	841	1845.808178734044	18.463328027655
5	842	1848.565668544676	19.301470536345
5	845	1853.837409993153	0
5	848	1857.725635726553	0.63482157811
5	851	1860.926416289429	0
5	854	1861.413938831362	0.393515035292
5	857	1872.028882896978	0
5	863	1890.801402516414	0.299243109418
5	866	1891.915466542604	0
5	872	1906.483581957247	4.150308872848
5	875	1914.932611185489	0
5	878	1933.34543590036	0
5	889	1952.277573468556	18.391099770415
5	892	1963.629866376964	26.867888806343
5	897	1965.727785412355	25.89063060411
5	900	1967.638659721442	25.778000527525
5	901	1968.720790135209	21.788129708726
5	904	1972.855302917583	17.091352071507
5	905	1982.203160978147	18.391236134057
5	931	2015.227111694796	51.21206226275
5	932	2018.637367056299	52.819795104405
5	933	2020.071848685436	48.129252308073
5	934	2024.026387013856	40.551404337831
5	935	2024.037884822048	37.617422879571
5	938	2026.93324884556	38.84095720909
5	941	2034.351372862893	46.2120158215
5	954	2068.82195373218	79.099181628482
5	955	2069.485840666222	68.436727142799
5	956	2071.06777048298	61.587826638073
5	959	2074.52478369402	61.897623240567
5	960	2077.519914668117	52.727667680298
5	961	2077.556109919237	47.704244779823
5	964	2082.045440394013	46.515066188242
5	967	2085.52388188476	47.444056159438
5	972	2098.168899986957	56.685606879283
5	973	2103.107212576672	28.87248769185
5	974	2104.875333284339	24.961566864714
5	977	2107.419685564911	24.645709420205
5	980	2116.986887500236	24.930566383117
5	983	2120.75724218506	23.87302194741
5	984	2126.542992278741	21.074842362801
5	985	2130.448855340588	19.93726735877
5	986	2132.968738828019	13.491242138342
5	989	2142.114832448286	0
5	992	2150.60704056393	0
5	995	2161.212051250381	0.418423386263
5	998	2168.339903838172	5.022076045143
5	1001	2185.53289677777	0
5	1007	2216.055713346613	0
5	1014	2239.747725608741	12.295932626799
5	1015	2240.038358910487	6.660325654023
5	1016	2240.794972726177	1.453145526418
5	1022	2267.080398081384	9.003972083053
5	1025	2296.506491830768	0
5	1028	2308.528877503233	0
5	1033	2319.317049409161	9.552905432307
5	1034	2320.16960485173	6.875259542134
5	1039	2332.766166665395	11.68542652566
5	1042	2338.866672485904	11.004141590666
5	1043	2341.363482316394	6.298944157351
5	1046	2344.81484200081	0.143089060113
5	1049	2349.978977906862	0
5	1052	2355.029165384409	0
5	1055	2366.281985552846	0
5	1058	2371.956811403723	4.677663239504
5	1061	2387.576979513526	0
5	1073	2421.090824084189	30.639739809963
5	1074	2422.026470906926	30.531265424188
5	1077	2424.896392145274	25.739949607784
5	1080	2441.152056419791	38.238225458233
5	1081	2441.35430117793	17.09216571654
5	1082	2446.326885214127	11.894387025182
5	1085	2457.905839991901	0
5	1091	2469.699669328347	0
5	1102	2492.783118720262	14.204835287548
5	1103	2493.539432164402	2.042056043681
6	171	359.871436135872	35
6	190	407.766491337186	36
6	191	418.96240578232	37
6	195	424.633735667568	38
6	198	425.957492747092	39
6	207	458.496642224554	40
6	215	490.388211495126	41
6	216	495.422920339827	42
6	234	548.313315152636	43
6	235	549.817469642294	44
6	236	550.207042598793	45
6	239	555.127010006594	46
6	274	641.381002913306	47
6	275	644.485081294411	48
6	278	653.485304771267	49
6	283	660.553109645635	50
6	284	660.90862776	51
6	287	667.987133402488	52
6	290	670.47282656437	53
6	295	678.739580196498	54
6	296	678.898931713119	55
6	297	680.174521907046	56
6	298	680.919023062879	57
6	299	681.163305535532	58
6	302	689.582917474053	59
6	303	694.023973597788	60
6	309	706.050429575306	61
6	312	708.236984343654	62
6	313	708.296523166063	63
6	385	822.84401109028	64
6	390	834.424918547764	65
6	481	1027.041110794755	66
6	482	1031.750137158431	67
6	486	1038.832254388069	68
6	487	1039.445419205497	69
6	491	1048.656268810479	70
6	492	1055.854443726474	71
6	493	1057.982224344296	72
6	494	1058.056054656294	73
6	498	1066.038313856011	74
6	501	1071.585800965438	75
6	502	1075.49878449181	76
6	510	1104.799877239022	77
6	511	1109.122601999071	78
6	514	1114.638537043643	79
6	515	1116.056647753134	80
6	518	1117.37313140538	81
6	519	1119.736465016203	82
6	520	1125.965352502716	83
6	523	1126.970107924844	84
6	524	1127.40591357721	85
6	525	1127.710692149444	86
6	528	1130.086749593381	87
6	529	1132.62051982494	88
6	530	1142.190362291036	89
6	531	1142.594828245797	90
6	532	1143.985202851851	91
6	533	1153.332674051522	92
6	534	1154.690121603188	93
6	535	1155.199139731122	94
6	536	1155.756319354978	95
6	537	1158.732392205219	96
6	538	1158.810620025442	97
6	539	1159.159929756333	98
6	540	1163.703137440831	99
6	541	1173.652119019714	100
6	542	1175.018988317535	101
6	543	1178.684570188984	102
6	544	1181.559155512809	103
6	547	1182.510296953603	104
6	548	1185.138440569516	105
6	556	1202.712141799966	106
6	579	1231.446991915538	107
6	582	1234.959015316752	108
6	583	1235.17837169165	109
6	593	1248.913163322028	110
6	594	1252.327531493964	111
6	597	1256.134563994835	112
6	598	1257.262700973798	113
6	599	1257.897411287232	114
6	606	1270.440668965506	115
6	607	1274.000291928186	116
6	611	1283.645962863726	117
6	614	1284.696700318042	118
6	615	1285.128531106109	119
6	618	1287.688604092145	120
6	619	1290.738151503932	121
6	620	1292.876275637468	122
6	621	1304.854258478465	123
6	622	1309.596173433448	124
6	623	1312.313620728213	125
6	624	1314.452586533092	126
6	625	1314.770907170191	127
6	628	1317.882247552194	128
6	629	1318.087224771726	129
6	632	1323.888169509211	130
6	633	1326.958759486635	131
6	636	1331.583409570635	132
6	646	1352.961234634757	133
6	647	1353.564368616543	134
6	653	1365.05964660697	135
6	666	1392.557908754233	136
6	667	1404.130233069927	137
6	668	1404.251250850113	138
6	669	1407.784174362599	139
6	675	1434.23939764427	140
6	678	1472.491880293041	141
6	681	1487.309282817123	142
6	684	1491.11123710553	143
6	687	1500.022195169322	144
6	701	1537.721331158924	145
6	704	1546.628862702778	146
6	726	1591.283749801675	147
6	727	1593.311594429494	148
6	728	1596.40403468238	149
6	729	1597.127025996054	150
6	730	1598.929388442499	151
6	754	1644.840897645819	152
6	757	1646.633935227607	153
6	761	1657.092093608017	154
6	762	1660.477366882227	155
6	776	1696.279161514941	156
6	777	1696.81930248993	157
6	784	1705.412106243118	158
6	787	1713.070373529502	159
6	788	1715.472929571838	160
6	789	1720.160302235509	161
6	792	1724.069481128821	162
6	793	1727.316689180442	163
6	796	1731.490338832318	164
6	797	1737.050623765819	165
6	798	1738.798069743756	166
6	799	1740.51442769212	167
6	800	1746.277143634031	168
6	801	1747.535591530246	169
6	809	1755.711446899088	170
6	812	1764.760530479253	171
6	815	1770.350572189504	172
6	816	1772.585675085084	173
6	827	1811.299821728196	174
6	828	1817.853770425233	175
6	831	1817.945140727124	176
6	842	1848.565668544676	177
6	843	1851.138365087642	178
6	848	1857.725635726553	179
6	849	1858.032261564226	180
6	854	1861.413938831362	181
6	855	1867.598880100244	182
6	858	1883.971160054036	183
6	864	1891.066249458797	184
6	867	1894.30617556511	185
6	873	1908.239527002421	186
6	876	1918.387305711921	187
6	892	1963.629866376964	188
6	897	1965.727785412355	189
6	900	1967.638659721442	190
6	901	1968.720790135209	191
6	905	1982.203160978147	192
6	932	2018.637367056299	193
6	933	2020.071848685436	194
6	934	2024.026387013856	195
6	935	2024.037884822048	196
6	938	2026.93324884556	197
6	955	2069.485840666222	198
6	956	2071.06777048298	199
6	959	2074.52478369402	200
6	960	2077.519914668117	201
6	961	2077.556109919237	202
6	964	2082.045440394013	203
6	967	2085.52388188476	204
6	973	2103.107212576672	205
6	974	2104.875333284339	206
6	977	2107.419685564911	207
6	980	2116.986887500236	208
6	983	2120.75724218506	209
6	984	2126.542992278741	210
6	985	2130.448855340588	211
6	986	2132.968738828019	212
6	987	2133.032529758493	213
6	990	2143.368205469067	214
6	995	2161.212051250381	215
6	998	2168.339903838172	216
6	999	2173.036225690131	217
6	1002	2188.738722167154	218
6	1014	2239.747725608741	219
6	1015	2240.038358910487	220
6	1016	2240.794972726177	221
6	1017	2243.353209125675	222
6	1023	2267.670389682543	223
6	1026	2301.937550002151	224
6	1033	2319.317049409161	225
6	1034	2320.16960485173	226
6	1043	2341.363482316394	227
6	1046	2344.81484200081	228
6	1047	2345.08795810715	229
6	1050	2351.026322104385	230
6	1053	2360.662720841512	231
6	1059	2374.445704698207	232
6	1074	2422.026470906926	233
6	1077	2424.896392145274	234
6	1081	2441.35430117793	235
6	1082	2446.326885214127	236
6	1083	2447.718145302673	237
6	1086	2460.832243547006	238
6	1092	2470.230463542785	239
6	1103	2493.539432164402	240
6	1104	2493.619753766657	241
7	171	359.871436135872	3.27202924552
7	190	407.766491337186	4.607542573701
7	191	418.96240578232	14.291148482185
7	195	424.633735667568	5.486825565857
7	198	425.957492747092	0.883092867538
7	207	458.496642224554	13.013320185883
7	215	490.388211495126	6.452670765037
7	216	495.422920339827	5.070287882957
7	234	548.313315152636	25.768266376225
7	235	549.817469642294	21.083126269616
7	236	550.207042598793	14.123055014217
7	239	555.127010006594	13.549721595038
7	274	641.381002913306	64.761245055109
7	275	644.485081294411	63.01015812416
7	278	653.485304771267	66.651228169578
7	283	660.553109645635	64.995821093525
7	284	660.90862776	63.80404240289
7	287	667.987133402488	63.174201460705
7	290	670.47282656437	51.508795659725
7	295	678.739580196498	55.879941385128
7	296	678.898931713119	45.141794991465
7	297	680.174521907046	32.203738384455
7	298	680.919023062879	25.569966622729
7	299	681.163305535532	24.694787489056
7	302	689.582917474053	27.758742225298
7	303	694.023973597788	25.782851328722
7	309	706.050429575306	32.67447096441
7	312	708.236984343654	19.978477475241
7	313	708.296523166063	13.889372238054
7	385	822.84401109028	112.70129323643
7	390	834.424918547764	118.89538175594
7	481	1027.041110794755	307.04226561186
7	482	1031.750137158431	311.56160628353
7	486	1038.832254388069	305.11220601574
7	487	1039.445419205497	304.10400593871
7	491	1048.656268810479	301.33046945119
7	492	1055.854443726474	298.93316459351
7	493	1057.982224344296	296.17537471825
7	494	1058.056054656294	267.47005481747
7	498	1066.038313856011	252.16318027504
7	501	1071.585800965438	246.25927783747
7	502	1075.49878449181	244.19480059566
7	510	1104.799877239022	268.65973978973
7	511	1109.122601999071	263.86848731744
7	514	1114.638537043643	263.6390982946
7	515	1116.056647753134	241.79369838715
7	518	1117.37313140538	231.14910404482
7	519	1119.736465016203	232.46682539789
7	520	1125.965352502716	238.07455997974
7	523	1126.970107924844	204.07717855732
7	524	1127.40591357721	193.52385953418
7	525	1127.710692149444	183.24029679154
7	528	1130.086749593381	174.5103797786
7	529	1132.62051982494	175.16988934998
7	530	1142.190362291036	182.37766475525
7	531	1142.594828245797	178.34809042381
7	532	1143.985202851851	178.35817814558
7	533	1153.332674051522	173.81522244734
7	534	1154.690121603188	171.38305035618
7	535	1155.199139731122	162.5314528864
7	536	1155.756319354978	158.56761190801
7	537	1158.732392205219	157.61255918521
7	538	1158.810620025442	149.24650907015
7	539	1159.159929756333	149.20398723691
7	540	1163.703137440831	147.97395181335
7	541	1173.652119019714	147.86422334056
7	542	1175.018988317535	143.2317561616
7	543	1178.684570188984	137.11303329585
7	544	1181.559155512809	120.99947228264
7	547	1182.510296953603	112.17743281269
7	548	1185.138440569516	93.016342970074
7	556	1202.712141799966	99.373460156958
7	579	1231.446991915538	115.18703095125
7	582	1234.959015316752	108.61886189826
7	583	1235.17837169165	107.07908281891
7	593	1248.913163322028	62.906672373239
7	594	1252.327531493964	60.039811967848
7	597	1256.134563994835	55.127685932462
7	598	1257.262700973798	53.905999485303
7	599	1257.897411287232	53.969727892187
7	606	1270.440668965506	61.162338799628
7	607	1274.000291928186	58.442545952396
7	611	1283.645962863726	58.847636787121
7	614	1284.696700318042	50.12973350073
7	615	1285.128531106109	48.830289727335
7	618	1287.688604092145	50.898756935805
7	619	1290.738151503932	50.314897825933
7	620	1292.876275637468	51.283467861544
7	621	1304.854258478465	52.029767687208
7	622	1309.596173433448	46.090960670696
7	623	1312.313620728213	44.992849531719
7	624	1314.452586533092	45.644692644077
7	625	1314.770907170191	39.732186365894
7	628	1317.882247552194	34.008000330454
7	629	1318.087224771726	32.024171584913
7	632	1323.888169509211	7.953217403878
7	633	1326.958759486635	6.423667803899
7	636	1331.583409570635	0.185624079116
7	646	1352.961234634757	4.360132566072
7	647	1353.564368616543	4.826620763549
7	653	1365.05964660697	8.980019373497
7	666	1392.557908754233	22.615003347754
7	667	1404.130233069927	26.421827867277
7	668	1404.251250850113	15.344701989924
7	669	1407.784174362599	17.86727774932
7	675	1434.23939764427	8.586617307547
7	678	1472.491880293041	9.348785360473
7	681	1487.309282817123	3.112974876633
7	684	1491.11123710553	0.591563201082
7	687	1500.022195169322	2.376685331542
7	701	1537.721331158924	2.456548476104
7	704	1546.628862702778	10.79081075572
7	726	1591.283749801675	39.688791765894
7	727	1593.311594429494	28.746835925489
7	728	1596.40403468238	31.637374896913
7	729	1597.127025996054	31.960603220004
7	730	1598.929388442499	30.190081224346
7	754	1644.840897645819	42.973590526669
7	757	1646.633935227607	33.398924924797
7	761	1657.092093608017	42.576515652095
7	762	1660.477366882227	41.507594307107
7	776	1696.279161514941	65.977278838119
7	777	1696.81930248993	54.848684547622
7	784	1705.412106243118	59.614478812192
7	787	1713.070373529502	61.021287492947
7	788	1715.472929571838	50.807528235387
7	789	1720.160302235509	53.120302834566
7	792	1724.069481128821	51.680637970309
7	793	1727.316689180442	40.902048715185
7	796	1731.490338832318	34.062377842954
7	797	1737.050623765819	38.959688761633
7	798	1738.798069743756	38.263180258752
7	799	1740.51442769212	28.187642936464
7	800	1746.277143634031	25.621923717713
7	801	1747.535591530246	18.519396294225
7	809	1755.711446899088	6.662846437995
7	812	1764.760530479253	12.627781617182
7	815	1770.350572189504	11.105343955261
7	816	1772.585675085084	5.932857346371
7	827	1811.299821728196	18.804677335532
7	828	1817.853770425233	22.244633600588
7	831	1817.945140727124	0.046951254873
7	842	1848.565668544676	21.220817838287
7	843	1851.138365087642	21.874167079311
7	848	1857.725635726553	3.8882257334
7	849	1858.032261564226	0.941447415783
7	854	1861.413938831362	0.487522541933
7	855	1867.598880100244	6.578456304174
7	858	1883.971160054036	11.942277157058
7	864	1891.066249458797	0.564090051801
7	867	1894.30617556511	2.390709022506
7	873	1908.239527002421	5.906253918022
7	876	1918.387305711921	3.454694526432
7	892	1963.629866376964	29.743392678823
7	897	1965.727785412355	28.965807841734
7	900	1967.638659721442	27.801504913197
7	901	1968.720790135209	26.860130941292
7	905	1982.203160978147	26.439210132071
7	932	2018.637367056299	54.622317624253
7	933	2020.071848685436	54.254276733542
7	934	2024.026387013856	52.083790636493
7	935	2024.037884822048	40.562902146023
7	938	2026.93324884556	40.512786903083
7	955	2069.485840666222	79.763068562524
7	956	2071.06777048298	70.018656959557
7	959	2074.52478369402	65.044839849113
7	960	2077.519914668117	64.892754214664
7	961	2077.556109919237	52.763862931418
7	964	2082.045440394013	52.193575254599
7	967	2085.52388188476	49.993507678989
7	973	2103.107212576672	61.623919468998
7	974	2104.875333284339	30.640608399517
7	977	2107.419685564911	27.505919145286
7	980	2116.986887500236	34.21291135553
7	983	2120.75724218506	28.700921067941
7	984	2126.542992278741	29.658772041091
7	985	2130.448855340588	24.980705424648
7	986	2132.968738828019	22.457150846201
7	987	2133.032529758493	13.555033068816
7	990	2143.368205469067	1.253373020781
7	995	2161.212051250381	10.605010686451
7	998	2168.339903838172	7.546275974054
7	999	2173.036225690131	9.718397897102
7	1002	2188.738722167154	3.205825389384
7	1014	2239.747725608741	23.692012262128
7	1015	2240.038358910487	12.586565928545
7	1016	2240.794972726177	7.416939469713
7	1017	2243.353209125675	4.011381925916
7	1023	2267.670389682543	9.593963684212
7	1026	2301.937550002151	5.431058171383
7	1033	2319.317049409161	10.788171905928
7	1034	2320.16960485173	10.405460874876
7	1043	2341.363482316394	13.500951421156
7	1046	2344.81484200081	9.750303841767
7	1047	2345.08795810715	0.416205166453
7	1050	2351.026322104385	1.047344197523
7	1053	2360.662720841512	5.633555457103
7	1059	2374.445704698207	7.166556533988
7	1074	2422.026470906926	31.5753866327
7	1077	2424.896392145274	33.401186662536
7	1081	2441.35430117793	38.440470216372
7	1082	2446.326885214127	22.064749752737
7	1083	2447.718145302673	13.285647113728
7	1086	2460.832243547006	2.926403555105
7	1092	2470.230463542785	0.530794214438
7	1103	2493.539432164402	14.961148731688
7	1104	2493.619753766657	2.122377645936
8	173	365.058342191057	1
8	176	388.037052425803	1
8	180	390.927857908176	2
8	188	404.73333087535	1
8	193	419.146910101711	1
8	200	436.823234710174	1
8	202	440.900837049397	2
8	209	466.342603331937	1
8	218	497.116149187221	1
8	220	503.09769978815	2
8	232	541.577288411556	1
8	241	557.379584999622	1
8	247	571.013320665705	2
8	253	581.474923170251	1
8	264	618.964030904645	1
8	267	622.85963881137	1
8	269	624.51956532149	2
8	305	694.407150928009	1
8	315	708.481046712107	1
8	320	715.529536791828	1
8	322	716.879841144914	2
8	331	723.6697040014	2
8	338	734.846307524025	2
8	342	737.31664614593	3
8	344	739.346914019748	4
8	347	743.358100075954	4
8	352	746.078159748484	4
8	361	759.713988500873	2
8	366	777.877727033664	2
8	372	794.561121372008	1
8	374	799.685099640979	2
8	376	804.701437837468	3
8	378	806.963595367265	4
8	394	836.140137449287	1
8	396	841.117217619398	2
8	402	858.339450889291	3
8	406	866.949764860109	2
8	408	870.623974825057	3
8	413	883.238222931355	3
8	421	892.398818790866	4
8	423	896.905318042219	5
8	427	909.552892526914	4
8	431	930.008526162325	5
8	439	951.250248410845	4
8	451	964.447198103986	3
8	462	995.956600520193	3
8	473	1010.030117456946	3
8	484	1031.787232155939	1
8	489	1041.57153689313	1
8	496	1060.559683230173	1
8	504	1092.122097599442	1
8	550	1186.006490948789	1
8	558	1203.356701488495	1
8	562	1205.901663236199	2
8	566	1209.443534644607	3
8	569	1212.660171838827	3
8	587	1236.78984715634	1
8	609	1275.038720804297	1
8	638	1341.831971966471	1
8	649	1356.079627233473	1
8	655	1369.942905406479	1
8	657	1374.84225275845	2
8	671	1418.900678856088	1
8	689	1518.913265032233	1
8	691	1527.272532464144	2
8	695	1534.84794874575	1
8	708	1551.594958035781	1
8	710	1557.582850544547	2
8	720	1568.739307218153	1
8	732	1601.86730711915	1
8	737	1613.347843900331	1
8	743	1622.076911568479	2
8	759	1652.049086036555	1
8	764	1664.665401336451	1
8	770	1680.005761790246	2
8	774	1686.414640465257	1
8	803	1747.885153759755	1
8	818	1779.894755724619	1
8	825	1795.609136824645	1
8	837	1829.264198008331	1
8	839	1830.977423873753	2
8	860	1890.142463571974	1
8	869	1899.267394109141	1
8	880	1933.886473698141	1
8	903	1971.942596377363	1
8	909	1986.420461942477	1
8	917	1996.847244160215	2
8	922	2001.842081440919	2
8	924	2002.393665442616	3
8	940	2029.851865139414	1
8	943	2035.530374205771	1
8	949	2046.826782324502	2
8	952	2048.216878838541	2
8	969	2092.056321117119	1
8	1004	2193.888924218505	1
8	1019	2250.55891489116	1
8	1036	2321.080740139735	1
8	1041	2335.064538159043	1
8	1057	2367.279148164219	1
8	1065	2391.495205482738	1
8	1071	2409.912083040808	2
8	1079	2434.432498188945	1
8	1088	2463.3924778558	1
8	1094	2476.510344138141	1
8	1098	2480.218280446483	2
9	173	365.058342191057	0
9	176	388.037052425803	0
9	181	394.073267587881	3.145409679705
9	188	404.73333087535	0
9	193	419.146910101711	0
9	200	436.823234710174	0
9	203	441.191323110394	0.290486060997
9	209	466.342603331937	0
9	218	497.116149187221	0
9	221	506.053196726652	2.955496938502
9	232	541.577288411556	0
9	241	557.379584999622	0
9	248	571.89650949516	0.883188829455
9	253	581.474923170251	0
9	264	618.964030904645	0
9	267	622.85963881137	0
9	270	628.007316689124	3.487751367634
9	305	694.407150928009	0
9	315	708.481046712107	0
9	320	715.529536791828	0
9	325	719.18756768247	2.307726537556
9	334	731.001136498689	7.331432497289
9	345	739.835015943779	4.988708419754
9	350	745.641306369773	8.324660223843
9	355	748.856040707124	9.509126687376
9	356	750.562355127483	7.204255051529
9	357	756.624855585994	10.54669583751
9	364	764.491723151713	4.77773465084
9	367	778.66607541045	0.788348376786
9	372	794.561121372008	0
9	379	811.575048652269	11.88994901129
9	382	815.233121417241	10.531683579773
9	383	818.211594276723	11.247998909458
9	394	836.140137449287	0
9	403	858.49548845264	17.378270833242
9	404	863.405248773014	5.065797883723
9	411	876.078707495802	9.128942635693
9	424	903.627555624134	33.003580799077
9	425	903.835855092823	20.597632161468
9	434	941.130964730959	48.732145940093
9	435	942.670840507028	45.765522464809
9	440	953.829961578584	44.27706905167
9	445	957.764924446356	27.756398284031
9	456	981.07827922596	29.828030815115
9	465	997.6293915942	33.182193490214
9	476	1016.321254321086	20.364653800893
9	477	1021.412707286406	11.38258982946
9	484	1031.787232155939	0
9	489	1041.57153689313	0
9	496	1060.559683230173	0
9	504	1092.122097599442	0
9	550	1186.006490948789	0
9	558	1203.356701488495	0
9	567	1211.517553477915	5.615890241716
9	574	1224.020016028859	14.576481384252
9	577	1228.507366416466	15.847194577639
9	587	1236.78984715634	0
9	609	1275.038720804297	0
9	638	1341.831971966471	0
9	649	1356.079627233473	0
9	655	1369.942905406479	0
9	658	1376.271712726163	1.429459967713
9	671	1418.900678856088	0
9	689	1518.913265032233	0
9	692	1528.319705444082	1.047172979938
9	695	1534.84794874575	0
9	708	1551.594958035781	0
9	711	1557.714066472987	0.13121592844
9	720	1568.739307218153	0
9	732	1601.86730711915	0
9	737	1613.347843900331	0
9	744	1622.172847555283	0.095935986804
9	759	1652.049086036555	0
9	764	1664.665401336451	0
9	771	1681.33754184128	1.331780051034
9	774	1686.414640465257	0
9	803	1747.885153759755	0
9	818	1779.894755724619	0
9	825	1795.609136824645	0
9	837	1829.264198008331	0
9	840	1843.559494424737	12.582070550984
9	860	1890.142463571974	0
9	869	1899.267394109141	0
9	880	1933.886473698141	0
9	903	1971.942596377363	0
9	909	1986.420461942477	0
9	918	1998.217614305955	1.37037014574
9	925	2004.826070363196	2.983988922277
9	928	2010.730179347396	8.33651390478
9	940	2029.851865139414	0
9	943	2035.530374205771	0
9	950	2047.829662673671	1.002880349169
9	953	2055.088321533893	6.871442695352
9	969	2092.056321117119	0
9	1004	2193.888924218505	0
9	1019	2250.55891489116	0
9	1036	2321.080740139735	0
9	1041	2335.064538159043	0
9	1057	2367.279148164219	0
9	1065	2391.495205482738	0
9	1072	2410.060559765961	0.148476725153
9	1079	2434.432498188945	0
9	1088	2463.3924778558	0
9	1094	2476.510344138141	0
9	1099	2484.278232401928	4.059951955445
10	188	404.73333087535	11
10	193	419.146910101711	12
10	232	541.577288411556	13
10	241	557.379584999622	14
10	253	581.474923170251	15
10	264	618.964030904645	16
10	267	622.85963881137	17
10	305	694.407150928009	18
10	315	708.481046712107	19
10	320	715.529536791828	20
10	372	794.561121372008	21
10	394	836.140137449287	22
10	484	1031.787232155939	23
10	489	1041.57153689313	24
10	496	1060.559683230173	25
10	504	1092.122097599442	26
10	550	1186.006490948789	27
10	558	1203.356701488495	28
10	587	1236.78984715634	29
10	609	1275.038720804297	30
10	649	1356.079627233473	31
10	655	1369.942905406479	32
10	708	1551.594958035781	33
10	720	1568.739307218153	34
10	732	1601.86730711915	35
10	737	1613.347843900331	36
10	759	1652.049086036555	37
10	764	1664.665401336451	38
10	774	1686.414640465257	39
10	825	1795.609136824645	40
10	837	1829.264198008331	41
10	880	1933.886473698141	42
10	903	1971.942596377363	43
10	909	1986.420461942477	44
10	940	2029.851865139414	45
10	943	2035.530374205771	46
10	969	2092.056321117119	47
10	1036	2321.080740139735	48
10	1041	2335.064538159043	49
10	1057	2367.279148164219	50
10	1065	2391.495205482738	51
10	1079	2434.432498188945	52
11	1105	2500	0.0964
12	1105	2500	0.0508

