file 61567 1678560204                                           
version 2
run experiments_hard_game_mode1-1132-20230311-19:43:24-10635
attr configname experiments_hard_game_mode1
attr datetime 20230311-19:43:24
attr experiment experiments_hard_game_mode1
attr inifile omnetpp.ini
attr iterationvars "$0=9, $1=6, $2=100"
attr iterationvarsf 9,6,100-
attr measurement "$0=9, $1=6, $2=100"
attr network Network
attr processid 10635
attr repetition 22
attr replication #22
attr resultdir results
attr runnumber 1132
attr seedset 22
param *.boss.arrival_mean 20
param *.boss.service_mean 9
param *.minion.arrival_mean 10
param *.minion.service_mean 6
param *.player.recover_rate_x 100
param **.minion.arrival_distribution 0
param **.minion.service_distribution 0
param **.boss.arrival_distribution 0
param **.boss.service_distribution 0

vector 0 Network.player boss_jobs_number_stat:vector ETV
attr source signal_boss_jobs_number
vector 1 Network.player boss_jobs_queue_number_stat:vector ETV
attr source signal_boss_jobs_queue_number
vector 2 Network.player minion_recovered_stat:vector ETV
attr source signal_minion_recovered
vector 3 Network.player boss_waiting_time_stat:vector ETV
attr source signal_boss_waiting_time
vector 4 Network.player minion_jobs_number_stat:vector ETV
attr source signal_minion_jobs_number
vector 5 Network.player minion_jobs_queue_number_stat:vector ETV
attr source signal_minion_jobs_queue_number
vector 6 Network.player boss_defeated_stat:vector ETV
attr source signal_boss_defeated
vector 7 Network.player boss_response_time_stat:vector ETV
attr source signal_boss_response_time
vector 8 Network.player minion_waiting_time_stat:vector ETV
attr source signal_minion_waiting_time
vector 9 Network.player minion_defeated_stat:vector ETV
attr source signal_minion_defeated
vector 10 Network.player minion_response_time_stat:vector ETV
attr source signal_minion_response_time
vector 11 Network.player minion_throughput:vector ETV
attr source signal_minion_throughput
vector 12 Network.player boss_throughput:vector ETV
attr source signal_boss_throughput
0	2015 2453 141 1055 352.732720250375 2486.924382343612 96 1 3 134 226
1	4468 4909 141 1056 352.732720250375 2490.575452542476 192 0 2 76 108
2	9377 1751 141 1055 352.732720250375 2486.924382343612 66 7 72 2607 126929
3	11128 2852 141 1055 352.732720250375 2486.924382343612 96 0 28.149764645986 326.68870460429 5337.8155164351
4	13980 5689 145 1058 357.110273761727 2491.824172234539 214 1 28 3412 60238
5	19669 11093 145 1059 357.110273761727 2495.223925029311 418 0 27 6271 105611
6	30762 2567 150 1056 361.618006827016 2490.575452542476 96 19 114 6384 498256
7	33329 3738 150 1056 361.618006827016 2490.575452542476 96 0.073743755299 43.782862037032 1095.6160682439 22467.903455164
8	37067 10626 153 1059 366.134718729325 2495.223925029311 270 0 206.77890966739 31307.086053555 4102198.4665299
9	47693 5564 182 1059 425.600991494423 2495.223925029311 204 24 227 25602 3920506
10	53257 8269 182 1059 425.600991494423 2495.223925029311 204 0.021436851371 217.22741094387 24727.607326532 3373929.7166406
11	61526 20 1060 1060 2500 2500 1 0.0908 0.0908 0.0908 0.00824464
12	61546 20 1060 1060 2500 2500 1 0.0456 0.0456 0.0456 0.00207936

