version 2
run experiments_hard_game_mode1-1420-20230311-19:44:33-12153
attr configname experiments_hard_game_mode1
attr datetime 20230311-19:44:33
attr experiment experiments_hard_game_mode1
attr inifile omnetpp.ini
attr iterationvars "$0=9.5, $1=6, $2=100"
attr iterationvarsf 9.5,6,100-
attr measurement "$0=9.5, $1=6, $2=100"
attr network Network
attr processid 12153
attr repetition 10
attr replication #10
attr resultdir results
attr runnumber 1420
attr seedset 10
param *.boss.arrival_mean 20
param *.boss.service_mean 9.5
param *.minion.arrival_mean 10
param *.minion.service_mean 6
param *.player.recover_rate_x 100
param **.minion.arrival_distribution 0
param **.minion.service_distribution 0
param **.boss.arrival_distribution 0
param **.boss.service_distribution 0

vector 0 Network.player boss_defeated_stat:vector ETV
attr source signal_boss_defeated
vector 1 Network.player boss_jobs_queue_number_stat:vector ETV
attr source signal_boss_jobs_queue_number
vector 2 Network.player boss_response_time_stat:vector ETV
attr source signal_boss_response_time
vector 3 Network.player boss_waiting_time_stat:vector ETV
attr source signal_boss_waiting_time
vector 4 Network.player minion_waiting_time_stat:vector ETV
attr source signal_minion_waiting_time
vector 5 Network.player minion_defeated_stat:vector ETV
attr source signal_minion_defeated
vector 6 Network.player minion_jobs_queue_number_stat:vector ETV
attr source signal_minion_jobs_queue_number
vector 7 Network.player minion_response_time_stat:vector ETV
attr source signal_minion_response_time
vector 8 Network.player minion_jobs_number_stat:vector ETV
attr source signal_minion_jobs_number
vector 9 Network.player boss_jobs_number_stat:vector ETV
attr source signal_boss_jobs_number
vector 10 Network.player minion_recovered_stat:vector ETV
attr source signal_minion_recovered
vector 11 Network.player minion_throughput:vector ETV
attr source signal_minion_throughput
vector 12 Network.player boss_throughput:vector ETV
attr source signal_boss_throughput
0	168	350.916567284451	20
0	169	355.689787304325	21
0	170	357.204343178517	22
0	202	435.211687919477	23
0	209	445.534711093745	24
0	219	483.944620086349	25
0	244	542.944602731948	26
0	245	543.500989026236	27
0	256	572.906960916426	28
0	263	592.047255415783	29
0	290	650.560808875221	30
0	291	652.933732657028	31
0	303	676.089757257931	32
0	306	681.021930589481	33
0	311	700.557319900575	34
0	317	710.784173379763	35
0	318	712.541514684402	36
0	324	719.385054091349	37
0	327	724.492535354833	38
0	342	743.58138381884	39
0	347	753.636628888685	40
0	364	777.74086850804	41
0	369	786.947218274752	42
0	372	820.735174681801	43
0	377	825.647898743654	44
0	380	830.271986360927	45
0	405	873.33521080375	46
0	414	902.688140111224	47
0	417	910.381493136205	48
0	420	915.987961015174	49
0	421	921.30996205494	50
0	424	931.834333764451	51
0	429	933.632091349596	52
0	432	937.475365462952	53
0	437	948.783600518714	54
0	446	982.341112213375	55
0	464	1044.588650353345	56
0	469	1063.814045699106	57
0	487	1088.246779732374	58
0	488	1091.136913222787	59
0	499	1117.131117824722	60
0	503	1132.049011286345	61
0	521	1160.000947166436	62
0	522	1167.444340881116	63
0	533	1176.112620397074	64
0	534	1182.24480958794	65
0	547	1198.790414965387	66
0	571	1241.2187768043	67
0	578	1290.310666658238	68
0	621	1392.384183805628	69
0	622	1397.184829652032	70
0	642	1428.388486894564	71
0	645	1448.090342377002	72
0	658	1470.981997296017	73
0	671	1502.41156151116	74
0	678	1509.488860847848	75
0	681	1524.54933314459	76
0	682	1525.592775291051	77
0	683	1526.790497996135	78
0	686	1528.686383718504	79
0	687	1555.034348293879	80
0	702	1584.08975491058	81
0	703	1585.67241608669	82
0	706	1590.716425658495	83
0	707	1596.800592616345	84
0	710	1615.82536228893	85
0	713	1624.746264885971	86
0	724	1635.341446888786	87
0	727	1638.260064856448	88
0	732	1647.674336950943	89
0	739	1671.906288130618	90
0	740	1674.96865721102	91
0	756	1712.285980158896	92
0	767	1733.856448564417	93
0	768	1735.23223575744	94
0	773	1737.434288978592	95
0	776	1752.940664959209	96
0	779	1757.863515323883	97
0	786	1781.493216192811	98
0	801	1829.441317693428	99
0	804	1836.663355194472	100
0	805	1849.30569799163	101
0	820	1872.210549326569	102
0	838	1904.152974151237	103
0	846	1919.326563803402	104
0	868	1974.421778000487	105
0	881	1990.877401447742	106
0	893	2026.739424908681	107
0	907	2078.39004745449	108
0	922	2104.513712157418	109
0	934	2126.078860424505	110
0	948	2173.994886835155	111
0	951	2177.555797736641	112
0	956	2189.450891345099	113
0	961	2201.264229950839	114
0	962	2212.852485103808	115
0	969	2229.09866857112	116
0	970	2238.033234812966	117
0	992	2280.792710272519	118
0	1003	2296.037651019462	119
0	1032	2342.3991385455	120
0	1033	2344.591500119421	121
0	1046	2379.099901236109	122
0	1049	2381.209812679913	123
0	1060	2406.723059608373	124
0	1074	2435.470646650607	125
0	1080	2444.967091288869	126
0	1083	2450.138023518271	127
1	168	350.916567284451	2
1	169	355.689787304325	1
1	170	357.204343178517	0
1	199	419.824288542282	0
1	202	435.211687919477	0
1	208	445.426883461239	0
1	209	445.534711093745	0
1	218	481.155473799364	0
1	219	483.944620086349	0
1	239	536.946986058516	0
1	241	541.720738592907	1
1	243	541.736319955185	2
1	244	542.944602731948	2
1	245	543.500989026236	1
1	247	545.749899725905	1
1	256	572.906960916426	1
1	263	592.047255415783	0
1	285	642.852204457678	0
1	287	646.904432915695	1
1	290	650.560808875221	1
1	291	652.933732657028	0
1	300	666.123998518003	0
1	302	673.379073049835	1
1	303	676.089757257931	1
1	306	681.021930589481	0
1	310	692.296201596188	0
1	311	700.557319900575	0
1	314	707.174758416955	0
1	316	707.316586279335	1
1	317	710.784173379763	1
1	318	712.541514684402	0
1	321	718.627327699064	0
1	323	719.093978241006	1
1	324	719.385054091349	1
1	327	724.492535354833	0
1	329	725.978438086876	0
1	339	740.857761909457	1
1	342	743.58138381884	1
1	347	753.636628888685	0
1	349	759.785179545867	0
1	357	769.99705848	1
1	361	773.001749095169	2
1	363	773.957541426202	3
1	364	777.74086850804	3
1	368	780.867851638882	3
1	369	786.947218274752	3
1	372	820.735174681801	2
1	377	825.647898743654	1
1	380	830.271986360927	0
1	390	853.673845421965	0
1	394	862.799389841877	1
1	402	868.098797839271	2
1	405	873.33521080375	2
1	409	880.277491819915	2
1	411	882.177038103687	3
1	414	902.688140111224	3
1	417	910.381493136205	2
1	419	912.935758198835	2
1	420	915.987961015174	2
1	421	921.30996205494	1
1	424	931.834333764451	0
1	426	932.202672012874	0
1	429	933.632091349596	0
1	431	936.657389288969	0
1	432	937.475365462952	0
1	436	946.297682443241	0
1	437	948.783600518714	0
1	441	960.738265453186	0
1	446	982.341112213375	0
1	463	1042.502595974247	0
1	464	1044.588650353345	0
1	468	1060.452690583967	0
1	469	1063.814045699106	0
1	478	1073.028472791389	0
1	480	1073.979749661901	1
1	487	1088.246779732374	1
1	488	1091.136913222787	0
1	498	1113.293494763991	0
1	499	1117.131117824722	0
1	502	1132.000155132253	0
1	503	1132.049011286345	0
1	516	1154.808071207918	0
1	520	1158.547296278815	1
1	521	1160.000947166436	1
1	522	1167.444340881116	0
1	524	1170.522199205898	0
1	528	1171.867477851254	1
1	530	1172.13455232041	2
1	533	1176.112620397074	2
1	534	1182.24480958794	1
1	547	1198.790414965387	0
1	570	1231.608305717097	0
1	571	1241.2187768043	0
1	577	1288.624242739881	0
1	578	1290.310666658238	0
1	616	1356.036850805122	0
1	618	1372.606487445524	1
1	621	1392.384183805628	1
1	622	1397.184829652032	0
1	627	1405.653119015198	0
1	629	1415.389328740932	1
1	633	1422.655085990457	2
1	635	1422.976987813847	3
1	639	1425.03253417898	4
1	642	1428.388486894564	4
1	644	1430.283059070374	4
1	645	1448.090342377002	4
1	651	1453.338074498799	4
1	653	1458.853815662555	5
1	657	1470.455632448849	6
1	658	1470.981997296017	6
1	668	1493.449335598144	6
1	670	1496.052380205525	7
1	671	1502.41156151116	7
1	678	1509.488860847848	6
1	680	1514.884379549808	6
1	681	1524.54933314459	6
1	682	1525.592775291051	5
1	683	1526.790497996135	4
1	685	1528.555324124831	4
1	686	1528.686383718504	4
1	687	1555.034348293879	3
1	689	1564.373909976404	3
1	691	1565.073784446035	4
1	693	1568.88161662372	5
1	702	1584.08975491058	5
1	703	1585.67241608669	4
1	706	1590.716425658495	3
1	707	1596.800592616345	2
1	710	1615.82536228893	1
1	712	1616.890074396541	1
1	713	1624.746264885971	1
1	715	1626.810805176556	1
1	721	1632.799960695581	2
1	724	1635.341446888786	2
1	726	1636.823592669957	2
1	727	1638.260064856448	2
1	732	1647.674336950943	1
1	738	1658.548708404319	1
1	739	1671.906288130618	1
1	740	1674.96865721102	0
1	745	1686.708174305305	0
1	747	1694.179105853179	1
1	755	1705.252233173425	2
1	756	1712.285980158896	2
1	760	1719.93445107556	2
1	762	1724.59685573388	3
1	767	1733.856448564417	3
1	768	1735.23223575744	2
1	773	1737.434288978592	1
1	775	1740.42133159935	1
1	776	1752.940664959209	1
1	778	1757.194056480443	1
1	779	1757.863515323883	1
1	781	1761.281828584842	1
1	783	1761.918109262225	2
1	786	1781.493216192811	2
1	801	1829.441317693428	1
1	803	1831.77425238343	1
1	804	1836.663355194472	1
1	805	1849.30569799163	0
1	819	1868.713537013691	0
1	820	1872.210549326569	0
1	835	1898.558444776125	0
1	838	1904.152974151237	0
1	845	1910.506246022932	0
1	846	1919.326563803402	0
1	863	1966.608133512492	0
1	868	1974.421778000487	0
1	872	1976.663636876505	0
1	881	1990.877401447742	0
1	890	2021.706676798273	0
1	893	2026.739424908681	0
1	906	2073.959348802285	0
1	907	2078.39004745449	0
1	915	2092.180436930985	0
1	922	2104.513712157418	0
1	929	2118.166042985004	0
1	934	2126.078860424505	0
1	947	2169.154750841632	0
1	948	2173.994886835155	0
1	950	2177.061307273094	0
1	951	2177.555797736641	0
1	953	2178.914416394662	0
1	956	2189.450891345099	0
1	958	2195.814478513715	0
1	960	2200.177172437229	1
1	961	2201.264229950839	1
1	962	2212.852485103808	0
1	964	2214.891347264506	0
1	966	2215.816986545285	1
1	969	2229.09866857112	1
1	970	2238.033234812966	0
1	991	2280.78927417951	0
1	992	2280.792710272519	0
1	1002	2288.659915777357	0
1	1003	2296.037651019462	0
1	1023	2325.886460952761	0
1	1027	2335.729066720743	1
1	1032	2342.3991385455	1
1	1033	2344.591500119421	0
1	1039	2363.241703758442	0
1	1041	2369.572912620892	1
1	1046	2379.099901236109	1
1	1049	2381.209812679913	0
1	1053	2385.090107213244	0
1	1060	2406.723059608373	0
1	1069	2420.381264551342	0
1	1074	2435.470646650607	0
1	1079	2438.055371942036	0
1	1080	2444.967091288869	0
1	1082	2446.879911890008	0
1	1083	2450.138023518271	0
2	168	350.916567284451	2.740715074245
2	169	355.689787304325	7.097948842875
2	170	357.204343178517	7.451200718694
2	202	435.211687919477	15.387399377195
2	209	445.534711093745	0.107827632506
2	219	483.944620086349	2.789146286985
2	244	542.944602731948	5.997616673432
2	245	543.500989026236	1.780250433329
2	256	572.906960916426	31.170640961241
2	263	592.047255415783	46.297355689878
2	290	650.560808875221	7.708604417543
2	291	652.933732657028	6.029299741333
2	303	676.089757257931	9.965758739928
2	306	681.021930589481	7.642857539646
2	311	700.557319900575	8.261118304387
2	317	710.784173379763	3.609414962808
2	318	712.541514684402	5.224928405067
2	324	719.385054091349	0.757726392285
2	327	724.492535354833	5.398557113827
2	342	743.58138381884	17.602945731964
2	347	753.636628888685	12.778866979228
2	364	777.74086850804	17.955688962173
2	369	786.947218274752	16.950159794752
2	372	820.735174681801	47.733425586632
2	377	825.647898743654	51.690357317452
2	380	830.271986360927	49.404134722045
2	405	873.33521080375	19.661365381785
2	414	902.688140111224	39.888750269347
2	417	910.381493136205	42.282695296934
2	420	915.987961015174	35.710469195259
2	421	921.30996205494	39.132923951253
2	424	931.834333764451	18.898575565616
2	429	933.632091349596	1.429419336722
2	432	937.475365462952	0.817976173983
2	437	948.783600518714	2.485918075473
2	446	982.341112213375	21.602846760189
2	464	1044.588650353345	2.086054379098
2	469	1063.814045699106	3.361355115139
2	487	1088.246779732374	15.218306940985
2	488	1091.136913222787	17.157163560886
2	499	1117.131117824722	3.837623060731
2	503	1132.049011286345	0.048856154092
2	521	1160.000947166436	5.192875958518
2	522	1167.444340881116	8.897044602301
2	533	1176.112620397074	5.590421191176
2	534	1182.24480958794	10.377331736686
2	547	1198.790414965387	26.655862644977
2	571	1241.2187768043	9.610471087203
2	578	1290.310666658238	1.686423918357
2	621	1392.384183805628	36.347333000506
2	622	1397.184829652032	24.578342206508
2	642	1428.388486894564	22.735367879366
2	645	1448.090342377002	32.70101363607
2	658	1470.981997296017	48.32691130556
2	671	1502.41156151116	79.434573697313
2	678	1509.488860847848	84.456326668868
2	681	1524.54933314459	94.266274074216
2	682	1525.592775291051	72.254700792252
2	683	1526.790497996135	67.93668233358
2	686	1528.686383718504	58.230751269655
2	687	1555.034348293879	61.585012695735
2	702	1584.08975491058	88.037374705055
2	703	1585.67241608669	70.788036536882
2	706	1590.716425658495	62.161101533664
2	707	1596.800592616345	32.426682639941
2	710	1615.82536228893	50.751577842895
2	713	1624.746264885971	55.864648262251
2	724	1635.341446888786	18.451372492245
2	727	1638.260064856448	11.449259679892
2	732	1647.674336950943	14.874376255362
2	739	1671.906288130618	35.082695460661
2	740	1674.96865721102	16.419948806701
2	756	1712.285980158896	25.577805853591
2	767	1733.856448564417	39.677342711238
2	768	1735.23223575744	29.980002584015
2	773	1737.434288978592	17.499837903032
2	776	1752.940664959209	28.343809225329
2	779	1757.863515323883	17.442183724533
2	786	1781.493216192811	24.299159712368
2	801	1829.441317693428	68.159489108586
2	804	1836.663355194472	74.745245932247
2	805	1849.30569799163	17.5314456082
2	820	1872.210549326569	3.497012312878
2	838	1904.152974151237	5.594529375112
2	846	1919.326563803402	8.82031778047
2	868	1974.421778000487	7.813644487995
2	881	1990.877401447742	14.213764571237
2	893	2026.739424908681	5.032748110408
2	907	2078.39004745449	4.430698652205
2	922	2104.513712157418	12.333275226433
2	934	2126.078860424505	7.912817439501
2	948	2173.994886835155	4.840135993523
2	951	2177.555797736641	0.494490463547
2	956	2189.450891345099	10.536474950437
2	961	2201.264229950839	5.449751437124
2	962	2212.852485103808	12.675312666579
2	969	2229.09866857112	14.207321306614
2	970	2238.033234812966	22.216248267681
2	992	2280.792710272519	0.003436093009
2	1003	2296.037651019462	7.377735242105
2	1032	2342.3991385455	16.512677592739
2	1033	2344.591500119421	8.862433398678
2	1046	2379.099901236109	15.858197477667
2	1049	2381.209812679913	11.636900059021
2	1060	2406.723059608373	21.632952395129
2	1074	2435.470646650607	15.089382099265
2	1080	2444.967091288869	6.911719346833
2	1083	2450.138023518271	3.258111628263
3	168	350.916567284451	2.324728823001
3	169	355.689787304325	5.936644844502
3	199	419.824288542282	0
3	208	445.426883461239	0
3	218	481.155473799364	0
3	239	536.946986058516	0
3	244	542.944602731948	1.223864139041
3	245	543.500989026236	1.764669071051
3	256	572.906960916426	27.157061190521
3	285	642.852204457678	0
3	290	650.560808875221	3.656375959526
3	300	666.123998518003	0
3	303	676.089757257931	2.710684208096
3	310	692.296201596188	0
3	314	707.174758416955	0
3	317	710.784173379763	3.467587100428
3	321	718.627327699064	0
3	324	719.385054091349	0.291075850343
3	329	725.978438086876	0
3	342	743.58138381884	2.723621909383
3	349	759.785179545867	0
3	364	777.74086850804	7.74381002804
3	369	786.947218274752	13.945469179583
3	372	820.735174681801	46.777633255599
3	377	825.647898743654	44.780047104772
3	390	853.673845421965	0
3	405	873.33521080375	10.535820961873
3	414	902.688140111224	34.589342271953
3	417	910.381493136205	30.10400131629
3	420	915.987961015174	33.810922911487
3	421	921.30996205494	8.374203856105
3	426	932.202672012874	0
3	431	936.657389288969	0
3	436	946.297682443241	0
3	441	960.738265453186	0
3	463	1042.502595974247	0
3	468	1060.452690583967	0
3	478	1073.028472791389	0
3	487	1088.246779732374	14.267030070473
3	498	1113.293494763991	0
3	502	1132.000155132253	0
3	516	1154.808071207918	0
3	521	1160.000947166436	1.453650887621
3	524	1170.522199205898	0
3	533	1176.112620397074	4.24514254582
3	534	1182.24480958794	10.11025726753
3	570	1231.608305717097	0
3	577	1288.624242739881	0
3	616	1356.036850805122	0
3	621	1392.384183805628	19.777696360104
3	627	1405.653119015198	0
3	642	1428.388486894564	12.999158153632
3	645	1448.090342377002	25.435256386545
3	658	1470.981997296017	48.00500948217
3	671	1502.41156151116	77.37902733218
3	678	1509.488860847848	79.205801777474
3	681	1524.54933314459	71.211258645791
3	682	1525.592775291051	66.738959628496
3	683	1526.790497996135	56.334865547286
3	686	1528.686383718504	35.23704812036
3	687	1555.034348293879	58.981968088354
3	702	1584.08975491058	69.205375360772
3	703	1585.67241608669	57.117091961859
3	706	1590.716425658495	26.342515682091
3	707	1596.800592616345	31.72680817031
3	710	1615.82536228893	46.94374566521
3	713	1624.746264885971	7.85619048943
3	724	1635.341446888786	8.53064171223
3	727	1638.260064856448	5.460104160867
3	732	1647.674336950943	10.850744280986
3	739	1671.906288130618	13.357579726299
3	745	1686.708174305305	0
3	756	1712.285980158896	18.106874305717
3	767	1733.856448564417	28.604215390992
3	768	1735.23223575744	15.29778468188
3	773	1737.434288978592	12.837433244712
3	776	1752.940664959209	12.519333359859
3	779	1757.863515323883	0.66945884344
3	786	1781.493216192811	20.211387607969
3	801	1829.441317693428	67.523208431203
3	804	1836.663355194472	4.889102811042
3	819	1868.713537013691	0
3	835	1898.558444776125	0
3	845	1910.506246022932	0
3	863	1966.608133512492	0
3	872	1976.663636876505	0
3	890	2021.706676798273	0
3	906	2073.959348802285	0
3	915	2092.180436930985	0
3	929	2118.166042985004	0
3	947	2169.154750841632	0
3	950	2177.061307273094	0
3	953	2178.914416394662	0
3	958	2195.814478513715	0
3	961	2201.264229950839	1.08705751361
3	964	2214.891347264506	0
3	969	2229.09866857112	13.281682025835
3	991	2280.78927417951	0
3	1002	2288.659915777357	0
3	1023	2325.886460952761	0
3	1032	2342.3991385455	6.670071824757
3	1039	2363.241703758442	0
3	1046	2379.099901236109	9.526988615217
3	1053	2385.090107213244	0
3	1069	2420.381264551342	0
3	1079	2438.055371942036	0
3	1082	2446.879911890008	0
4	170	357.204343178517	29.037472376692
4	171	357.429584254106	27.996592182998
4	172	359.696773785575	11.520921575369
4	173	360.894916605568	11.554772955527
4	176	367.376450425266	0
4	179	384.176460755635	0
4	182	387.199074950632	0.763036263177
4	185	391.952056832985	0
4	188	399.675621198148	5.809505376189
4	191	405.29804909769	0.824074872862
4	194	410.436848643051	0
4	197	418.962261761174	0
4	202	435.211687919477	15.387399377195
4	205	442.011043184454	11.96837213272
4	206	445.29762047004	3.853813186393
4	209	445.534711093745	0.107827632506
4	212	473.00260902335	0
4	215	476.006952100977	0.63767402124
4	221	493.286867919828	0
4	224	501.939221806893	0
4	227	509.038289566614	0
4	230	518.619025209951	0
4	233	528.562184431506	0
4	236	531.363241601417	0.953754980945
4	263	592.047255415783	43.617568177905
4	266	597.303996089659	44.451805243341
4	269	604.515477466851	45.733314810783
4	270	605.147849698204	45.362724646452
4	275	622.840318100872	48.688134809803
4	276	630.954038675186	49.176897941961
4	277	636.808622910607	44.900099443683
4	278	637.329804957906	42.083920038217
4	281	639.692219141961	39.94752539766
4	282	640.501806153572	26.44683299831
4	283	640.987057994255	26.785266854556
4	291	652.933732657028	13.560710217741
4	292	657.683368541296	14.831164083618
4	295	658.535966352452	11.354412924962
4	298	664.714861547919	6.302516800543
4	306	681.021930589481	18.780049648589
4	311	700.557319900575	34.433321382572
4	312	703.800826501692	24.065736831899
4	318	712.541514684402	31.239999813015
4	319	714.520892008558	22.22469041237
4	327	724.492535354833	17.317776937878
4	347	753.636628888685	35.009301189621
4	380	830.271986360927	110.51792949046
4	381	831.565739434968	105.58730134809
4	382	838.587551073016	110.87301025782
4	385	843.8244196508	115.26126099928
4	388	847.646313168852	117.00699131622
4	424	931.834333764451	193.78241669595
4	429	933.632091349596	190.48887902489
4	432	937.475365462952	191.43149825757
4	433	942.84920790007	194.06046951928
4	434	944.32528399206	184.54010444619
4	437	948.783600518714	187.61012473409
4	438	957.556702579479	196.009791564
4	439	960.1103004428	197.95053938076
4	446	982.341112213375	211.77543613098
4	449	990.011149320018	210.95476092983
4	450	1002.424835822256	197.75944808745
4	451	1005.045812413701	183.90433529406
4	452	1005.676228589036	182.56175858104
4	453	1009.380953584996	179.54705102708
4	454	1016.464619579492	174.48787020623
4	455	1018.14605987333	173.39210006352
4	456	1022.921862327734	169.24801690577
4	457	1032.345656286879	174.86158261304
4	460	1034.33891520825	170.24838915089
4	461	1037.116546290715	172.71045281621
4	464	1044.588650353345	180.17859983773
4	465	1044.927941773597	171.77538917791
4	466	1057.374509732124	177.19398907127
4	469	1063.814045699106	171.67091240291
4	472	1064.73833286702	158.83718873016
4	473	1065.278666174545	135.31433363701
4	476	1067.250289202415	135.04761718954
4	488	1091.136913222787	158.11983733408
4	489	1094.350454182722	157.69306489375
4	494	1102.716101563065	156.41841911982
4	499	1117.131117824722	156.39285237154
4	500	1131.541938975021	164.50348660439
4	503	1132.049011286345	161.28224970165
4	506	1138.184730510266	149.35555903947
4	513	1152.051941126835	118.33898788718
4	514	1153.744281753356	111.24168577911
4	522	1167.444340881116	106.99165029715
4	547	1198.790414965387	134.89331116773
4	550	1204.325127158435	137.1200696673
4	551	1207.109064855961	134.08059206457
4	554	1212.211217217111	137.94737019601
4	559	1219.273171374909	143.20274918977
4	566	1227.91141573656	149.6780929088
4	567	1229.904103505185	129.0834704497
4	568	1230.992393688613	129.44987284681
4	571	1241.2187768043	129.87644300518
4	572	1247.037621561206	133.74412679721
4	575	1285.391760886249	153.391605754
4	578	1290.310666658238	152.95900459199
4	581	1291.330324602246	147.57251620715
4	586	1295.090704837752	146.3681638798
4	587	1301.630792383873	151.02519209209
4	588	1302.745851665457	147.93778045754
4	593	1310.339240940732	154.48826989257
4	598	1327.507337970452	156.98513876455
4	603	1335.168775723558	163.40456370275
4	604	1339.715309141894	166.07689114893
4	609	1346.576744057398	163.53275651608
4	614	1355.809884206752	171.34628390807
4	622	1397.184829652032	210.89013879501
4	623	1398.919383867406	205.4915903158
4	740	1674.96865721102	481.01642818963
4	743	1681.147802773016	483.02913802353
4	805	1849.30569799163	645.06435475271
4	806	1849.792163592869	639.44584310419
4	811	1860.415012518045	646.08238856668
4	812	1861.327770496813	646.4969293333
4	813	1861.49259614346	641.54350922127
4	816	1865.394289930283	642.47999412847
4	817	1867.04839787871	643.75512707836
4	820	1872.210549326569	640.60224360947
4	823	1873.957200130564	625.26899529361
4	824	1875.815349710494	587.19110697061
4	825	1877.874091952479	586.97596182913
4	828	1880.346711827734	588.52354970457
4	829	1883.216972900122	588.64057035659
4	832	1888.36851241177	584.29836773021
4	833	1892.283443084536	586.44252794102
4	838	1904.152974151237	584.39581255084
4	841	1906.479483553841	583.04653767957
4	846	1919.326563803402	589.57794023725
4	849	1922.774017795508	592.09151196025
4	850	1923.600384295869	582.88187229035
4	851	1928.502711771811	583.31527119733
4	852	1929.353141022426	578.56717229177
4	855	1932.354933274085	581.48275242327
4	856	1936.608098164769	580.57124735965
4	857	1948.52966891958	565.92264672697
4	858	1953.709907321743	552.79326489667
4	859	1961.8486718081	556.1955527929
4	868	1974.421778000487	552.31442139669
4	881	1990.877401447742	565.90578688181
4	882	2011.65731627408	585.42778758316
4	883	2013.023967061474	561.55226335833
4	886	2019.834511226254	567.55667694169
4	893	2026.739424908681	563.77425123438
4	896	2035.795426821448	550.27890357285
4	897	2043.080025009869	555.35748655605
4	898	2051.231841020847	563.38774532749
4	901	2059.251546059779	569.33213914059
4	904	2068.043851928415	564.43035620131
4	907	2078.39004745449	574.08681944415
4	908	2079.875975095892	574.13725111356
4	909	2080.509531567349	508.72971984467
4	910	2083.758869607013	510.38026954157
4	913	2085.011696689464	510.14432194592
4	922	2104.513712157418	523.56361061606
4	923	2108.855359692998	519.44334739786
4	934	2126.078860424505	519.30396888292
4	935	2137.681398439887	510.77034522802
4	940	2161.087843960221	529.0402209457
4	941	2161.286767922922	527.4840629909
4	942	2164.413855433871	519.86631081857
4	943	2165.693445914834	520.493624649
4	948	2173.994886835155	523.95702163747
4	951	2177.555797736641	527.27279347774
4	956	2189.450891345099	512.24707267372
4	962	2212.852485103808	526.1443107985
4	970	2238.033234812966	543.80498136654
4	971	2238.575009094879	542.8221589745
4	974	2243.061741606675	546.13317361621
4	975	2245.730425697381	528.6631278821
4	978	2260.137589237568	534.39956630554
4	979	2263.539215880313	531.00541345901
4	980	2266.963978996682	531.24493157166
4	981	2267.854981127729	530.70789756088
4	984	2271.923676554986	502.99092472465
4	985	2276.201446946507	486.36890831121
4	986	2280.167641011325	479.96571596549
4	987	2280.700597524639	479.30277360527
4	992	2280.792710272519	467.37544237357
4	993	2282.42923615654	461.58328410643
4	998	2287.392661083152	466.28366104108
4	1003	2296.037651019462	471.58941222193
4	1006	2300.583147995695	448.81977200878
4	1007	2304.348860758631	450.58575970737
4	1014	2317.332008020912	455.71627365627
4	1019	2320.811071357307	452.09753434362
4	1020	2323.934752283553	451.33193108553
4	1021	2324.729546862161	445.37347327528
4	1033	2344.591500119421	457.9031384361
4	1034	2344.955546928357	446.39710215223
4	1035	2351.530197081052	449.08817802893
4	1036	2354.595618688525	448.7343042018
4	1037	2357.043379297436	447.2659713016
4	1049	2381.209812679913	470.70356665698
4	1060	2406.723059608373	484.54036417203
4	1063	2412.938074697251	482.77946081099
4	1064	2415.365701442746	451.45356011969
4	1065	2417.976972984102	451.36883947161
4	1074	2435.470646650607	462.15167004995
4	1077	2435.804944473957	462.44363470639
4	1080	2444.967091288869	469.85050916789
4	1083	2450.138023518271	473.47438664177
4	1084	2451.224609098816	473.65164202555
4	1085	2453.56030907215	474.48367388085
4	1086	2454.329622426002	469.06767913512
4	1087	2455.448389271031	466.14493441079
4	1092	2461.913138466213	446.55845653267
4	1095	2464.402423183476	443.85398396199
4	1096	2467.454962167511	445.74828536924
4	1097	2468.882564816873	443.15675007973
4	1100	2473.849691358161	441.83060686957
4	1103	2475.841388219744	420.33876795314
4	1104	2483.087674724346	422.51217114066
4	1107	2484.228845001891	410.26949619961
4	1108	2486.03185268241	401.32214630427
4	1111	2495.960632019877	403.78019508889
4	1112	2498.298320882976	405.35847633414
4	1113	2499.855119646808	400.81803023187
5	171	357.429584254106	33
5	172	359.696773785575	34
5	173	360.894916605568	35
5	174	361.749414623689	36
5	177	375.582048238362	37
5	182	387.199074950632	38
5	183	390.246183207136	39
5	188	399.675621198148	40
5	191	405.29804909769	41
5	192	409.537481445019	42
5	195	418.258645999928	43
5	205	442.011043184454	44
5	206	445.29762047004	45
5	210	450.566096018016	46
5	215	476.006952100977	47
5	216	479.302861241079	48
5	222	494.87240031219	49
5	225	503.631927634728	50
5	228	512.535062131071	51
5	231	525.78991639243	52
5	236	531.363241601417	53
5	237	532.060144873955	54
5	266	597.303996089659	55
5	269	604.515477466851	56
5	270	605.147849698204	57
5	275	622.840318100872	58
5	276	630.954038675186	59
5	277	636.808622910607	60
5	278	637.329804957906	61
5	281	639.692219141961	62
5	282	640.501806153572	63
5	283	640.987057994255	64
5	292	657.683368541296	65
5	295	658.535966352452	66
5	298	664.714861547919	67
5	312	703.800826501692	68
5	319	714.520892008558	69
5	381	831.565739434968	70
5	382	838.587551073016	71
5	385	843.8244196508	72
5	388	847.646313168852	73
5	433	942.84920790007	74
5	434	944.32528399206	75
5	438	957.556702579479	76
5	439	960.1103004428	77
5	449	990.011149320018	78
5	450	1002.424835822256	79
5	451	1005.045812413701	80
5	452	1005.676228589036	81
5	453	1009.380953584996	82
5	454	1016.464619579492	83
5	455	1018.14605987333	84
5	456	1022.921862327734	85
5	457	1032.345656286879	86
5	460	1034.33891520825	87
5	461	1037.116546290715	88
5	465	1044.927941773597	89
5	466	1057.374509732124	90
5	472	1064.73833286702	91
5	473	1065.278666174545	92
5	476	1067.250289202415	93
5	489	1094.350454182722	94
5	494	1102.716101563065	95
5	500	1131.541938975021	96
5	506	1138.184730510266	97
5	513	1152.051941126835	98
5	514	1153.744281753356	99
5	550	1204.325127158435	100
5	551	1207.109064855961	101
5	554	1212.211217217111	102
5	559	1219.273171374909	103
5	566	1227.91141573656	104
5	567	1229.904103505185	105
5	568	1230.992393688613	106
5	572	1247.037621561206	107
5	575	1285.391760886249	108
5	581	1291.330324602246	109
5	586	1295.090704837752	110
5	587	1301.630792383873	111
5	588	1302.745851665457	112
5	593	1310.339240940732	113
5	598	1327.507337970452	114
5	603	1335.168775723558	115
5	604	1339.715309141894	116
5	609	1346.576744057398	117
5	614	1355.809884206752	118
5	623	1398.919383867406	119
5	743	1681.147802773016	120
5	806	1849.792163592869	121
5	811	1860.415012518045	122
5	812	1861.327770496813	123
5	813	1861.49259614346	124
5	816	1865.394289930283	125
5	817	1867.04839787871	126
5	823	1873.957200130564	127
5	824	1875.815349710494	128
5	825	1877.874091952479	129
5	828	1880.346711827734	130
5	829	1883.216972900122	131
5	832	1888.36851241177	132
5	833	1892.283443084536	133
5	841	1906.479483553841	134
5	849	1922.774017795508	135
5	850	1923.600384295869	136
5	851	1928.502711771811	137
5	852	1929.353141022426	138
5	855	1932.354933274085	139
5	856	1936.608098164769	140
5	857	1948.52966891958	141
5	858	1953.709907321743	142
5	859	1961.8486718081	143
5	882	2011.65731627408	144
5	883	2013.023967061474	145
5	886	2019.834511226254	146
5	896	2035.795426821448	147
5	897	2043.080025009869	148
5	898	2051.231841020847	149
5	901	2059.251546059779	150
5	904	2068.043851928415	151
5	908	2079.875975095892	152
5	909	2080.509531567349	153
5	910	2083.758869607013	154
5	913	2085.011696689464	155
5	923	2108.855359692998	156
5	935	2137.681398439887	157
5	940	2161.087843960221	158
5	941	2161.286767922922	159
5	942	2164.413855433871	160
5	943	2165.693445914834	161
5	971	2238.575009094879	162
5	974	2243.061741606675	163
5	975	2245.730425697381	164
5	978	2260.137589237568	165
5	979	2263.539215880313	166
5	980	2266.963978996682	167
5	981	2267.854981127729	168
5	984	2271.923676554986	169
5	985	2276.201446946507	170
5	986	2280.167641011325	171
5	987	2280.700597524639	172
5	993	2282.42923615654	173
5	998	2287.392661083152	174
5	1006	2300.583147995695	175
5	1007	2304.348860758631	176
5	1014	2317.332008020912	177
5	1019	2320.811071357307	178
5	1020	2323.934752283553	179
5	1021	2324.729546862161	180
5	1034	2344.955546928357	181
5	1035	2351.530197081052	182
5	1036	2354.595618688525	183
5	1037	2357.043379297436	184
5	1063	2412.938074697251	185
5	1064	2415.365701442746	186
5	1065	2417.976972984102	187
5	1077	2435.804944473957	188
5	1084	2451.224609098816	189
5	1085	2453.56030907215	190
5	1086	2454.329622426002	191
5	1087	2455.448389271031	192
5	1092	2461.913138466213	193
5	1095	2464.402423183476	194
5	1096	2467.454962167511	195
5	1097	2468.882564816873	196
5	1100	2473.849691358161	197
5	1103	2475.841388219744	198
5	1104	2483.087674724346	199
5	1107	2484.228845001891	200
5	1108	2486.03185268241	201
5	1111	2495.960632019877	202
5	1112	2498.298320882976	203
5	1113	2499.855119646808	204
6	171	357.429584254106	3
6	172	359.696773785575	2
6	173	360.894916605568	1
6	174	361.749414623689	0
6	176	367.376450425266	0
6	177	375.582048238362	0
6	179	384.176460755635	0
6	181	386.436038687455	1
6	182	387.199074950632	1
6	183	390.246183207136	0
6	185	391.952056832985	0
6	187	393.866115821959	1
6	188	399.675621198148	1
6	190	404.473974224828	1
6	191	405.29804909769	1
6	192	409.537481445019	0
6	194	410.436848643051	0
6	195	418.258645999928	0
6	197	418.962261761174	0
6	201	430.042671051734	1
6	204	441.443807283647	2
6	205	442.011043184454	2
6	206	445.29762047004	1
6	210	450.566096018016	0
6	212	473.00260902335	0
6	214	475.369278079737	1
6	215	476.006952100977	1
6	216	479.302861241079	0
6	221	493.286867919828	0
6	222	494.87240031219	0
6	224	501.939221806893	0
6	225	503.631927634728	0
6	227	509.038289566614	0
6	228	512.535062131071	0
6	230	518.619025209951	0
6	231	525.78991639243	0
6	233	528.562184431506	0
6	235	530.409486620472	1
6	236	531.363241601417	1
6	237	532.060144873955	0
6	249	548.429687237878	0
6	251	552.852190846318	1
6	253	558.782162656068	2
6	255	559.785125051752	3
6	258	574.152183291069	4
6	260	581.777140733225	5
6	262	591.908523466924	6
6	265	595.245884919689	7
6	266	597.303996089659	7
6	268	599.744693744301	7
6	269	604.515477466851	7
6	270	605.147849698204	6
6	272	614.054973155262	6
6	274	614.201791139699	7
6	275	622.840318100872	7
6	276	630.954038675186	6
6	277	636.808622910607	5
6	278	637.329804957906	4
6	280	639.373022439287	4
6	281	639.692219141961	4
6	282	640.501806153572	3
6	283	640.987057994255	2
6	289	647.18155342749	2
6	292	657.683368541296	2
6	294	658.412344747376	2
6	295	658.535966352452	2
6	297	662.241880940892	2
6	298	664.714861547919	2
6	305	679.735089669793	2
6	308	681.301514871387	3
6	312	703.800826501692	3
6	319	714.520892008558	2
6	326	719.754056870467	2
6	331	727.714540815194	3
6	333	728.563158651515	4
6	335	730.639321852629	5
6	337	738.051917068501	6
6	341	743.143212324701	7
6	344	746.043867205386	8
6	346	748.788738380785	9
6	351	761.173475784625	10
6	353	761.546911015483	11
6	355	762.159761062042	12
6	359	770.565676082391	13
6	366	779.056388390191	14
6	371	804.665387734801	15
6	374	821.141477119636	16
6	376	823.114470007992	17
6	379	829.833902557911	18
6	381	831.565739434968	18
6	382	838.587551073016	17
6	384	841.976749373265	17
6	385	843.8244196508	17
6	387	844.753959809814	17
6	388	847.646313168852	17
6	392	857.484073673838	17
6	396	864.090526057359	18
6	398	864.406093474509	19
6	400	864.410050515611	20
6	404	873.152552595688	21
6	407	880.180520660851	22
6	413	892.143133296193	23
6	416	905.901144136857	24
6	423	929.964332537532	25
6	428	933.017075888709	26
6	433	942.84920790007	26
6	434	944.32528399206	25
6	438	957.556702579479	24
6	439	960.1103004428	23
6	443	967.038452370635	23
6	445	970.766761584691	24
6	448	988.829171470794	25
6	449	990.011149320018	25
6	450	1002.424835822256	24
6	451	1005.045812413701	23
6	452	1005.676228589036	22
6	453	1009.380953584996	21
6	454	1016.464619579492	20
6	455	1018.14605987333	19
6	456	1022.921862327734	18
6	457	1032.345656286879	17
6	459	1033.712953239657	17
6	460	1034.33891520825	17
6	461	1037.116546290715	16
6	465	1044.927941773597	15
6	466	1057.374509732124	14
6	471	1063.897103797653	14
6	472	1064.73833286702	14
6	473	1065.278666174545	13
6	475	1067.205057491134	13
6	476	1067.250289202415	13
6	482	1074.2638470211	13
6	484	1076.070422185143	14
6	486	1078.233322827761	15
6	489	1094.350454182722	15
6	491	1100.820633055485	15
6	493	1101.542520841805	16
6	494	1102.716101563065	16
6	496	1111.342333799117	16
6	500	1131.541938975021	16
6	505	1137.351662066246	16
6	506	1138.184730510266	16
6	508	1143.757808395093	16
6	510	1148.722540957953	17
6	512	1150.605600291787	18
6	513	1152.051941126835	18
6	514	1153.744281753356	17
6	518	1155.850971048164	17
6	526	1171.764212020809	18
6	532	1173.638417992965	19
6	536	1183.043987541314	20
6	538	1184.463600298683	21
6	540	1186.294690857023	22
6	542	1193.42779355161	23
6	544	1193.952229021391	24
6	546	1198.118664749482	25
6	549	1204.241343238922	26
6	550	1204.325127158435	26
6	551	1207.109064855961	25
6	553	1210.346320488679	25
6	554	1212.211217217111	25
6	556	1214.33262395137	25
6	558	1214.830841163516	26
6	559	1219.273171374909	26
6	561	1219.949086922189	26
6	563	1222.914295801811	27
6	565	1223.293270800351	28
6	566	1227.91141573656	28
6	567	1229.904103505185	27
6	568	1230.992393688613	26
6	572	1247.037621561206	25
6	574	1248.688204836956	25
6	575	1285.391760886249	25
6	580	1290.898130123353	25
6	581	1291.330324602246	25
6	583	1291.823162123162	25
6	585	1294.576402543527	26
6	586	1295.090704837752	26
6	587	1301.630792383873	25
6	588	1302.745851665457	24
6	590	1304.070144681555	24
6	592	1305.840915143514	25
6	593	1310.339240940732	25
6	595	1319.757161600396	25
6	597	1323.432945874271	26
6	598	1327.507337970452	26
6	600	1329.748623566149	26
6	602	1330.682505835263	27
6	603	1335.168775723558	27
6	604	1339.715309141894	26
6	606	1340.718512005517	26
6	608	1345.187440574485	27
6	609	1346.576744057398	27
6	611	1350.785968730655	27
6	613	1350.872180850818	28
6	614	1355.809884206752	28
6	620	1382.607022192613	28
6	623	1398.919383867406	28
6	625	1400.916642425074	28
6	631	1422.107356603794	29
6	637	1424.971614565931	30
6	641	1426.229528690923	31
6	647	1451.471703703142	32
6	649	1452.277834284563	33
6	655	1462.965173674297	34
6	660	1485.516523248597	35
6	662	1487.722538453823	36
6	664	1487.844095693352	37
6	666	1489.919406919192	38
6	673	1503.613495727106	39
6	675	1504.303228010345	40
6	677	1505.738723982334	41
6	695	1571.779811722683	42
6	697	1573.37860006544	43
6	699	1574.86737474354	44
6	701	1580.95010154136	45
6	705	1589.412012295137	46
6	709	1606.774891541585	47
6	717	1626.911053211865	48
6	719	1632.047623014525	49
6	723	1633.802704932022	50
6	729	1644.547544615298	51
6	731	1645.199821265832	52
6	734	1650.037865197686	53
6	736	1650.283004258902	54
6	742	1677.203818671379	55
6	743	1681.147802773016	55
6	749	1694.228253446423	55
6	751	1695.752850120378	56
6	753	1696.928567990461	57
6	758	1717.067297815278	58
6	764	1725.738022932032	59
6	766	1732.5338024213	60
6	770	1735.719047425022	61
6	772	1737.147083566854	62
6	785	1768.93275183034	63
6	788	1789.832538635294	64
6	790	1800.201925045835	65
6	792	1801.397823919369	66
6	794	1813.417267898949	67
6	796	1820.845952050105	68
6	798	1821.109000042073	69
6	800	1824.448238797531	70
6	806	1849.792163592869	70
6	808	1851.763375986915	70
6	810	1853.763101051265	71
6	811	1860.415012518045	71
6	812	1861.327770496813	70
6	813	1861.49259614346	69
6	815	1861.615734364642	69
6	816	1865.394289930283	69
6	817	1867.04839787871	68
6	822	1872.60282119802	68
6	823	1873.957200130564	68
6	824	1875.815349710494	67
6	825	1877.874091952479	66
6	827	1879.356073586884	66
6	828	1880.346711827734	66
6	829	1883.216972900122	65
6	831	1886.688361683324	65
6	832	1888.36851241177	65
6	833	1892.283443084536	64
6	837	1902.442019052124	64
6	840	1905.861314486726	65
6	841	1906.479483553841	65
6	843	1909.777407995839	65
6	848	1922.182695436346	66
6	849	1922.774017795508	66
6	850	1923.600384295869	65
6	851	1928.502711771811	64
6	852	1929.353141022426	63
6	854	1930.15861388626	63
6	855	1932.354933274085	63
6	856	1936.608098164769	62
6	857	1948.52966891958	61
6	858	1953.709907321743	60
6	859	1961.8486718081	59
6	861	1963.91214132306	59
6	865	1973.318976600654	60
6	867	1973.361309767564	61
6	870	1975.116582120982	62
6	874	1977.572967073261	63
6	876	1979.076635191296	64
6	878	1985.261943290884	65
6	880	1989.30345486024	66
6	882	2011.65731627408	66
6	883	2013.023967061474	65
6	885	2015.354681933544	65
6	886	2019.834511226254	65
6	888	2020.548439221487	65
6	892	2025.725814737138	66
6	895	2032.01908448859	67
6	896	2035.795426821448	67
6	897	2043.080025009869	66
6	898	2051.231841020847	65
6	900	2055.502620266609	65
6	901	2059.251546059779	65
6	903	2060.575503583687	65
6	904	2068.043851928415	65
6	908	2079.875975095892	64
6	909	2080.509531567349	63
6	910	2083.758869607013	62
6	912	2084.709706378142	62
6	913	2085.011696689464	62
6	917	2092.939844548836	62
6	919	2099.037089414943	63
6	921	2102.591137611019	64
6	923	2108.855359692998	64
6	925	2116.368780264422	64
6	927	2116.482601048769	65
6	931	2119.324063641712	66
6	933	2123.674274645256	67
6	935	2137.681398439887	67
6	937	2138.040682945383	67
6	939	2150.885637978048	68
6	940	2161.087843960221	68
6	941	2161.286767922922	67
6	942	2164.413855433871	66
6	943	2165.693445914834	65
6	945	2167.367114672204	65
6	955	2186.034893997877	66
6	968	2221.227079930321	67
6	971	2238.575009094879	67
6	973	2238.889269602652	67
6	974	2243.061741606675	67
6	975	2245.730425697381	66
6	977	2254.483068097837	66
6	978	2260.137589237568	66
6	979	2263.539215880313	65
6	980	2266.963978996682	64
6	981	2267.854981127729	63
6	983	2271.075409916749	63
6	984	2271.923676554986	63
6	985	2276.201446946507	62
6	986	2280.167641011325	61
6	987	2280.700597524639	60
6	989	2280.771826103366	60
6	993	2282.42923615654	60
6	995	2283.864084695993	60
6	997	2284.36974984129	61
6	998	2287.392661083152	61
6	1000	2288.442495856882	61
6	1005	2297.580246024688	62
6	1006	2300.583147995695	62
6	1007	2304.348860758631	61
6	1009	2309.781809862415	61
6	1011	2312.772812754872	62
6	1013	2313.521323228255	63
6	1014	2317.332008020912	63
6	1016	2318.332567453696	63
6	1018	2318.868552452175	64
6	1019	2320.811071357307	64
6	1020	2323.934752283553	63
6	1021	2324.729546862161	62
6	1025	2327.906731433003	62
6	1029	2336.865900433734	63
6	1031	2339.803824499231	64
6	1034	2344.955546928357	64
6	1035	2351.530197081052	63
6	1036	2354.595618688525	62
6	1037	2357.043379297436	61
6	1043	2371.147766820008	61
6	1045	2371.152034379967	62
6	1048	2380.887203781705	63
6	1051	2383.188984259807	64
6	1055	2386.397673759669	65
6	1057	2391.11863221044	66
6	1059	2400.591305898383	67
6	1062	2407.515928351927	68
6	1063	2412.938074697251	68
6	1064	2415.365701442746	67
6	1065	2417.976972984102	66
6	1067	2418.130008716	66
6	1071	2423.878827139453	67
6	1073	2430.033569373347	68
6	1076	2435.545057738834	69
6	1077	2435.804944473957	69
6	1084	2451.224609098816	68
6	1085	2453.56030907215	67
6	1086	2454.329622426002	66
6	1087	2455.448389271031	65
6	1089	2457.691458169595	65
6	1091	2461.138953990144	66
6	1092	2461.913138466213	66
6	1094	2462.293654580893	66
6	1095	2464.402423183476	66
6	1096	2467.454962167511	65
6	1097	2468.882564816873	64
6	1099	2473.557527797445	64
6	1100	2473.849691358161	64
6	1102	2474.41331895417	64
6	1103	2475.841388219744	64
6	1104	2483.087674724346	63
6	1106	2483.314383275376	63
6	1107	2484.228845001891	63
6	1108	2486.03185268241	62
6	1110	2487.898238471302	62
6	1111	2495.960632019877	62
6	1112	2498.298320882976	61
6	1113	2499.855119646808	60
7	171	357.429584254106	29.262713452281
7	172	359.696773785575	30.263781714467
7	173	360.894916605568	12.719064395362
7	174	361.749414623689	12.409270973648
7	177	375.582048238362	8.205597813096
7	182	387.199074950632	3.022614194997
7	183	390.246183207136	3.810144519681
7	188	399.675621198148	7.723564365163
7	191	405.29804909769	11.431933275731
7	192	409.537481445019	5.063507220191
7	195	418.258645999928	7.821797356877
7	205	442.011043184454	22.186754642172
7	206	445.29762047004	15.254949418306
7	210	450.566096018016	5.139212556777
7	215	476.006952100977	3.004343077627
7	216	479.302861241079	3.933583161342
7	222	494.87240031219	1.585532392362
7	225	503.631927634728	1.692705827835
7	228	512.535062131071	3.496772564457
7	231	525.78991639243	7.170891182479
7	236	531.363241601417	2.801057169911
7	237	532.060144873955	1.650658253483
7	266	597.303996089659	48.874308851781
7	269	604.515477466851	51.663286620533
7	270	605.147849698204	46.365687042136
7	275	622.840318100872	63.05519304912
7	276	630.954038675186	56.801855384117
7	277	636.808622910607	55.031482177382
7	278	637.329804957906	45.421281490982
7	281	639.692219141961	44.446334222272
7	282	640.501806153572	40.757112409271
7	283	640.987057994255	26.932084838993
7	292	657.683368541296	18.310346102009
7	295	658.535966352452	15.683761894774
7	298	664.714861547919	17.533308120429
7	312	703.800826501692	37.676827983689
7	319	714.520892008558	33.219377137171
7	381	831.565739434968	111.8116825645
7	382	838.587551073016	112.60911298614
7	385	843.8244196508	116.10987883561
7	388	847.646313168852	119.08315451734
7	433	942.84920790007	196.80534069468
7	434	944.32528399206	195.53654561127
7	438	957.556702579479	196.38322679485
7	439	960.1103004428	198.56338942732
7	449	990.011149320018	219.44547323763
7	450	1002.424835822256	223.36844743206
7	451	1005.045812413701	200.3804246789
7	452	1005.676228589036	184.5347514694
7	453	1009.380953584996	186.266483577
7	454	1016.464619579492	186.63071702158
7	455	1018.14605987333	176.16931050006
7	456	1022.921862327734	178.16790251792
7	457	1032.345656286879	178.67181086491
7	460	1034.33891520825	176.85484153441
7	461	1037.116546290715	173.02602023336
7	465	1044.927941773597	180.51789125799
7	466	1057.374509732124	184.22195713644
7	472	1064.73833286702	172.59519957083
7	473	1065.278666174545	159.37752203769
7	476	1067.250289202415	137.28595666488
7	489	1094.350454182722	161.33337829401
7	494	1102.716101563065	166.0587122741
7	500	1131.541938975021	170.80367352184
7	506	1138.184730510266	167.41796892557
7	513	1152.051941126835	163.22276965604
7	514	1153.744281753356	120.0313285137
7	550	1204.325127158435	140.42802336078
7	551	1207.109064855961	139.90400736483
7	554	1212.211217217111	139.18274442572
7	559	1219.273171374909	145.00932435381
7	566	1227.91141573656	151.84099355142
7	567	1229.904103505185	151.67078067742
7	568	1230.992393688613	130.17176063313
7	572	1247.037621561206	135.69528776209
7	575	1285.391760886249	172.09826612226
7	581	1291.330324602246	153.978662536
7	586	1295.090704837752	151.33289644266
7	587	1301.630792383873	152.90825142592
7	588	1302.745851665457	152.14025137367
7	593	1310.339240940732	155.53116973281
7	598	1327.507337970452	171.65636692229
7	603	1335.168775723558	164.64657651766
7	604	1339.715309141894	167.95109712108
7	609	1346.576744057398	172.93832606443
7	614	1355.809884206752	172.76589666544
7	623	1398.919383867406	212.62469301038
7	743	1681.147802773016	487.19557375162
7	806	1849.792163592869	645.55082035395
7	811	1860.415012518045	650.06869202937
7	812	1861.327770496813	646.99514654544
7	813	1861.49259614346	646.66175497994
7	816	1865.394289930283	645.44520300809
7	817	1867.04839787871	644.1341020769
7	823	1873.957200130564	642.34889441347
7	824	1875.815349710494	627.12714487354
7	825	1877.874091952479	589.2498492126
7	828	1880.346711827734	589.44858170438
7	829	1883.216972900122	591.39381077696
7	832	1888.36851241177	593.79210986824
7	833	1892.283443084536	588.21329840298
7	841	1906.479483553841	586.72232195344
7	849	1922.774017795508	593.02539422936
7	850	1923.600384295869	592.91787846061
7	851	1928.502711771811	587.78419976629
7	852	1929.353141022426	584.16570044794
7	855	1932.354933274085	581.56896454343
7	856	1936.608098164769	585.73591731395
7	857	1948.52966891958	592.49281811446
7	858	1953.709907321743	571.10288512913
7	859	1961.8486718081	560.93202938303
7	882	2011.65731627408	586.68570170815
7	883	2013.023967061474	586.79443837055
7	886	2019.834511226254	568.36280752311
7	896	2035.795426821448	572.83025314715
7	897	2043.080025009869	557.56350176127
7	898	2051.231841020847	563.50930256702
7	901	2059.251546059779	571.40745036643
7	904	2068.043851928415	578.12444500922
7	908	2079.875975095892	575.57274708555
7	909	2080.509531567349	574.77080758501
7	910	2083.758869607013	511.97905788433
7	913	2085.011696689464	511.63309662402
7	923	2108.855359692998	527.90525815164
7	935	2137.681398439887	530.9065068983
7	940	2161.087843960221	534.17679074836
7	941	2161.286767922922	529.2391449084
7	942	2164.413855433871	530.61115050185
7	943	2165.693445914834	521.14590129954
7	971	2238.575009094879	544.34675564846
7	974	2243.061741606675	547.3088914863
7	975	2245.730425697381	548.80185770692
7	978	2260.137589237568	543.07029142229
7	979	2263.539215880313	537.80119294828
7	980	2266.963978996682	534.43017657538
7	981	2267.854981127729	532.13593370271
7	984	2271.923676554986	534.77659298813
7	985	2276.201446946507	507.26869511617
7	986	2280.167641011325	490.33510237603
7	987	2280.700597524639	480.4986724788
7	993	2282.42923615654	469.01196825759
7	998	2287.392661083152	466.54670903305
7	1006	2300.583147995695	476.13490919816
7	1007	2304.348860758631	452.58548477172
7	1014	2317.332008020912	463.56890696965
7	1019	2320.811071357307	459.19533699266
7	1020	2323.934752283553	455.22121526986
7	1021	2324.729546862161	452.12672566414
7	1034	2344.955546928357	458.26718524503
7	1035	2351.530197081052	452.97175230493
7	1036	2354.595618688525	452.1535996364
7	1037	2357.043379297436	451.18206481071
7	1063	2412.938074697251	490.7553792609
7	1064	2415.365701442746	485.20708755649
7	1065	2417.976972984102	454.06483166104
7	1077	2435.804944473957	462.4859678733
7	1084	2451.224609098816	474.56097222231
7	1085	2453.56030907215	475.98734199889
7	1086	2454.329622426002	475.25298723471
7	1087	2455.448389271031	470.18644598015
7	1092	2461.913138466213	472.60968360597
7	1095	2464.402423183476	449.04774124993
7	1096	2467.454962167511	446.90652294602
7	1097	2468.882564816873	447.1758880186
7	1100	2473.849691358161	448.12387662102
7	1103	2475.841388219744	443.82230373115
7	1104	2483.087674724346	427.58505445774
7	1107	2484.228845001891	423.6533414182
7	1108	2486.03185268241	412.07250388012
7	1111	2495.960632019877	411.25092564173
7	1112	2498.298320882976	406.11788395199
7	1113	2499.855119646808	406.91527509797
8	176	367.376450425266	1
8	179	384.176460755635	1
8	181	386.436038687455	2
8	185	391.952056832985	1
8	187	393.866115821959	2
8	190	404.473974224828	2
8	194	410.436848643051	1
8	197	418.962261761174	1
8	201	430.042671051734	2
8	204	441.443807283647	3
8	212	473.00260902335	1
8	214	475.369278079737	2
8	221	493.286867919828	1
8	224	501.939221806893	1
8	227	509.038289566614	1
8	230	518.619025209951	1
8	233	528.562184431506	1
8	235	530.409486620472	2
8	249	548.429687237878	1
8	251	552.852190846318	2
8	253	558.782162656068	3
8	255	559.785125051752	4
8	258	574.152183291069	5
8	260	581.777140733225	6
8	262	591.908523466924	7
8	265	595.245884919689	8
8	268	599.744693744301	8
8	272	614.054973155262	7
8	274	614.201791139699	8
8	280	639.373022439287	5
8	289	647.18155342749	3
8	294	658.412344747376	3
8	297	662.241880940892	3
8	305	679.735089669793	3
8	308	681.301514871387	4
8	326	719.754056870467	3
8	331	727.714540815194	4
8	333	728.563158651515	5
8	335	730.639321852629	6
8	337	738.051917068501	7
8	341	743.143212324701	8
8	344	746.043867205386	9
8	346	748.788738380785	10
8	351	761.173475784625	11
8	353	761.546911015483	12
8	355	762.159761062042	13
8	359	770.565676082391	14
8	366	779.056388390191	15
8	371	804.665387734801	16
8	374	821.141477119636	17
8	376	823.114470007992	18
8	379	829.833902557911	19
8	384	841.976749373265	18
8	387	844.753959809814	18
8	392	857.484073673838	18
8	396	864.090526057359	19
8	398	864.406093474509	20
8	400	864.410050515611	21
8	404	873.152552595688	22
8	407	880.180520660851	23
8	413	892.143133296193	24
8	416	905.901144136857	25
8	423	929.964332537532	26
8	428	933.017075888709	27
8	443	967.038452370635	24
8	445	970.766761584691	25
8	448	988.829171470794	26
8	459	1033.712953239657	18
8	471	1063.897103797653	15
8	475	1067.205057491134	14
8	482	1074.2638470211	14
8	484	1076.070422185143	15
8	486	1078.233322827761	16
8	491	1100.820633055485	16
8	493	1101.542520841805	17
8	496	1111.342333799117	17
8	505	1137.351662066246	17
8	508	1143.757808395093	17
8	510	1148.722540957953	18
8	512	1150.605600291787	19
8	518	1155.850971048164	18
8	526	1171.764212020809	19
8	532	1173.638417992965	20
8	536	1183.043987541314	21
8	538	1184.463600298683	22
8	540	1186.294690857023	23
8	542	1193.42779355161	24
8	544	1193.952229021391	25
8	546	1198.118664749482	26
8	549	1204.241343238922	27
8	553	1210.346320488679	26
8	556	1214.33262395137	26
8	558	1214.830841163516	27
8	561	1219.949086922189	27
8	563	1222.914295801811	28
8	565	1223.293270800351	29
8	574	1248.688204836956	26
8	580	1290.898130123353	26
8	583	1291.823162123162	26
8	585	1294.576402543527	27
8	590	1304.070144681555	25
8	592	1305.840915143514	26
8	595	1319.757161600396	26
8	597	1323.432945874271	27
8	600	1329.748623566149	27
8	602	1330.682505835263	28
8	606	1340.718512005517	27
8	608	1345.187440574485	28
8	611	1350.785968730655	28
8	613	1350.872180850818	29
8	620	1382.607022192613	29
8	625	1400.916642425074	29
8	631	1422.107356603794	30
8	637	1424.971614565931	31
8	641	1426.229528690923	32
8	647	1451.471703703142	33
8	649	1452.277834284563	34
8	655	1462.965173674297	35
8	660	1485.516523248597	36
8	662	1487.722538453823	37
8	664	1487.844095693352	38
8	666	1489.919406919192	39
8	673	1503.613495727106	40
8	675	1504.303228010345	41
8	677	1505.738723982334	42
8	695	1571.779811722683	43
8	697	1573.37860006544	44
8	699	1574.86737474354	45
8	701	1580.95010154136	46
8	705	1589.412012295137	47
8	709	1606.774891541585	48
8	717	1626.911053211865	49
8	719	1632.047623014525	50
8	723	1633.802704932022	51
8	729	1644.547544615298	52
8	731	1645.199821265832	53
8	734	1650.037865197686	54
8	736	1650.283004258902	55
8	742	1677.203818671379	56
8	749	1694.228253446423	56
8	751	1695.752850120378	57
8	753	1696.928567990461	58
8	758	1717.067297815278	59
8	764	1725.738022932032	60
8	766	1732.5338024213	61
8	770	1735.719047425022	62
8	772	1737.147083566854	63
8	785	1768.93275183034	64
8	788	1789.832538635294	65
8	790	1800.201925045835	66
8	792	1801.397823919369	67
8	794	1813.417267898949	68
8	796	1820.845952050105	69
8	798	1821.109000042073	70
8	800	1824.448238797531	71
8	808	1851.763375986915	71
8	810	1853.763101051265	72
8	815	1861.615734364642	70
8	822	1872.60282119802	69
8	827	1879.356073586884	67
8	831	1886.688361683324	66
8	837	1902.442019052124	65
8	840	1905.861314486726	66
8	843	1909.777407995839	66
8	848	1922.182695436346	67
8	854	1930.15861388626	64
8	861	1963.91214132306	60
8	865	1973.318976600654	61
8	867	1973.361309767564	62
8	870	1975.116582120982	63
8	874	1977.572967073261	64
8	876	1979.076635191296	65
8	878	1985.261943290884	66
8	880	1989.30345486024	67
8	885	2015.354681933544	66
8	888	2020.548439221487	66
8	892	2025.725814737138	67
8	895	2032.01908448859	68
8	900	2055.502620266609	66
8	903	2060.575503583687	66
8	912	2084.709706378142	63
8	917	2092.939844548836	63
8	919	2099.037089414943	64
8	921	2102.591137611019	65
8	925	2116.368780264422	65
8	927	2116.482601048769	66
8	931	2119.324063641712	67
8	933	2123.674274645256	68
8	937	2138.040682945383	68
8	939	2150.885637978048	69
8	945	2167.367114672204	66
8	955	2186.034893997877	67
8	968	2221.227079930321	68
8	973	2238.889269602652	68
8	977	2254.483068097837	67
8	983	2271.075409916749	64
8	989	2280.771826103366	61
8	995	2283.864084695993	61
8	997	2284.36974984129	62
8	1000	2288.442495856882	62
8	1005	2297.580246024688	63
8	1009	2309.781809862415	62
8	1011	2312.772812754872	63
8	1013	2313.521323228255	64
8	1016	2318.332567453696	64
8	1018	2318.868552452175	65
8	1025	2327.906731433003	63
8	1029	2336.865900433734	64
8	1031	2339.803824499231	65
8	1043	2371.147766820008	62
8	1045	2371.152034379967	63
8	1048	2380.887203781705	64
8	1051	2383.188984259807	65
8	1055	2386.397673759669	66
8	1057	2391.11863221044	67
8	1059	2400.591305898383	68
8	1062	2407.515928351927	69
8	1067	2418.130008716	67
8	1071	2423.878827139453	68
8	1073	2430.033569373347	69
8	1076	2435.545057738834	70
8	1089	2457.691458169595	66
8	1091	2461.138953990144	67
8	1094	2462.293654580893	67
8	1099	2473.557527797445	65
8	1102	2474.41331895417	65
8	1106	2483.314383275376	64
8	1110	2487.898238471302	63
9	199	419.824288542282	1
9	208	445.426883461239	1
9	218	481.155473799364	1
9	239	536.946986058516	1
9	241	541.720738592907	2
9	243	541.736319955185	3
9	247	545.749899725905	2
9	285	642.852204457678	1
9	287	646.904432915695	2
9	300	666.123998518003	1
9	302	673.379073049835	2
9	310	692.296201596188	1
9	314	707.174758416955	1
9	316	707.316586279335	2
9	321	718.627327699064	1
9	323	719.093978241006	2
9	329	725.978438086876	1
9	339	740.857761909457	2
9	349	759.785179545867	1
9	357	769.99705848	2
9	361	773.001749095169	3
9	363	773.957541426202	4
9	368	780.867851638882	4
9	390	853.673845421965	1
9	394	862.799389841877	2
9	402	868.098797839271	3
9	409	880.277491819915	3
9	411	882.177038103687	4
9	419	912.935758198835	3
9	426	932.202672012874	1
9	431	936.657389288969	1
9	436	946.297682443241	1
9	441	960.738265453186	1
9	463	1042.502595974247	1
9	468	1060.452690583967	1
9	478	1073.028472791389	1
9	480	1073.979749661901	2
9	498	1113.293494763991	1
9	502	1132.000155132253	1
9	516	1154.808071207918	1
9	520	1158.547296278815	2
9	524	1170.522199205898	1
9	528	1171.867477851254	2
9	530	1172.13455232041	3
9	570	1231.608305717097	1
9	577	1288.624242739881	1
9	616	1356.036850805122	1
9	618	1372.606487445524	2
9	627	1405.653119015198	1
9	629	1415.389328740932	2
9	633	1422.655085990457	3
9	635	1422.976987813847	4
9	639	1425.03253417898	5
9	644	1430.283059070374	5
9	651	1453.338074498799	5
9	653	1458.853815662555	6
9	657	1470.455632448849	7
9	668	1493.449335598144	7
9	670	1496.052380205525	8
9	680	1514.884379549808	7
9	685	1528.555324124831	5
9	689	1564.373909976404	4
9	691	1565.073784446035	5
9	693	1568.88161662372	6
9	712	1616.890074396541	2
9	715	1626.810805176556	2
9	721	1632.799960695581	3
9	726	1636.823592669957	3
9	738	1658.548708404319	2
9	745	1686.708174305305	1
9	747	1694.179105853179	2
9	755	1705.252233173425	3
9	760	1719.93445107556	3
9	762	1724.59685573388	4
9	775	1740.42133159935	2
9	778	1757.194056480443	2
9	781	1761.281828584842	2
9	783	1761.918109262225	3
9	803	1831.77425238343	2
9	819	1868.713537013691	1
9	835	1898.558444776125	1
9	845	1910.506246022932	1
9	863	1966.608133512492	1
9	872	1976.663636876505	1
9	890	2021.706676798273	1
9	906	2073.959348802285	1
9	915	2092.180436930985	1
9	929	2118.166042985004	1
9	947	2169.154750841632	1
9	950	2177.061307273094	1
9	953	2178.914416394662	1
9	958	2195.814478513715	1
9	960	2200.177172437229	2
9	964	2214.891347264506	1
9	966	2215.816986545285	2
9	991	2280.78927417951	1
9	1002	2288.659915777357	1
9	1023	2325.886460952761	1
9	1027	2335.729066720743	2
9	1039	2363.241703758442	1
9	1041	2369.572912620892	2
9	1053	2385.090107213244	1
9	1069	2420.381264551342	1
9	1079	2438.055371942036	1
9	1082	2446.879911890008	1
10	199	419.824288542282	10
10	208	445.426883461239	11
10	285	642.852204457678	12
10	300	666.123998518003	13
10	310	692.296201596188	14
10	314	707.174758416955	15
10	321	718.627327699064	16
10	329	725.978438086876	17
10	349	759.785179545867	18
10	390	853.673845421965	19
10	426	932.202672012874	20
10	431	936.657389288969	21
10	436	946.297682443241	22
10	441	960.738265453186	23
10	463	1042.502595974247	24
10	468	1060.452690583967	25
10	478	1073.028472791389	26
10	498	1113.293494763991	27
10	502	1132.000155132253	28
10	516	1154.808071207918	29
10	524	1170.522199205898	30
10	570	1231.608305717097	31
10	577	1288.624242739881	32
10	616	1356.036850805122	33
10	627	1405.653119015198	34
10	745	1686.708174305305	35
10	819	1868.713537013691	36
10	835	1898.558444776125	37
10	845	1910.506246022932	38
10	863	1966.608133512492	39
10	872	1976.663636876505	40
10	890	2021.706676798273	41
10	906	2073.959348802285	42
10	915	2092.180436930985	43
10	929	2118.166042985004	44
10	947	2169.154750841632	45
10	950	2177.061307273094	46
10	953	2178.914416394662	47
10	958	2195.814478513715	48
10	964	2214.891347264506	49
10	991	2280.78927417951	50
10	1002	2288.659915777357	51
10	1023	2325.886460952761	52
10	1039	2363.241703758442	53
10	1053	2385.090107213244	54
10	1069	2420.381264551342	55
10	1079	2438.055371942036	56
10	1082	2446.879911890008	57
11	1114	2500	0.0816
12	1114	2500	0.0508

