file 62966 1678560025                                           
version 2
run experiments_hard_game_mode1-295-20230311-19:40:25-6141
attr configname experiments_hard_game_mode1
attr datetime 20230311-19:40:25
attr experiment experiments_hard_game_mode1
attr inifile omnetpp.ini
attr iterationvars "$0=7.5, $1=7, $2=100"
attr iterationvarsf 7.5,7,100-
attr measurement "$0=7.5, $1=7, $2=100"
attr network Network
attr processid 6141
attr repetition 25
attr replication #25
attr resultdir results
attr runnumber 295
attr seedset 25
param *.boss.arrival_mean 20
param *.boss.service_mean 7.5
param *.minion.arrival_mean 10
param *.minion.service_mean 7
param *.player.recover_rate_x 100
param **.minion.arrival_distribution 0
param **.minion.service_distribution 0
param **.boss.arrival_distribution 0
param **.boss.service_distribution 0

vector 0 Network.player minion_jobs_number_stat:vector ETV
attr source signal_minion_jobs_number
vector 1 Network.player minion_jobs_queue_number_stat:vector ETV
attr source signal_minion_jobs_queue_number
vector 2 Network.player minion_defeated_stat:vector ETV
attr source signal_minion_defeated
vector 3 Network.player minion_response_time_stat:vector ETV
attr source signal_minion_response_time
vector 4 Network.player minion_waiting_time_stat:vector ETV
attr source signal_minion_waiting_time
vector 5 Network.player boss_jobs_number_stat:vector ETV
attr source signal_boss_jobs_number
vector 6 Network.player boss_jobs_queue_number_stat:vector ETV
attr source signal_boss_jobs_queue_number
vector 7 Network.player minion_recovered_stat:vector ETV
attr source signal_minion_recovered
vector 8 Network.player boss_waiting_time_stat:vector ETV
attr source signal_boss_waiting_time
vector 9 Network.player boss_defeated_stat:vector ETV
attr source signal_boss_defeated
vector 10 Network.player boss_response_time_stat:vector ETV
attr source signal_boss_response_time
vector 11 Network.player minion_throughput:vector ETV
attr source signal_minion_throughput
vector 12 Network.player boss_throughput:vector ETV
attr source signal_boss_throughput
0	2019 6162 172 1144 362.268301555052 2498.954044201238 231 16 68 11046 554728
1	8181 11043 172 1144 362.268301555052 2498.954044201238 413 15 67 19523 965333
2	19224 4987 173 1119 368.838572660258 2460.325223782184 182 24 205 20839 2888431
3	24211 7232 173 1119 368.838572660258 2460.325223782184 182 112.19570680763 462.51701880154 63366.537017009 22929295.326785
4	31443 10282 173 1142 368.838572660258 2492.154014421011 259 110.84146933362 457.62952324473 88515.512151838 31399468.725988
5	41725 2833 185 1139 407.023051346512 2475.119593842137 110 1 5 156 284
6	44558 5662 185 1142 407.023051346512 2492.154014421011 220 0 4 92 164
7	50220 2066 185 1139 407.023051346512 2475.119593842137 77 15 91 4081 254331
8	52286 3269 185 1139 407.023051346512 2475.119593842137 110 0 28.442151630918 319.29423416066 5278.008388182
9	55555 2971 186 1142 410.257423648845 2492.154014421011 110 22 131 8415 754655
10	58526 4400 186 1142 410.257423648845 2492.154014421011 110 0.020115073587 36.858767240049 1082.3655394267 19581.014715976
11	62926 19 1145 1145 2500 2500 1 0.082 0.082 0.082 0.006724
12	62945 20 1145 1145 2500 2500 1 0.0524 0.0524 0.0524 0.00274576

