version 2
run experiments_hard_game_mode1-1105-20230311-19:43:18-10437
attr configname experiments_hard_game_mode1
attr datetime 20230311-19:43:18
attr experiment experiments_hard_game_mode1
attr inifile omnetpp.ini
attr iterationvars "$0=9, $1=6, $2=0"
attr iterationvarsf 9,6,0-
attr measurement "$0=9, $1=6, $2=0"
attr network Network
attr processid 10437
attr repetition 25
attr replication #25
attr resultdir results
attr runnumber 1105
attr seedset 25
param *.boss.arrival_mean 20
param *.boss.service_mean 9
param *.minion.arrival_mean 10
param *.minion.service_mean 6
param *.player.recover_rate_x 0
param **.minion.arrival_distribution 0
param **.minion.service_distribution 0
param **.boss.arrival_distribution 0
param **.boss.service_distribution 0

scalar Network.player boss_throughput:mean 0.0524
attr source signal_boss_throughput
scalar Network.player boss_throughput:last 0.0524
attr source signal_boss_throughput
scalar Network.player boss_defeated_stat:count 110
attr source signal_boss_defeated
scalar Network.player boss_defeated_stat:mean 76.5
attr source signal_boss_defeated
scalar Network.player boss_waiting_time_stat:mean 4.5940749094889
attr source signal_boss_waiting_time
scalar Network.player boss_response_time_stat:mean 12.918489148755
attr source signal_boss_response_time
scalar Network.player minion_throughput:mean 0.0912
attr source signal_minion_throughput
scalar Network.player minion_throughput:last 0.0912
attr source signal_minion_throughput
scalar Network.player minion_recovered_stat:count 67
attr source signal_minion_recovered
scalar Network.player minion_recovered_stat:mean 45
attr source signal_minion_recovered
scalar Network.player minion_defeated_stat:count 204
attr source signal_minion_defeated
scalar Network.player minion_defeated_stat:mean 126.5
attr source signal_minion_defeated
scalar Network.player minion_waiting_time_stat:mean 259.44398945835
attr source signal_minion_waiting_time
scalar Network.player minion_response_time_stat:mean 264.54877539055
attr source signal_minion_response_time

