version 2
run experiments_hard_game_mode1-351-20230311-19:40:36-6426
attr configname experiments_hard_game_mode1
attr datetime 20230311-19:40:36
attr experiment experiments_hard_game_mode1
attr inifile omnetpp.ini
attr iterationvars "$0=8, $1=3, $2=100"
attr iterationvarsf 8,3,100-
attr measurement "$0=8, $1=3, $2=100"
attr network Network
attr processid 6426
attr repetition 21
attr replication #21
attr resultdir results
attr runnumber 351
attr seedset 21
param *.boss.arrival_mean 20
param *.boss.service_mean 8
param *.minion.arrival_mean 10
param *.minion.service_mean 3
param *.player.recover_rate_x 100
param **.minion.arrival_distribution 0
param **.minion.service_distribution 0
param **.boss.arrival_distribution 0
param **.boss.service_distribution 0

vector 0 Network.player boss_defeated_stat:vector ETV
attr source signal_boss_defeated
vector 1 Network.player boss_jobs_queue_number_stat:vector ETV
attr source signal_boss_jobs_queue_number
vector 2 Network.player boss_response_time_stat:vector ETV
attr source signal_boss_response_time
vector 3 Network.player minion_waiting_time_stat:vector ETV
attr source signal_minion_waiting_time
vector 4 Network.player minion_defeated_stat:vector ETV
attr source signal_minion_defeated
vector 5 Network.player minion_jobs_queue_number_stat:vector ETV
attr source signal_minion_jobs_queue_number
vector 6 Network.player minion_response_time_stat:vector ETV
attr source signal_minion_response_time
vector 7 Network.player minion_jobs_number_stat:vector ETV
attr source signal_minion_jobs_number
vector 8 Network.player boss_jobs_number_stat:vector ETV
attr source signal_boss_jobs_number
vector 9 Network.player boss_waiting_time_stat:vector ETV
attr source signal_boss_waiting_time
vector 10 Network.player minion_recovered_stat:vector ETV
attr source signal_minion_recovered
vector 11 Network.player minion_throughput:vector ETV
attr source signal_minion_throughput
vector 12 Network.player boss_throughput:vector ETV
attr source signal_boss_throughput
0	151	351.370013459574	15
0	186	448.180953044988	16
0	195	497.213161603075	17
0	201	509.826375717764	18
0	209	526.175813495165	19
0	212	528.77029097537	20
0	217	538.562453013914	21
0	234	582.390500770388	22
0	240	620.807315721147	23
0	243	633.523072117023	24
0	252	661.574796838697	25
0	258	678.757106689752	26
0	273	710.680546976769	27
0	287	730.060759269523	28
0	313	766.22000608148	29
0	316	768.139535024314	30
0	321	779.620416131768	31
0	330	786.909303632906	32
0	331	789.391288788161	33
0	342	800.122184811501	34
0	345	802.60810404631	35
0	348	805.614292331372	36
0	355	835.477603410709	37
0	356	837.452538644123	38
0	369	872.748079837802	39
0	396	905.016818303343	40
0	403	909.363745616342	41
0	408	918.255334397949	42
0	425	934.289218380758	43
0	428	939.161961979687	44
0	451	976.613088291044	45
0	474	1028.255337256255	46
0	479	1033.008010063257	47
0	493	1069.911262359282	48
0	505	1094.606877174026	49
0	506	1095.898183339655	50
0	512	1104.709098708338	51
0	530	1134.803220162636	52
0	533	1137.077996016805	53
0	546	1167.937607361557	54
0	566	1216.895293347051	55
0	567	1218.685269354933	56
0	568	1222.01243995688	57
0	589	1296.053783395559	58
0	590	1299.216427848319	59
0	594	1308.035638619981	60
0	599	1320.231383765303	61
0	600	1320.345473462961	62
0	606	1341.229476120688	63
0	613	1350.531516834724	64
0	617	1354.675715234105	65
0	639	1408.312689241801	66
0	658	1432.685844199346	67
0	667	1450.362806063163	68
0	670	1461.475695492302	69
0	671	1468.14252173084	70
0	672	1470.20183392782	71
0	673	1471.657864738759	72
0	734	1580.171442725096	73
0	738	1599.510582331116	74
0	749	1641.024512029633	75
0	755	1656.761497384256	76
0	767	1685.918477249913	77
0	795	1747.395699539045	78
0	804	1770.907869377984	79
0	805	1773.471803819618	80
0	808	1784.934346991224	81
0	837	1853.561114062603	82
0	848	1866.218093933911	83
0	849	1870.414725651359	84
0	874	1925.520241989244	85
0	879	1932.249878268396	86
0	885	1942.214642513357	87
0	893	1957.327677121612	88
0	911	1984.316555011557	89
0	914	1994.715560770619	90
0	923	2003.087914104889	91
0	930	2030.467832011155	92
0	933	2040.098309532089	93
0	941	2055.48765884463	94
0	952	2079.282435444185	95
0	953	2082.587598448403	96
0	969	2126.397759216679	97
0	974	2128.82180062907	98
0	992	2166.574078339674	99
0	998	2173.524365575984	100
0	1002	2197.719288618627	101
0	1023	2251.771340373516	102
0	1026	2260.221919322631	103
0	1029	2274.439418112471	104
0	1044	2307.663665144759	105
0	1073	2413.649496092809	106
0	1080	2431.411012629257	107
0	1083	2435.944396167561	108
0	1088	2450.97265522552	109
1	151	351.370013459574	0
1	185	437.655607876823	0
1	186	448.180953044988	0
1	188	476.417763818169	0
1	195	497.213161603075	0
1	200	505.157294903869	0
1	201	509.826375717764	0
1	206	518.497244516544	0
1	208	524.0058841167	1
1	209	526.175813495165	1
1	212	528.77029097537	0
1	214	529.768904742497	0
1	217	538.562453013914	0
1	233	580.600471402607	0
1	234	582.390500770388	0
1	239	617.556769837513	0
1	240	620.807315721147	0
1	242	627.787029116695	0
1	243	633.523072117023	0
1	251	659.958738792625	0
1	252	661.574796838697	0
1	257	677.472481062608	0
1	258	678.757106689752	0
1	270	707.079421658916	0
1	273	710.680546976769	0
1	284	727.849037380949	0
1	287	730.060759269523	0
1	310	762.10861487089	0
1	312	766.064582611732	1
1	313	766.22000608148	1
1	315	767.243145531648	1
1	316	768.139535024314	1
1	318	772.710391185803	1
1	321	779.620416131768	1
1	323	780.04016885003	1
1	325	781.156737009427	2
1	329	785.089428818756	3
1	330	786.909303632906	3
1	331	789.391288788161	2
1	333	791.300089263771	2
1	342	800.122184811501	2
1	344	801.447574365974	2
1	345	802.60810404631	2
1	348	805.614292331372	1
1	354	828.207746898685	1
1	355	835.477603410709	1
1	356	837.452538644123	0
1	368	872.233908686601	0
1	369	872.748079837802	0
1	389	897.458853731429	0
1	395	904.239175991417	1
1	396	905.016818303343	1
1	402	908.062744141541	1
1	403	909.363745616342	1
1	408	918.255334397949	0
1	424	930.827557754315	0
1	425	934.289218380758	0
1	427	936.983423856897	0
1	428	939.161961979687	0
1	450	975.863125736149	0
1	451	976.613088291044	0
1	473	1024.781438977254	0
1	474	1028.255337256255	0
1	478	1031.249239247124	0
1	479	1033.008010063257	0
1	488	1057.375757117136	0
1	493	1069.911262359282	0
1	496	1071.984350674741	0
1	504	1087.347407495617	1
1	505	1094.606877174026	1
1	506	1095.898183339655	0
1	511	1104.624125570428	0
1	512	1104.709098708338	0
1	527	1131.913251019904	0
1	530	1134.803220162636	0
1	532	1135.430596268884	0
1	533	1137.077996016805	0
1	541	1156.225977596079	0
1	546	1167.937607361557	0
1	551	1183.033137147023	0
1	553	1184.399680763421	1
1	563	1202.823700682684	2
1	566	1216.895293347051	2
1	567	1218.685269354933	1
1	568	1222.01243995688	0
1	584	1290.756257528264	0
1	586	1291.773124459133	1
1	589	1296.053783395559	1
1	590	1299.216427848319	0
1	593	1303.250290103507	0
1	594	1308.035638619981	0
1	596	1311.742924506421	0
1	598	1318.834994364708	1
1	599	1320.231383765303	1
1	600	1320.345473462961	0
1	605	1341.051374691128	0
1	606	1341.229476120688	0
1	608	1348.418308572707	0
1	613	1350.531516834724	0
1	616	1352.969785587635	0
1	617	1354.675715234105	0
1	626	1392.271716502791	0
1	628	1395.251755794326	1
1	639	1408.312689241801	1
1	645	1420.79883808038	1
1	655	1432.314240596926	2
1	657	1432.462336685495	3
1	658	1432.685844199346	3
1	664	1439.522554827319	3
1	667	1450.362806063163	3
1	669	1453.866869318157	3
1	670	1461.475695492302	3
1	671	1468.14252173084	2
1	672	1470.20183392782	1
1	673	1471.657864738759	0
1	731	1572.04492876378	0
1	734	1580.171442725096	0
1	737	1595.075952196652	0
1	738	1599.510582331116	0
1	748	1640.764755717333	0
1	749	1641.024512029633	0
1	754	1652.793029395307	0
1	755	1656.761497384256	0
1	764	1681.66743090527	0
1	767	1685.918477249913	0
1	782	1726.483585756461	0
1	786	1731.217903927377	1
1	792	1745.062392548567	2
1	795	1747.395699539045	2
1	801	1761.688329774283	2
1	804	1770.907869377984	2
1	805	1773.471803819618	1
1	808	1784.934346991224	0
1	830	1834.890265730179	0
1	837	1853.561114062603	0
1	843	1861.258659594882	0
1	845	1862.537144774147	1
1	848	1866.218093933911	1
1	849	1870.414725651359	0
1	869	1921.970189220149	0
1	874	1925.520241989244	0
1	876	1926.174871237724	0
1	879	1932.249878268396	0
1	884	1939.677308397534	0
1	885	1942.214642513357	0
1	890	1947.375216089019	0
1	893	1957.327677121612	0
1	908	1982.883816033365	0
1	910	1983.984816311616	1
1	911	1984.316555011557	1
1	913	1991.286837472051	1
1	914	1994.715560770619	1
1	916	1996.754152655681	1
1	922	2002.466128489888	2
1	923	2003.087914104889	2
1	930	2030.467832011155	1
1	933	2040.098309532089	0
1	940	2055.107241010381	0
1	941	2055.48765884463	0
1	947	2068.075372850136	0
1	951	2075.632832202764	1
1	952	2079.282435444185	1
1	953	2082.587598448403	0
1	962	2104.666754849128	0
1	969	2126.397759216679	0
1	973	2127.889419142281	0
1	974	2128.82180062907	0
1	989	2158.870692950259	0
1	992	2166.574078339674	0
1	995	2167.354006824154	0
1	998	2173.524365575984	0
1	1001	2188.12599603428	0
1	1002	2197.719288618627	0
1	1022	2251.243384943465	0
1	1023	2251.771340373516	0
1	1025	2258.364926004097	0
1	1026	2260.221919322631	0
1	1028	2269.872364346719	0
1	1029	2274.439418112471	0
1	1043	2307.555450401146	0
1	1044	2307.663665144759	0
1	1070	2408.063543574337	0
1	1072	2409.514620667025	1
1	1073	2413.649496092809	1
1	1079	2424.407726500811	1
1	1080	2431.411012629257	1
1	1082	2432.363775165864	1
1	1083	2435.944396167561	1
1	1088	2450.97265522552	0
1	1097	2490.842751616098	0
2	151	351.370013459574	10.159570332969
2	186	448.180953044988	10.525345168165
2	195	497.213161603075	20.795397784906
2	201	509.826375717764	4.669080813895
2	209	526.175813495165	7.678568978621
2	212	528.77029097537	4.76440685867
2	217	538.562453013914	8.793548271417
2	234	582.390500770388	1.790029367781
2	240	620.807315721147	3.250545883634
2	243	633.523072117023	5.736043000328
2	252	661.574796838697	1.616058046072
2	258	678.757106689752	1.284625627144
2	273	710.680546976769	3.601125317853
2	287	730.060759269523	2.211721888574
2	313	766.22000608148	4.11139121059
2	316	768.139535024314	2.074952412582
2	321	779.620416131768	12.37727060012
2	330	786.909303632906	14.198912447103
2	331	789.391288788161	9.351119938131
2	342	800.122184811501	18.965447802074
2	345	802.60810404631	17.518675227554
2	348	805.614292331372	14.314203067601
2	355	835.477603410709	34.030029044735
2	356	837.452538644123	9.244791745438
2	369	872.748079837802	0.514171151201
2	396	905.016818303343	7.557964571914
2	403	909.363745616342	5.124569624925
2	408	918.255334397949	10.192590256408
2	425	934.289218380758	3.461660626443
2	428	939.161961979687	2.17853812279
2	451	976.613088291044	0.749962554895
2	474	1028.255337256255	3.473898279001
2	479	1033.008010063257	1.758770816133
2	493	1069.911262359282	12.535505242146
2	505	1094.606877174026	22.622526499285
2	506	1095.898183339655	8.550775844038
2	512	1104.709098708338	0.08497313791
2	530	1134.803220162636	2.889969142732
2	533	1137.077996016805	1.647399747921
2	546	1167.937607361557	11.711629765478
2	566	1216.895293347051	33.862156200028
2	567	1218.685269354933	34.285588591512
2	568	1222.01243995688	19.188739274196
2	589	1296.053783395559	5.297525867295
2	590	1299.216427848319	7.443303389186
2	594	1308.035638619981	4.785348516474
2	599	1320.231383765303	8.488459258882
2	600	1320.345473462961	1.510479098253
2	606	1341.229476120688	0.17810142956
2	613	1350.531516834724	2.113208262017
2	617	1354.675715234105	1.70592964647
2	639	1408.312689241801	16.04097273901
2	658	1432.685844199346	37.43408840502
2	667	1450.362806063163	29.563967982783
2	670	1461.475695492302	29.161454895376
2	671	1468.14252173084	35.680185045345
2	672	1470.20183392782	30.679279100501
2	673	1471.657864738759	17.790995420602
2	734	1580.171442725096	8.126513961316
2	738	1599.510582331116	4.434630134464
2	749	1641.024512029633	0.2597563123
2	755	1656.761497384256	3.968467988949
2	767	1685.918477249913	4.251046344643
2	795	1747.395699539045	20.912113782584
2	804	1770.907869377984	39.689965450607
2	805	1773.471803819618	28.409411271051
2	808	1784.934346991224	23.246017216941
2	837	1853.561114062603	18.670848332424
2	848	1866.218093933911	4.959434339029
2	849	1870.414725651359	7.877580877212
2	874	1925.520241989244	3.550052769095
2	879	1932.249878268396	6.075007030672
2	885	1942.214642513357	2.537334115823
2	893	1957.327677121612	9.952461032593
2	911	1984.316555011557	1.432738978192
2	914	1994.715560770619	10.730744459003
2	923	2003.087914104889	11.801076632838
2	930	2030.467832011155	33.713679355474
2	933	2040.098309532089	37.632181042201
2	941	2055.48765884463	0.380417834249
2	952	2079.282435444185	11.207062594049
2	953	2082.587598448403	6.954766245639
2	969	2126.397759216679	21.731004367551
2	974	2128.82180062907	0.932381486789
2	992	2166.574078339674	7.703385389415
2	998	2173.524365575984	6.17035875183
2	1002	2197.719288618627	9.593292584347
2	1023	2251.771340373516	0.527955430051
2	1026	2260.221919322631	1.856993318534
2	1029	2274.439418112471	4.567053765752
2	1044	2307.663665144759	0.108214743613
2	1073	2413.649496092809	5.585952518472
2	1080	2431.411012629257	21.896391962232
2	1083	2435.944396167561	11.53666966675
2	1088	2450.97265522552	18.608880059656
3	151	351.370013459574	16.014266363938
3	152	352.288986268633	11.078543142028
3	155	363.579054885799	0
3	158	373.543285395769	0
3	161	376.152406704369	1.490492518823
3	164	379.716957088455	0
3	167	389.216009352237	0
3	170	396.071423758288	0
3	173	398.038762616448	0
3	176	420.926712749432	0
3	179	421.697435476152	0
3	182	427.106563712059	0.71797439427
3	195	497.213161603075	15.776718079103
3	196	498.351626137758	8.702856255397
3	197	498.555470643534	4.501880078861
3	203	509.899732218342	0
3	212	528.77029097537	0.57753482521
3	217	538.562453013914	8.793548271417
3	218	540.199258474972	3.223783946159
3	221	547.138558063227	0
3	224	560.03261985754	0
3	227	562.385083159734	0
3	230	570.527389667603	0
3	236	608.890487285279	0
3	245	655.955770116286	0
3	248	657.445543481161	0
3	254	671.478368522561	0
3	260	679.535327752802	0
3	263	700.541593501188	0
3	266	703.644066229174	0
3	273	710.680546976769	4.340191789518
3	274	712.42674925163	5.347327592714
3	277	714.287680660228	4.212139529384
3	278	715.047424171765	2.064088798089
3	281	717.003022803627	0
3	287	730.060759269523	0.856949310126
3	292	732.298737098572	1.518665724912
3	293	733.893455730708	2.146872781634
3	296	748.936832870384	0
3	299	751.848064610048	0.390918147434
3	304	754.864699091103	1.650707009369
3	305	755.686351165579	1.189789476845
3	308	761.394955609275	0
3	356	837.452538644123	75.343923773233
3	357	838.091361955734	60.366829395162
3	358	841.05491128612	59.310196385467
3	359	841.951312913391	48.497866139677
3	360	844.533871115226	48.913253549054
3	361	844.829242061758	48.329428695149
3	362	846.770447877778	48.688557279091
3	363	848.998402340915	45.185353352837
3	364	850.615776728074	35.19595727482
3	365	856.662405378272	35.460804845331
3	371	873.450606604169	0
3	374	875.082887356669	0.436792531462
3	377	878.369722007136	0.372296740517
3	380	879.267984102768	0
3	383	887.619515064544	0
3	408	918.255334397949	28.866690283806
3	409	921.85123581741	31.180762500775
3	410	922.168547952379	24.70969422095
3	415	928.792760489014	25.107846897777
3	416	929.606907099859	25.478681340547
3	417	929.611830794197	24.056582876747
3	420	929.999373137783	22.72613059052
3	425	934.289218380758	22.314267941807
3	428	939.161961979687	21.512799712656
3	431	950.63414330281	28.309393089572
3	432	951.277311257801	24.217014859542
3	435	954.609962395405	24.971508286981
3	438	960.334667322745	30.075582719899
3	439	963.264715470246	32.437157715931
3	442	965.794708656083	28.811284799186
3	445	969.296037422917	25.092584429613
3	448	974.945675586482	20.938263362719
3	451	976.613088291044	17.828264780718
3	454	983.880158576342	18.404999376174
3	459	988.988915697869	21.902265387485
3	460	992.183301448033	19.791194503985
3	461	992.432219042737	16.569093306588
3	462	992.802247036523	12.441133405461
3	463	994.302274164732	7.93484503172
3	466	1000.305859619061	12.188663252123
3	469	1002.016645729452	5.856215971838
3	470	1005.617330029448	4.091885555592
3	476	1028.831373523952	0
3	479	1033.008010063257	1.758770816133
3	482	1034.980675883431	1.847372202076
3	485	1041.486098797531	5.281916692374
3	493	1069.911262359282	2.587045933408
3	494	1070.052924879755	2.550333797849
3	506	1095.898183339655	23.913832664914
3	507	1101.745527552045	28.231104151157
3	512	1104.709098708338	19.207718860389
3	513	1107.07138052132	20.317680821413
3	514	1108.103023585436	4.880896569431
3	515	1111.537284423175	6.913158852747
3	518	1116.152725647456	0
3	521	1126.434529361977	0
3	524	1127.077114862804	0.035321296294
3	530	1134.803220162636	0.264165187755
3	533	1137.077996016805	1.647399747921
3	536	1142.196368059612	3.932885377425
3	539	1156.12305913709	0
3	546	1167.937607361557	11.711629765478
3	547	1168.181922085636	10.319375371501
3	548	1171.160866529578	8.973409454304
3	568	1222.01243995688	30.490891631585
3	569	1222.969172065768	29.345799215717
3	570	1228.892563313217	34.41819483579
3	571	1230.79340778581	36.144682941507
3	572	1233.613892657166	20.398820827368
3	575	1252.704514483121	0
3	578	1261.23242101734	0
3	581	1277.893770322476	0
3	590	1299.216427848319	5.519335021949
3	602	1326.086669640338	0
3	613	1350.531516834724	1.49803845457
3	614	1351.103187654377	1.941581420692
3	617	1354.675715234105	1.70592964647
3	620	1358.494841085527	0.195991175735
3	623	1361.627248330642	0
3	673	1471.657864738759	72.710623182936
3	676	1474.181545973059	72.655405170982
3	677	1475.560513653682	69.703675621893
3	678	1482.665219530275	76.781022051253
3	679	1482.907985160785	75.672958000569
3	680	1485.080421341081	73.553533953767
3	681	1487.396899001683	68.519951658914
3	682	1490.146059128449	65.474231938385
3	683	1490.504024992377	63.252306491014
3	684	1491.774891033962	62.519982449987
3	685	1494.493224055183	65.198404949087
3	686	1497.911150204897	61.527089990855
3	687	1499.482229839277	61.613128585511
3	688	1503.25580470915	62.062666032277
3	691	1505.710611341764	32.403597658601
3	696	1516.764164081796	13.081730861007
3	697	1520.149841775556	10.342764297484
3	698	1520.208444767686	3.960608662041
3	703	1529.933618044661	3.242539755815
3	704	1530.848133174805	1.145472715599
3	713	1538.581913165531	5.579774841141
3	714	1538.90342947606	2.204958246508
3	715	1539.200124962431	0.966127759005
3	716	1541.077520124357	2.627410783425
3	719	1545.366357871776	0
3	722	1549.21856910769	0.529858192413
3	725	1550.797197590529	0.495536511912
3	728	1553.284838352992	0
3	734	1580.171442725096	2.521456722839
3	740	1607.203150496704	0
3	743	1627.914224295672	0
3	746	1640.74915603755	0
3	749	1641.024512029633	0.2597563123
3	752	1651.521775860583	0
3	755	1656.761497384256	3.968467988949
3	758	1669.18562057105	0
3	761	1675.541657840223	0
3	767	1685.918477249913	1.856362339935
3	770	1706.362005494458	0
3	773	1708.703987353032	1.026236610335
3	776	1714.469484724958	0
3	779	1723.125223890593	0
3	808	1784.934346991224	54.913733260293
3	809	1789.893805682962	52.015884263662
3	810	1798.489844149007	59.118846182836
3	815	1807.645468400194	61.683457379765
3	816	1808.49725190074	58.615414612636
3	819	1816.550893542502	57.364030762328
3	820	1817.024646055938	47.394343747001
3	821	1817.237477719962	39.870197112907
3	822	1817.30132048165	17.071765051256
3	823	1819.030624291294	13.036554193423
3	826	1825.446093480192	15.290235428684
3	827	1825.887079929269	3.216068759834
3	837	1853.561114062603	15.603096434626
3	840	1855.3043304946	13.524079780159
3	841	1858.933833929423	7.824525315773
3	849	1870.414725651359	15.393179190104
3	850	1872.991978613176	11.733319018294
3	851	1876.57447070657	13.158654479602
3	854	1881.021825344395	0
3	857	1885.846746368614	0
3	860	1890.499301310651	0
3	863	1894.827859983567	0.094409632499
3	866	1918.63216097021	0
3	874	1925.520241989244	1.331944008373
3	879	1932.249878268396	6.930778312305
3	880	1935.153532598922	8.978661361198
3	881	1937.122358139035	7.536521245447
3	887	1945.324858033802	0
3	893	1957.327677121612	8.224720440577
3	896	1970.195359007643	0
3	899	1972.073306983018	0
3	902	1977.296437415521	0
3	905	1978.336379637879	0
3	933	2040.098309532089	39.452310762353
3	934	2041.096654592675	39.563524248621
3	935	2047.394296797131	39.399270702322
3	936	2052.005926843866	27.40255035863
3	937	2052.168157886663	27.21759957108
3	938	2053.79039772677	20.352678296953
3	941	2055.48765884463	0.380417834249
3	944	2063.036863365565	0
3	953	2082.587598448403	9.550058979841
3	956	2098.626161585843	0
3	959	2101.652191291521	0
3	969	2126.397759216679	21.675239592338
3	974	2128.82180062907	14.521519416281
3	975	2129.775614234151	6.179743629566
3	978	2132.302184433267	5.821792728012
3	979	2133.551566483985	5.662147341704
3	980	2134.070646406518	2.932637629341
3	983	2145.312916017673	0
3	986	2155.265748692222	0
3	992	2166.574078339674	6.834913615142
3	998	2173.524365575984	3.346330928546
3	1004	2202.388911678322	0
3	1009	2203.938050825949	0.732359514774
3	1010	2204.028464745637	0.503909104626
3	1013	2210.289759920931	0
3	1016	2218.38631511756	5.58785614479
3	1019	2247.549440949729	0
3	1031	2280.676308392161	0
3	1034	2285.947942009678	0
3	1037	2293.178156133197	0
3	1040	2298.799601909191	0.736102122005
3	1046	2331.409750970106	0
3	1049	2335.595798817299	0
3	1052	2337.869263900486	0
3	1055	2345.414111781883	0
3	1058	2367.882882518354	0
3	1061	2375.883843674064	0
3	1064	2396.56508061736	0
3	1067	2402.72537027751	0
3	1088	2450.97265522552	32.363756429201
3	1089	2451.93073571039	31.002259578456
3	1090	2455.181639093176	14.664961793929
3	1091	2462.620494702789	14.388315649152
3	1094	2489.019590075643	0
4	152	352.288986268633	35
4	153	352.598251202952	36
4	156	364.814582328226	37
4	161	376.152406704369	38
4	162	376.187826783337	39
4	165	379.761583012581	40
4	168	390.733259292829	41
4	171	397.662294503731	42
4	174	401.544022792397	43
4	177	421.370083163397	44
4	182	427.106563712059	45
4	183	427.537897006851	46
4	196	498.351626137758	47
4	197	498.555470643534	48
4	198	502.365692129855	49
4	204	511.603217824622	50
4	218	540.199258474972	51
4	219	540.80342800582	52
4	222	548.512746271775	53
4	225	560.312273730259	54
4	228	562.991287954306	55
4	231	573.803172745717	56
4	237	611.198364302467	57
4	246	656.918928801094	58
4	249	657.541904578569	59
4	255	671.480880923801	60
4	261	682.273659587405	61
4	264	701.693773037688	62
4	274	712.42674925163	63
4	277	714.287680660228	64
4	278	715.047424171765	65
4	279	715.195636448102	66
4	282	719.955711002805	67
4	292	732.298737098572	68
4	293	733.893455730708	69
4	294	739.511290285228	70
4	299	751.848064610048	71
4	304	754.864699091103	72
4	305	755.686351165579	73
4	306	758.240381256554	74
4	357	838.091361955734	75
4	358	841.05491128612	76
4	359	841.951312913391	77
4	360	844.533871115226	78
4	361	844.829242061758	79
4	362	846.770447877778	80
4	363	848.998402340915	81
4	364	850.615776728074	82
4	365	856.662405378272	83
4	366	866.313809624197	84
4	374	875.082887356669	85
4	377	878.369722007136	86
4	378	879.114660239313	87
4	381	882.466828069511	88
4	409	921.85123581741	89
4	410	922.168547952379	90
4	415	928.792760489014	91
4	416	929.606907099859	92
4	417	929.611830794197	93
4	420	929.999373137783	94
4	431	950.63414330281	95
4	432	951.277311257801	96
4	435	954.609962395405	97
4	438	960.334667322745	98
4	439	963.264715470246	99
4	442	965.794708656083	100
4	445	969.296037422917	101
4	448	974.945675586482	102
4	454	983.880158576342	103
4	459	988.988915697869	104
4	460	992.183301448033	105
4	461	992.432219042737	106
4	462	992.802247036523	107
4	463	994.302274164732	108
4	466	1000.305859619061	109
4	469	1002.016645729452	110
4	470	1005.617330029448	111
4	471	1015.973341418982	112
4	482	1034.980675883431	113
4	485	1041.486098797531	114
4	486	1050.756226566161	115
4	494	1070.052924879755	116
4	507	1101.745527552045	117
4	513	1107.07138052132	118
4	514	1108.103023585436	119
4	515	1111.537284423175	120
4	516	1113.530221426532	121
4	519	1122.51477575887	122
4	524	1127.077114862804	123
4	525	1127.789078735431	124
4	536	1142.196368059612	125
4	537	1142.825437649194	126
4	547	1168.181922085636	127
4	548	1171.160866529578	128
4	549	1178.449490786967	129
4	569	1222.969172065768	130
4	570	1228.892563313217	131
4	571	1230.79340778581	132
4	572	1233.613892657166	133
4	573	1235.312465234156	134
4	576	1253.148347702688	135
4	579	1262.004213382824	136
4	582	1279.301720997788	137
4	591	1299.528313574279	138
4	603	1326.838451385998	139
4	614	1351.103187654377	140
4	620	1358.494841085527	141
4	621	1358.751089332787	142
4	624	1363.911765305135	143
4	676	1474.181545973059	144
4	677	1475.560513653682	145
4	678	1482.665219530275	146
4	679	1482.907985160785	147
4	680	1485.080421341081	148
4	681	1487.396899001683	149
4	682	1490.146059128449	150
4	683	1490.504024992377	151
4	684	1491.774891033962	152
4	685	1494.493224055183	153
4	686	1497.911150204897	154
4	687	1499.482229839277	155
4	688	1503.25580470915	156
4	691	1505.710611341764	157
4	696	1516.764164081796	158
4	697	1520.149841775556	159
4	698	1520.208444767686	160
4	703	1529.933618044661	161
4	704	1530.848133174805	162
4	713	1538.581913165531	163
4	714	1538.90342947606	164
4	715	1539.200124962431	165
4	716	1541.077520124357	166
4	717	1541.499928917937	167
4	722	1549.21856910769	168
4	725	1550.797197590529	169
4	726	1551.926249229265	170
4	729	1564.167048733656	171
4	735	1590.997449162356	172
4	741	1608.464483735272	173
4	744	1628.14370309217	174
4	750	1647.229645692553	175
4	756	1658.368897589383	176
4	759	1669.372939350516	177
4	762	1675.715304754205	178
4	768	1687.755964495308	179
4	773	1708.703987353032	180
4	774	1714.044143336459	181
4	777	1717.253141025897	182
4	780	1724.353625717501	183
4	809	1789.893805682962	184
4	810	1798.489844149007	185
4	815	1807.645468400194	186
4	816	1808.49725190074	187
4	819	1816.550893542502	188
4	820	1817.024646055938	189
4	821	1817.237477719962	190
4	822	1817.30132048165	191
4	823	1819.030624291294	192
4	826	1825.446093480192	193
4	827	1825.887079929269	194
4	828	1826.252304227296	195
4	840	1855.3043304946	196
4	841	1858.933833929423	197
4	850	1872.991978613176	198
4	851	1876.57447070657	199
4	852	1878.610496631456	200
4	855	1881.859866841307	201
4	858	1887.346353003236	202
4	863	1894.827859983567	203
4	864	1895.481703121506	204
4	867	1920.362721020905	205
4	880	1935.153532598922	206
4	881	1937.122358139035	207
4	882	1938.91107306219	208
4	888	1946.713104520698	209
4	894	1960.416829404331	210
4	897	1971.338489160193	211
4	900	1974.498806156189	212
4	903	1977.953174659813	213
4	906	1981.410575035127	214
4	934	2041.096654592675	215
4	935	2047.394296797131	216
4	936	2052.005926843866	217
4	937	2052.168157886663	218
4	938	2053.79039772677	219
4	942	2056.402524051625	220
4	945	2064.567582092185	221
4	954	2089.065178258856	222
4	957	2099.489358980219	223
4	960	2104.267905238419	224
4	975	2129.775614234151	225
4	978	2132.302184433267	226
4	979	2133.551566483985	227
4	980	2134.070646406518	228
4	981	2136.846842930037	229
4	984	2149.660453508261	230
4	987	2155.657630502098	231
4	993	2167.089448005214	232
4	999	2177.80415346	233
4	1009	2203.938050825949	234
4	1010	2204.028464745637	235
4	1011	2206.799577042263	236
4	1016	2218.38631511756	237
4	1017	2219.405936030965	238
4	1020	2248.452170882915	239
4	1032	2281.660862103017	240
4	1035	2288.415442724807	241
4	1040	2298.799601909191	242
4	1041	2299.452654509329	243
4	1047	2332.837781414799	244
4	1050	2336.868034097346	245
4	1053	2340.305558426551	246
4	1056	2346.711037919071	247
4	1059	2368.094737126777	248
4	1062	2376.174014186727	249
4	1065	2397.79700444884	250
4	1068	2405.697141114263	251
4	1089	2451.93073571039	252
4	1090	2455.181639093176	253
4	1091	2462.620494702789	254
4	1092	2463.763143045325	255
4	1095	2489.096011024566	256
5	152	352.288986268633	1
5	153	352.598251202952	0
5	155	363.579054885799	0
5	156	364.814582328226	0
5	158	373.543285395769	0
5	160	374.661914185546	1
5	161	376.152406704369	1
5	162	376.187826783337	0
5	164	379.716957088455	0
5	165	379.761583012581	0
5	167	389.216009352237	0
5	168	390.733259292829	0
5	170	396.071423758288	0
5	171	397.662294503731	0
5	173	398.038762616448	0
5	174	401.544022792397	0
5	176	420.926712749432	0
5	177	421.370083163397	0
5	179	421.697435476152	0
5	181	426.388589317789	1
5	182	427.106563712059	1
5	183	427.537897006851	0
5	190	481.436443523972	0
5	192	489.648769882361	1
5	194	494.053590564673	2
5	196	498.351626137758	2
5	197	498.555470643534	1
5	198	502.365692129855	0
5	203	509.899732218342	0
5	204	511.603217824622	0
5	211	528.19275615016	0
5	216	536.975474528813	1
5	218	540.199258474972	1
5	219	540.80342800582	0
5	221	547.138558063227	0
5	222	548.512746271775	0
5	224	560.03261985754	0
5	225	560.312273730259	0
5	227	562.385083159734	0
5	228	562.991287954306	0
5	230	570.527389667603	0
5	231	573.803172745717	0
5	236	608.890487285279	0
5	237	611.198364302467	0
5	245	655.955770116286	0
5	246	656.918928801094	0
5	248	657.445543481161	0
5	249	657.541904578569	0
5	254	671.478368522561	0
5	255	671.480880923801	0
5	260	679.535327752802	0
5	261	682.273659587405	0
5	263	700.541593501188	0
5	264	701.693773037688	0
5	266	703.644066229174	0
5	268	706.340355187251	1
5	272	710.075541130844	2
5	274	712.42674925163	2
5	276	712.983335373676	2
5	277	714.287680660228	2
5	278	715.047424171765	1
5	279	715.195636448102	0
5	281	717.003022803627	0
5	282	719.955711002805	0
5	286	729.203809959397	0
5	289	730.78007137366	1
5	291	731.746582949074	2
5	292	732.298737098572	2
5	293	733.893455730708	1
5	294	739.511290285228	0
5	296	748.936832870384	0
5	298	751.457146462614	1
5	299	751.848064610048	1
5	301	753.213992081734	1
5	303	754.496561688734	2
5	304	754.864699091103	2
5	305	755.686351165579	1
5	306	758.240381256554	0
5	308	761.394955609275	0
5	320	777.724532560572	1
5	327	781.744714900653	2
5	335	793.453446773714	3
5	337	795.620617566172	4
5	339	796.499813366609	5
5	341	798.081890598687	6
5	347	803.813048988078	7
5	350	815.419819453254	8
5	352	821.201600532941	9
5	357	838.091361955734	9
5	358	841.05491128612	8
5	359	841.951312913391	7
5	360	844.533871115226	6
5	361	844.829242061758	5
5	362	846.770447877778	4
5	363	848.998402340915	3
5	364	850.615776728074	2
5	365	856.662405378272	1
5	366	866.313809624197	0
5	371	873.450606604169	0
5	373	874.646094825207	1
5	374	875.082887356669	1
5	376	877.997425266619	1
5	377	878.369722007136	1
5	378	879.114660239313	0
5	380	879.267984102768	0
5	381	882.466828069511	0
5	383	887.619515064544	0
5	385	889.388644114143	1
5	387	890.670473316635	2
5	391	903.684913591237	3
5	393	904.128225759312	4
5	398	905.55524791745	5
5	400	907.273242547263	6
5	405	911.974950438951	7
5	407	917.649162267031	8
5	409	921.85123581741	8
5	410	922.168547952379	7
5	412	922.324750213238	7
5	414	927.060296398259	8
5	415	928.792760489014	8
5	416	929.606907099859	7
5	417	929.611830794197	6
5	419	929.638454108424	6
5	420	929.999373137783	6
5	422	930.259084602846	6
5	430	944.203452993304	7
5	431	950.63414330281	7
5	432	951.277311257801	6
5	434	954.007412223763	6
5	435	954.609962395405	6
5	437	958.784823510326	6
5	438	960.334667322745	6
5	439	963.264715470246	5
5	441	965.475159200168	5
5	442	965.794708656083	5
5	444	967.086650310384	5
5	445	969.296037422917	5
5	447	972.392106944048	5
5	448	974.945675586482	5
5	453	980.361113631062	5
5	454	983.880158576342	5
5	456	986.367429133012	5
5	458	988.117196366938	6
5	459	988.988915697869	6
5	460	992.183301448033	5
5	461	992.432219042737	4
5	462	992.802247036523	3
5	463	994.302274164732	2
5	465	996.160429757614	2
5	466	1000.305859619061	2
5	468	1001.525444473856	2
5	469	1002.016645729452	2
5	470	1005.617330029448	1
5	471	1015.973341418982	0
5	476	1028.831373523952	0
5	481	1033.133303681355	1
5	482	1034.980675883431	1
5	484	1036.204182105157	1
5	485	1041.486098797531	1
5	486	1050.756226566161	0
5	490	1067.324216425874	0
5	492	1067.502591081906	1
5	494	1070.052924879755	1
5	498	1073.514423400888	1
5	500	1085.501379847949	2
5	502	1086.753699699907	3
5	507	1101.745527552045	3
5	509	1103.222127016005	3
5	513	1107.07138052132	3
5	514	1108.103023585436	2
5	515	1111.537284423175	1
5	516	1113.530221426532	0
5	518	1116.152725647456	0
5	519	1122.51477575887	0
5	521	1126.434529361977	0
5	523	1127.04179356651	1
5	524	1127.077114862804	1
5	525	1127.789078735431	0
5	529	1134.539054974881	0
5	535	1138.263482682187	1
5	536	1142.196368059612	1
5	537	1142.825437649194	0
5	539	1156.12305913709	0
5	543	1157.862546714135	1
5	545	1162.187457075274	2
5	547	1168.181922085636	2
5	548	1171.160866529578	1
5	549	1178.449490786967	0
5	555	1191.521548325295	0
5	557	1193.623372850051	1
5	559	1194.474368477427	2
5	561	1194.648724844303	3
5	565	1213.215071829798	4
5	569	1222.969172065768	4
5	570	1228.892563313217	3
5	571	1230.79340778581	2
5	572	1233.613892657166	1
5	573	1235.312465234156	0
5	575	1252.704514483121	0
5	576	1253.148347702688	0
5	578	1261.23242101734	0
5	579	1262.004213382824	0
5	581	1277.893770322476	0
5	582	1279.301720997788	0
5	588	1293.69709282637	0
5	591	1299.528313574279	0
5	602	1326.086669640338	0
5	603	1326.838451385998	0
5	610	1349.033478380154	0
5	612	1349.161606233685	1
5	614	1351.103187654377	1
5	619	1358.298849909792	1
5	620	1358.494841085527	1
5	621	1358.751089332787	0
5	623	1361.627248330642	0
5	624	1363.911765305135	0
5	630	1398.947241555823	0
5	632	1401.526140802077	1
5	634	1405.856838031789	2
5	636	1405.884197479022	3
5	638	1407.235027160216	4
5	641	1411.526887387314	5
5	643	1418.876947342769	6
5	647	1424.671827190064	7
5	649	1427.251718501363	8
5	651	1429.254908583975	9
5	653	1429.294819106096	10
5	660	1436.384060214042	11
5	662	1437.869101253766	12
5	666	1441.193138676873	13
5	675	1473.307013683163	14
5	676	1474.181545973059	14
5	677	1475.560513653682	13
5	678	1482.665219530275	12
5	679	1482.907985160785	11
5	680	1485.080421341081	10
5	681	1487.396899001683	9
5	682	1490.146059128449	8
5	683	1490.504024992377	7
5	684	1491.774891033962	6
5	685	1494.493224055183	5
5	686	1497.911150204897	4
5	687	1499.482229839277	3
5	688	1503.25580470915	2
5	690	1503.682433220789	2
5	691	1505.710611341764	2
5	693	1509.807077478072	2
5	695	1516.247836105645	3
5	696	1516.764164081796	3
5	697	1520.149841775556	2
5	698	1520.208444767686	1
5	700	1526.691078288846	1
5	702	1529.702660459206	2
5	703	1529.933618044661	2
5	704	1530.848133174805	1
5	706	1533.00213832439	1
5	708	1536.698471229552	2
5	710	1538.233997203426	3
5	712	1538.450109340932	4
5	713	1538.581913165531	4
5	714	1538.90342947606	3
5	715	1539.200124962431	2
5	716	1541.077520124357	1
5	717	1541.499928917937	0
5	719	1545.366357871776	0
5	721	1548.688710915277	1
5	722	1549.21856910769	1
5	724	1550.301661078617	1
5	725	1550.797197590529	1
5	726	1551.926249229265	0
5	728	1553.284838352992	0
5	729	1564.167048733656	0
5	733	1577.649986002257	0
5	735	1590.997449162356	0
5	740	1607.203150496704	0
5	741	1608.464483735272	0
5	743	1627.914224295672	0
5	744	1628.14370309217	0
5	746	1640.74915603755	0
5	750	1647.229645692553	0
5	752	1651.521775860583	0
5	756	1658.368897589383	0
5	758	1669.18562057105	0
5	759	1669.372939350516	0
5	761	1675.541657840223	0
5	762	1675.715304754205	0
5	766	1684.062114909978	0
5	768	1687.755964495308	0
5	770	1706.362005494458	0
5	772	1707.677750742697	1
5	773	1708.703987353032	1
5	774	1714.044143336459	0
5	776	1714.469484724958	0
5	777	1717.253141025897	0
5	779	1723.125223890593	0
5	780	1724.353625717501	0
5	784	1730.020613730931	0
5	788	1737.8779214193	1
5	790	1739.370997966171	2
5	794	1745.962011020429	3
5	797	1749.881837288104	4
5	799	1759.186862780174	5
5	803	1769.630302308937	6
5	807	1777.367280607055	7
5	809	1789.893805682962	7
5	810	1798.489844149007	6
5	812	1800.229555430394	6
5	814	1805.994070097871	7
5	815	1807.645468400194	7
5	816	1808.49725190074	6
5	818	1810.155858051508	6
5	819	1816.550893542502	6
5	820	1817.024646055938	5
5	821	1817.237477719962	4
5	822	1817.30132048165	3
5	823	1819.030624291294	2
5	825	1822.671011169435	2
5	826	1825.446093480192	2
5	827	1825.887079929269	1
5	828	1826.252304227296	0
5	832	1837.958017627977	0
5	834	1841.780250714441	1
5	836	1851.10930861365	2
5	839	1855.021546461255	3
5	840	1855.3043304946	3
5	841	1858.933833929423	2
5	847	1863.415816226968	2
5	850	1872.991978613176	2
5	851	1876.57447070657	1
5	852	1878.610496631456	0
5	854	1881.021825344395	0
5	855	1881.859866841307	0
5	857	1885.846746368614	0
5	858	1887.346353003236	0
5	860	1890.499301310651	0
5	862	1894.733450351068	1
5	863	1894.827859983567	1
5	864	1895.481703121506	0
5	866	1918.63216097021	0
5	867	1920.362721020905	0
5	871	1924.188297980871	0
5	873	1925.319099956091	1
5	878	1929.585836893588	2
5	880	1935.153532598922	2
5	881	1937.122358139035	1
5	882	1938.91107306219	0
5	887	1945.324858033802	0
5	888	1946.713104520698	0
5	892	1949.102956681035	0
5	894	1960.416829404331	0
5	896	1970.195359007643	0
5	897	1971.338489160193	0
5	899	1972.073306983018	0
5	900	1974.498806156189	0
5	902	1977.296437415521	0
5	903	1977.953174659813	0
5	905	1978.336379637879	0
5	906	1981.410575035127	0
5	918	2000.645998769736	0
5	920	2001.533130344054	1
5	925	2007.995026094809	2
5	927	2024.603376485236	3
5	929	2024.950558315583	4
5	932	2033.437719429817	5
5	934	2041.096654592675	5
5	935	2047.394296797131	4
5	936	2052.005926843866	3
5	937	2052.168157886663	2
5	938	2053.79039772677	1
5	942	2056.402524051625	0
5	944	2063.036863365565	0
5	945	2064.567582092185	0
5	949	2073.037539468562	0
5	954	2089.065178258856	0
5	956	2098.626161585843	0
5	957	2099.489358980219	0
5	959	2101.652191291521	0
5	960	2104.267905238419	0
5	964	2104.722519624341	0
5	966	2114.300281212789	1
5	968	2123.595870604585	2
5	971	2126.480391705255	3
5	975	2129.775614234151	3
5	977	2131.138008777177	3
5	978	2132.302184433267	3
5	979	2133.551566483985	2
5	980	2134.070646406518	1
5	981	2136.846842930037	0
5	983	2145.312916017673	0
5	984	2149.660453508261	0
5	986	2155.265748692222	0
5	987	2155.657630502098	0
5	991	2159.739164724532	0
5	993	2167.089448005214	0
5	997	2170.178034647438	0
5	999	2177.80415346	0
5	1004	2202.388911678322	0
5	1006	2203.205691311175	1
5	1008	2203.524555641011	2
5	1009	2203.938050825949	2
5	1010	2204.028464745637	1
5	1011	2206.799577042263	0
5	1013	2210.289759920931	0
5	1015	2212.79845897277	1
5	1016	2218.38631511756	1
5	1017	2219.405936030965	0
5	1019	2247.549440949729	0
5	1020	2248.452170882915	0
5	1031	2280.676308392161	0
5	1032	2281.660862103017	0
5	1034	2285.947942009678	0
5	1035	2288.415442724807	0
5	1037	2293.178156133197	0
5	1039	2298.063499787186	1
5	1040	2298.799601909191	1
5	1041	2299.452654509329	0
5	1046	2331.409750970106	0
5	1047	2332.837781414799	0
5	1049	2335.595798817299	0
5	1050	2336.868034097346	0
5	1052	2337.869263900486	0
5	1053	2340.305558426551	0
5	1055	2345.414111781883	0
5	1056	2346.711037919071	0
5	1058	2367.882882518354	0
5	1059	2368.094737126777	0
5	1061	2375.883843674064	0
5	1062	2376.174014186727	0
5	1064	2396.56508061736	0
5	1065	2397.79700444884	0
5	1067	2402.72537027751	0
5	1068	2405.697141114263	0
5	1075	2418.608898796319	0
5	1077	2420.928476131934	1
5	1085	2440.516677299247	2
5	1087	2448.232179053637	3
5	1089	2451.93073571039	3
5	1090	2455.181639093176	2
5	1091	2462.620494702789	1
5	1092	2463.763143045325	0
5	1094	2489.019590075643	0
5	1095	2489.096011024566	0
5	1099	2491.481527160442	0
6	152	352.288986268633	16.933239172997
6	153	352.598251202952	11.387808076347
6	156	364.814582328226	1.235527442427
6	161	376.152406704369	2.6091213086
6	162	376.187826783337	1.525912597791
6	165	379.761583012581	0.044625924126
6	168	390.733259292829	1.517249940592
6	171	397.662294503731	1.590870745443
6	174	401.544022792397	3.505260175949
6	177	421.370083163397	0.443370413965
6	182	427.106563712059	5.409128235907
6	183	427.537897006851	1.149307689062
6	196	498.351626137758	16.915182613786
6	197	498.555470643534	8.906700761173
6	198	502.365692129855	8.312101565182
6	204	511.603217824622	1.70348560628
6	218	540.199258474972	10.430353732475
6	219	540.80342800582	3.827953477007
6	222	548.512746271775	1.374188208548
6	225	560.312273730259	0.279653872719
6	228	562.991287954306	0.606204794572
6	231	573.803172745717	3.275783078114
6	237	611.198364302467	2.307877017188
6	246	656.918928801094	0.963158684808
6	249	657.541904578569	0.096361097408
6	255	671.480880923801	0.00251240124
6	261	682.273659587405	2.738331834603
6	264	701.693773037688	1.1521795365
6	274	712.42674925163	6.086394064379
6	277	714.287680660228	7.208259001312
6	278	715.047424171765	4.971883040921
6	279	715.195636448102	2.212301074426
6	282	719.955711002805	2.952688199178
6	292	732.298737098572	3.094927139175
6	293	733.893455730708	3.113384357048
6	294	739.511290285228	7.764707336154
6	299	751.848064610048	2.911231739664
6	304	754.864699091103	3.407552628489
6	305	755.686351165579	2.472359083845
6	306	758.240381256554	3.74381956782
6	357	838.091361955734	75.982747084844
6	358	841.05491128612	63.330378725548
6	359	841.951312913391	60.206598012738
6	360	844.533871115226	51.080424341512
6	361	844.829242061758	49.208624495586
6	362	846.770447877778	50.270634511169
6	363	848.998402340915	50.916511742228
6	364	850.615776728074	46.802727739996
6	365	856.662405378272	41.242585925018
6	366	866.313809624197	45.112209091256
6	374	875.082887356669	1.6322807525
6	377	878.369722007136	3.723627181929
6	378	879.114660239313	1.117234972694
6	381	882.466828069511	3.198843966743
6	409	921.85123581741	32.462591703267
6	410	922.168547952379	31.498074635744
6	415	928.792760489014	31.333906757585
6	416	929.606907099859	25.921993508622
6	417	929.611830794197	25.483605034885
6	420	929.999373137783	24.444125220333
6	431	950.63414330281	32.984981035779
6	432	951.277311257801	28.952561044563
6	435	954.609962395405	27.549665997146
6	438	960.334667322745	30.696213214321
6	439	963.264715470246	33.0056308674
6	442	965.794708656083	34.967150901768
6	445	969.296037422917	32.31261356602
6	448	974.945675586482	30.742222593178
6	454	983.880158576342	25.095335066016
6	459	988.988915697869	23.513756497701
6	460	992.183301448033	25.096651137649
6	461	992.432219042737	20.040112098689
6	462	992.802247036523	16.939121300374
6	463	994.302274164732	13.94116053367
6	466	1000.305859619061	13.938430486049
6	469	1002.016645729452	13.899449362514
6	470	1005.617330029448	9.456900271834
6	471	1015.973341418982	14.447896945126
6	482	1034.980675883431	3.731436636307
6	485	1041.486098797531	8.352795116176
6	486	1050.756226566161	14.552044461004
6	494	1070.052924879755	2.728708453881
6	507	1101.745527552045	29.761176877304
6	513	1107.07138052132	21.570000673371
6	514	1108.103023585436	21.349323885529
6	515	1111.537284423175	8.31515740717
6	516	1113.530221426532	8.906095856104
6	519	1122.51477575887	6.362050111414
6	524	1127.077114862804	0.642585500827
6	525	1127.789078735431	0.747285168921
6	536	1142.196368059612	6.765771790728
6	537	1142.825437649194	4.561954967007
6	547	1168.181922085636	11.955944489557
6	548	1171.160866529578	13.298319815443
6	549	1178.449490786967	16.262033711693
6	569	1222.969172065768	31.447623740473
6	570	1228.892563313217	35.269190463166
6	571	1230.79340778581	36.319039308383
6	572	1233.613892657166	38.965167812863
6	573	1235.312465234156	22.097393404358
6	576	1253.148347702688	0.443833219567
6	579	1262.004213382824	0.771792365484
6	582	1279.301720997788	1.407950675312
6	591	1299.528313574279	5.831220747909
6	603	1326.838451385998	0.75178174566
6	614	1351.103187654377	2.069709274223
6	620	1358.494841085527	5.525055497892
6	621	1358.751089332787	0.452239422995
6	624	1363.911765305135	2.284516974493
6	676	1474.181545973059	75.234304417236
6	677	1475.560513653682	74.034372851605
6	678	1482.665219530275	76.808381498486
6	679	1482.907985160785	77.023787681763
6	680	1485.080421341081	77.845394180865
6	681	1487.396899001683	75.870011614369
6	682	1490.146059128449	71.26911178568
6	683	1490.504024992377	65.832197802313
6	684	1491.774891033962	64.523172532599
6	685	1494.493224055183	65.238315471208
6	686	1497.911150204897	68.616331098801
6	687	1499.482229839277	63.098169625235
6	688	1503.25580470915	65.386703455384
6	691	1505.710611341764	64.517472664891
6	696	1516.764164081796	43.457150398633
6	697	1520.149841775556	16.467408554767
6	698	1520.208444767686	10.401367289614
6	703	1529.933618044661	13.685781939016
6	704	1530.848133174805	4.157054885959
6	713	1538.581913165531	8.879252706325
6	714	1538.90342947606	5.90129115167
6	715	1539.200124962431	2.501653732879
6	716	1541.077520124357	2.843522920931
6	717	1541.499928917937	3.049819577005
6	722	1549.21856910769	3.852211235914
6	725	1550.797197590529	2.108486675252
6	726	1551.926249229265	1.624588150648
6	729	1564.167048733656	10.882210380664
6	735	1590.997449162356	13.347463160099
6	741	1608.464483735272	1.261333238568
6	744	1628.14370309217	0.229478796498
6	750	1647.229645692553	6.46488997522
6	756	1658.368897589383	5.575868194076
6	759	1669.372939350516	0.187318779466
6	762	1675.715304754205	0.173646913982
6	768	1687.755964495308	3.69384958533
6	773	1708.703987353032	2.341981858574
6	774	1714.044143336459	6.366392593762
6	777	1717.253141025897	2.783656300939
6	780	1724.353625717501	1.228401826908
6	809	1789.893805682962	59.873191952031
6	810	1798.489844149007	60.611922729707
6	815	1807.645468400194	68.274470434023
6	816	1808.49725190074	62.535240880311
6	819	1816.550893542502	66.669056254398
6	820	1817.024646055938	57.837783275764
6	821	1817.237477719962	47.607175411025
6	822	1817.30132048165	39.934039874595
6	823	1819.030624291294	18.8010688609
6	826	1825.446093480192	19.452023382321
6	827	1825.887079929269	15.731221877761
6	828	1826.252304227296	3.581293057861
6	840	1855.3043304946	17.346312866623
6	841	1858.933833929423	17.153583214982
6	850	1872.991978613176	17.970432151921
6	851	1876.57447070657	15.315811111688
6	852	1878.610496631456	15.194680404488
6	855	1881.859866841307	0.838041496912
6	858	1887.346353003236	1.499606634622
6	863	1894.827859983567	4.328558672916
6	864	1895.481703121506	0.748252770438
6	867	1920.362721020905	1.730560050695
6	880	1935.153532598922	9.834432642831
6	881	1937.122358139035	10.947486901311
6	882	1938.91107306219	9.325236168602
6	888	1946.713104520698	1.388246486896
6	894	1960.416829404331	11.313872723296
6	897	1971.338489160193	1.14313015255
6	900	1974.498806156189	2.425499173171
6	903	1977.953174659813	0.656737244292
6	906	1981.410575035127	3.074195397248
6	934	2041.096654592675	40.450655822939
6	935	2047.394296797131	45.861166453077
6	936	2052.005926843866	44.010900749057
6	937	2052.168157886663	27.564781401427
6	938	2053.79039772677	28.839839411187
6	942	2056.402524051625	1.295283041244
6	945	2064.567582092185	1.53071872662
6	954	2089.065178258856	16.027638790294
6	957	2099.489358980219	0.863197394376
6	960	2104.267905238419	2.615713946898
6	975	2129.775614234151	15.475333021362
6	978	2132.302184433267	8.706313828682
6	979	2133.551566483985	7.07117477873
6	980	2134.070646406518	6.181227264237
6	981	2136.846842930037	5.70883415286
6	984	2149.660453508261	4.347537490588
6	987	2155.657630502098	0.391881809876
6	993	2167.089448005214	7.350283280682
6	999	2177.80415346	7.626118812562
6	1009	2203.938050825949	1.549139147627
6	1010	2204.028464745637	0.822773434462
6	1011	2206.799577042263	3.275021401252
6	1016	2218.38631511756	8.096555196629
6	1017	2219.405936030965	6.607477058195
6	1020	2248.452170882915	0.902729933186
6	1032	2281.660862103017	0.984553710856
6	1035	2288.415442724807	2.467500715129
6	1040	2298.799601909191	5.621445775994
6	1041	2299.452654509329	1.389154722143
6	1047	2332.837781414799	1.428030444693
6	1050	2336.868034097346	1.272235280047
6	1053	2340.305558426551	2.436294526065
6	1056	2346.711037919071	1.296926137188
6	1059	2368.094737126777	0.211854608423
6	1062	2376.174014186727	0.290170512663
6	1065	2397.79700444884	1.23192383148
6	1068	2405.697141114263	2.971770836753
6	1089	2451.93073571039	33.321836914071
6	1090	2455.181639093176	34.253162961242
6	1091	2462.620494702789	22.103817403542
6	1092	2463.763143045325	15.530963991688
6	1095	2489.096011024566	0.076420948923
7	155	363.579054885799	1
7	158	373.543285395769	1
7	160	374.661914185546	2
7	164	379.716957088455	1
7	167	389.216009352237	1
7	170	396.071423758288	1
7	173	398.038762616448	1
7	176	420.926712749432	1
7	179	421.697435476152	1
7	181	426.388589317789	2
7	190	481.436443523972	1
7	192	489.648769882361	2
7	194	494.053590564673	3
7	203	509.899732218342	1
7	211	528.19275615016	1
7	216	536.975474528813	2
7	221	547.138558063227	1
7	224	560.03261985754	1
7	227	562.385083159734	1
7	230	570.527389667603	1
7	236	608.890487285279	1
7	245	655.955770116286	1
7	248	657.445543481161	1
7	254	671.478368522561	1
7	260	679.535327752802	1
7	263	700.541593501188	1
7	266	703.644066229174	1
7	268	706.340355187251	2
7	272	710.075541130844	3
7	276	712.983335373676	3
7	281	717.003022803627	1
7	286	729.203809959397	1
7	289	730.78007137366	2
7	291	731.746582949074	3
7	296	748.936832870384	1
7	298	751.457146462614	2
7	301	753.213992081734	2
7	303	754.496561688734	3
7	308	761.394955609275	1
7	320	777.724532560572	2
7	327	781.744714900653	3
7	335	793.453446773714	4
7	337	795.620617566172	5
7	339	796.499813366609	6
7	341	798.081890598687	7
7	347	803.813048988078	8
7	350	815.419819453254	9
7	352	821.201600532941	10
7	371	873.450606604169	1
7	373	874.646094825207	2
7	376	877.997425266619	2
7	380	879.267984102768	1
7	383	887.619515064544	1
7	385	889.388644114143	2
7	387	890.670473316635	3
7	391	903.684913591237	4
7	393	904.128225759312	5
7	398	905.55524791745	6
7	400	907.273242547263	7
7	405	911.974950438951	8
7	407	917.649162267031	9
7	412	922.324750213238	8
7	414	927.060296398259	9
7	419	929.638454108424	7
7	422	930.259084602846	7
7	430	944.203452993304	8
7	434	954.007412223763	7
7	437	958.784823510326	7
7	441	965.475159200168	6
7	444	967.086650310384	6
7	447	972.392106944048	6
7	453	980.361113631062	6
7	456	986.367429133012	6
7	458	988.117196366938	7
7	465	996.160429757614	3
7	468	1001.525444473856	3
7	476	1028.831373523952	1
7	481	1033.133303681355	2
7	484	1036.204182105157	2
7	490	1067.324216425874	1
7	492	1067.502591081906	2
7	498	1073.514423400888	2
7	500	1085.501379847949	3
7	502	1086.753699699907	4
7	509	1103.222127016005	4
7	518	1116.152725647456	1
7	521	1126.434529361977	1
7	523	1127.04179356651	2
7	529	1134.539054974881	1
7	535	1138.263482682187	2
7	539	1156.12305913709	1
7	543	1157.862546714135	2
7	545	1162.187457075274	3
7	555	1191.521548325295	1
7	557	1193.623372850051	2
7	559	1194.474368477427	3
7	561	1194.648724844303	4
7	565	1213.215071829798	5
7	575	1252.704514483121	1
7	578	1261.23242101734	1
7	581	1277.893770322476	1
7	588	1293.69709282637	1
7	602	1326.086669640338	1
7	610	1349.033478380154	1
7	612	1349.161606233685	2
7	619	1358.298849909792	2
7	623	1361.627248330642	1
7	630	1398.947241555823	1
7	632	1401.526140802077	2
7	634	1405.856838031789	3
7	636	1405.884197479022	4
7	638	1407.235027160216	5
7	641	1411.526887387314	6
7	643	1418.876947342769	7
7	647	1424.671827190064	8
7	649	1427.251718501363	9
7	651	1429.254908583975	10
7	653	1429.294819106096	11
7	660	1436.384060214042	12
7	662	1437.869101253766	13
7	666	1441.193138676873	14
7	675	1473.307013683163	15
7	690	1503.682433220789	3
7	693	1509.807077478072	3
7	695	1516.247836105645	4
7	700	1526.691078288846	2
7	702	1529.702660459206	3
7	706	1533.00213832439	2
7	708	1536.698471229552	3
7	710	1538.233997203426	4
7	712	1538.450109340932	5
7	719	1545.366357871776	1
7	721	1548.688710915277	2
7	724	1550.301661078617	2
7	728	1553.284838352992	1
7	733	1577.649986002257	1
7	740	1607.203150496704	1
7	743	1627.914224295672	1
7	746	1640.74915603755	1
7	752	1651.521775860583	1
7	758	1669.18562057105	1
7	761	1675.541657840223	1
7	766	1684.062114909978	1
7	770	1706.362005494458	1
7	772	1707.677750742697	2
7	776	1714.469484724958	1
7	779	1723.125223890593	1
7	784	1730.020613730931	1
7	788	1737.8779214193	2
7	790	1739.370997966171	3
7	794	1745.962011020429	4
7	797	1749.881837288104	5
7	799	1759.186862780174	6
7	803	1769.630302308937	7
7	807	1777.367280607055	8
7	812	1800.229555430394	7
7	814	1805.994070097871	8
7	818	1810.155858051508	7
7	825	1822.671011169435	3
7	832	1837.958017627977	1
7	834	1841.780250714441	2
7	836	1851.10930861365	3
7	839	1855.021546461255	4
7	847	1863.415816226968	3
7	854	1881.021825344395	1
7	857	1885.846746368614	1
7	860	1890.499301310651	1
7	862	1894.733450351068	2
7	866	1918.63216097021	1
7	871	1924.188297980871	1
7	873	1925.319099956091	2
7	878	1929.585836893588	3
7	887	1945.324858033802	1
7	892	1949.102956681035	1
7	896	1970.195359007643	1
7	899	1972.073306983018	1
7	902	1977.296437415521	1
7	905	1978.336379637879	1
7	918	2000.645998769736	1
7	920	2001.533130344054	2
7	925	2007.995026094809	3
7	927	2024.603376485236	4
7	929	2024.950558315583	5
7	932	2033.437719429817	6
7	944	2063.036863365565	1
7	949	2073.037539468562	1
7	956	2098.626161585843	1
7	959	2101.652191291521	1
7	964	2104.722519624341	1
7	966	2114.300281212789	2
7	968	2123.595870604585	3
7	971	2126.480391705255	4
7	977	2131.138008777177	4
7	983	2145.312916017673	1
7	986	2155.265748692222	1
7	991	2159.739164724532	1
7	997	2170.178034647438	1
7	1004	2202.388911678322	1
7	1006	2203.205691311175	2
7	1008	2203.524555641011	3
7	1013	2210.289759920931	1
7	1015	2212.79845897277	2
7	1019	2247.549440949729	1
7	1031	2280.676308392161	1
7	1034	2285.947942009678	1
7	1037	2293.178156133197	1
7	1039	2298.063499787186	2
7	1046	2331.409750970106	1
7	1049	2335.595798817299	1
7	1052	2337.869263900486	1
7	1055	2345.414111781883	1
7	1058	2367.882882518354	1
7	1061	2375.883843674064	1
7	1064	2396.56508061736	1
7	1067	2402.72537027751	1
7	1075	2418.608898796319	1
7	1077	2420.928476131934	2
7	1085	2440.516677299247	3
7	1087	2448.232179053637	4
7	1094	2489.019590075643	1
7	1099	2491.481527160442	1
8	185	437.655607876823	1
8	188	476.417763818169	1
8	200	505.157294903869	1
8	206	518.497244516544	1
8	208	524.0058841167	2
8	214	529.768904742497	1
8	233	580.600471402607	1
8	239	617.556769837513	1
8	242	627.787029116695	1
8	251	659.958738792625	1
8	257	677.472481062608	1
8	270	707.079421658916	1
8	284	727.849037380949	1
8	310	762.10861487089	1
8	312	766.064582611732	2
8	315	767.243145531648	2
8	318	772.710391185803	2
8	323	780.04016885003	2
8	325	781.156737009427	3
8	329	785.089428818756	4
8	333	791.300089263771	3
8	344	801.447574365974	3
8	354	828.207746898685	2
8	368	872.233908686601	1
8	389	897.458853731429	1
8	395	904.239175991417	2
8	402	908.062744141541	2
8	424	930.827557754315	1
8	427	936.983423856897	1
8	450	975.863125736149	1
8	473	1024.781438977254	1
8	478	1031.249239247124	1
8	488	1057.375757117136	1
8	496	1071.984350674741	1
8	504	1087.347407495617	2
8	511	1104.624125570428	1
8	527	1131.913251019904	1
8	532	1135.430596268884	1
8	541	1156.225977596079	1
8	551	1183.033137147023	1
8	553	1184.399680763421	2
8	563	1202.823700682684	3
8	584	1290.756257528264	1
8	586	1291.773124459133	2
8	593	1303.250290103507	1
8	596	1311.742924506421	1
8	598	1318.834994364708	2
8	605	1341.051374691128	1
8	608	1348.418308572707	1
8	616	1352.969785587635	1
8	626	1392.271716502791	1
8	628	1395.251755794326	2
8	645	1420.79883808038	2
8	655	1432.314240596926	3
8	657	1432.462336685495	4
8	664	1439.522554827319	4
8	669	1453.866869318157	4
8	731	1572.04492876378	1
8	737	1595.075952196652	1
8	748	1640.764755717333	1
8	754	1652.793029395307	1
8	764	1681.66743090527	1
8	782	1726.483585756461	1
8	786	1731.217903927377	2
8	792	1745.062392548567	3
8	801	1761.688329774283	3
8	830	1834.890265730179	1
8	843	1861.258659594882	1
8	845	1862.537144774147	2
8	869	1921.970189220149	1
8	876	1926.174871237724	1
8	884	1939.677308397534	1
8	890	1947.375216089019	1
8	908	1982.883816033365	1
8	910	1983.984816311616	2
8	913	1991.286837472051	2
8	916	1996.754152655681	2
8	922	2002.466128489888	3
8	940	2055.107241010381	1
8	947	2068.075372850136	1
8	951	2075.632832202764	2
8	962	2104.666754849128	1
8	973	2127.889419142281	1
8	989	2158.870692950259	1
8	995	2167.354006824154	1
8	1001	2188.12599603428	1
8	1022	2251.243384943465	1
8	1025	2258.364926004097	1
8	1028	2269.872364346719	1
8	1043	2307.555450401146	1
8	1070	2408.063543574337	1
8	1072	2409.514620667025	2
8	1079	2424.407726500811	2
8	1082	2432.363775165864	2
8	1097	2490.842751616098	1
9	185	437.655607876823	0
9	188	476.417763818169	0
9	200	505.157294903869	0
9	206	518.497244516544	0
9	209	526.175813495165	2.169929378465
9	214	529.768904742497	0
9	233	580.600471402607	0
9	239	617.556769837513	0
9	242	627.787029116695	0
9	251	659.958738792625	0
9	257	677.472481062608	0
9	270	707.079421658916	0
9	284	727.849037380949	0
9	310	762.10861487089	0
9	313	766.22000608148	0.155423469748
9	316	768.139535024314	0.896389492666
9	321	779.620416131768	6.910024945965
9	330	786.909303632906	6.869134782876
9	331	789.391288788161	8.234551778734
9	342	800.122184811501	15.032755992745
9	345	802.60810404631	11.308014782539
9	348	805.614292331372	4.166717965398
9	355	835.477603410709	7.269856512024
9	368	872.233908686601	0
9	389	897.458853731429	0
9	396	905.016818303343	0.777642311926
9	403	909.363745616342	1.301001474801
9	424	930.827557754315	0
9	427	936.983423856897	0
9	450	975.863125736149	0
9	473	1024.781438977254	0
9	478	1031.249239247124	0
9	488	1057.375757117136	0
9	496	1071.984350674741	0
9	505	1094.606877174026	7.259469678409
9	511	1104.624125570428	0
9	527	1131.913251019904	0
9	532	1135.430596268884	0
9	541	1156.225977596079	0
9	551	1183.033137147023	0
9	566	1216.895293347051	32.49561258363
9	567	1218.685269354933	15.861568672249
9	584	1290.756257528264	0
9	589	1296.053783395559	4.280658936426
9	593	1303.250290103507	0
9	596	1311.742924506421	0
9	599	1320.231383765303	1.396389400595
9	605	1341.051374691128	0
9	608	1348.418308572707	0
9	616	1352.969785587635	0
9	626	1392.271716502791	0
9	639	1408.312689241801	13.060933447475
9	658	1432.685844199346	11.887006118966
9	667	1450.362806063163	18.048565466237
9	670	1461.475695492302	29.013358806807
9	671	1468.14252173084	28.619966903521
9	672	1470.20183392782	16.334964609663
9	731	1572.04492876378	0
9	737	1595.075952196652	0
9	748	1640.764755717333	0
9	754	1652.793029395307	0
9	764	1681.66743090527	0
9	782	1726.483585756461	0
9	795	1747.395699539045	16.177795611668
9	804	1770.907869377984	25.845476829417
9	805	1773.471803819618	11.783474045335
9	830	1834.890265730179	0
9	843	1861.258659594882	0
9	848	1866.218093933911	3.680949159764
9	869	1921.970189220149	0
9	876	1926.174871237724	0
9	884	1939.677308397534	0
9	890	1947.375216089019	0
9	908	1982.883816033365	0
9	911	1984.316555011557	0.331738699941
9	914	1994.715560770619	3.428723298568
9	923	2003.087914104889	6.333761449208
9	930	2030.467832011155	28.001703521267
9	940	2055.107241010381	0
9	947	2068.075372850136	0
9	952	2079.282435444185	3.649603241421
9	962	2104.666754849128	0
9	973	2127.889419142281	0
9	989	2158.870692950259	0
9	995	2167.354006824154	0
9	1001	2188.12599603428	0
9	1022	2251.243384943465	0
9	1025	2258.364926004097	0
9	1028	2269.872364346719	0
9	1043	2307.555450401146	0
9	1070	2408.063543574337	0
9	1073	2413.649496092809	4.134875425784
9	1080	2431.411012629257	7.003286128446
9	1083	2435.944396167561	3.580621001697
9	1097	2490.842751616098	0
10	214	529.768904742497	7
10	270	707.079421658916	8
10	310	762.10861487089	9
10	389	897.458853731429	10
10	424	930.827557754315	11
10	427	936.983423856897	12
10	450	975.863125736149	13
10	478	1031.249239247124	14
10	496	1071.984350674741	15
10	511	1104.624125570428	16
10	532	1135.430596268884	17
10	541	1156.225977596079	18
10	616	1352.969785587635	19
10	748	1640.764755717333	20
10	754	1652.793029395307	21
10	843	1861.258659594882	22
10	876	1926.174871237724	23
10	940	2055.107241010381	24
10	973	2127.889419142281	25
11	1100	2500	0.1024
12	1100	2500	0.0436

