file 65604 1678560111                                           
version 2
run experiments_hard_game_mode1-707-20230311-19:41:51-8240
attr configname experiments_hard_game_mode1
attr datetime 20230311-19:41:51
attr experiment experiments_hard_game_mode1
attr inifile omnetpp.ini
attr iterationvars "$0=8.5, $1=4, $2=100"
attr iterationvarsf 8.5,4,100-
attr measurement "$0=8.5, $1=4, $2=100"
attr network Network
attr processid 8240
attr repetition 17
attr replication #17
attr resultdir results
attr runnumber 707
attr seedset 17
param *.boss.arrival_mean 20
param *.boss.service_mean 8.5
param *.minion.arrival_mean 10
param *.minion.service_mean 4
param *.player.recover_rate_x 100
param **.minion.arrival_distribution 0
param **.minion.service_distribution 0
param **.boss.arrival_distribution 0
param **.boss.service_distribution 0

vector 0 Network.player boss_jobs_number_stat:vector ETV
attr source signal_boss_jobs_number
vector 1 Network.player boss_jobs_queue_number_stat:vector ETV
attr source signal_boss_jobs_queue_number
vector 2 Network.player minion_jobs_number_stat:vector ETV
attr source signal_minion_jobs_number
vector 3 Network.player minion_jobs_queue_number_stat:vector ETV
attr source signal_minion_jobs_queue_number
vector 4 Network.player boss_defeated_stat:vector ETV
attr source signal_boss_defeated
vector 5 Network.player boss_response_time_stat:vector ETV
attr source signal_boss_response_time
vector 6 Network.player boss_waiting_time_stat:vector ETV
attr source signal_boss_waiting_time
vector 7 Network.player minion_waiting_time_stat:vector ETV
attr source signal_minion_waiting_time
vector 8 Network.player minion_defeated_stat:vector ETV
attr source signal_minion_defeated
vector 9 Network.player minion_response_time_stat:vector ETV
attr source signal_minion_response_time
vector 10 Network.player minion_recovered_stat:vector ETV
attr source signal_minion_recovered
vector 11 Network.player minion_throughput:vector ETV
attr source signal_minion_throughput
vector 12 Network.player boss_throughput:vector ETV
attr source signal_boss_throughput
0	2019 3034 151 1157 350.171511211393 2489.726720628059 118 1 6 234 668
1	5053 6164 151 1158 350.171511211393 2493.826867039007 240 0 5 238 650
2	11217 5683 155 1155 361.587814466951 2488.977018924844 219 1 21 1309 12597
3	16900 11225 155 1159 361.587814466951 2499.636440549271 433 0 20 2140 20066
4	28125 3291 156 1158 364.10005014063 2493.826867039007 122 17 138 9455 884073
5	31416 4772 156 1158 364.10005014063 2493.826867039007 122 0.117913366225 59.992199468678 1945.7562277267 54256.382297692
6	36188 3918 156 1157 364.10005014063 2489.726720628059 121 0 57.890082818549 943.87716745138 24443.915434829
7	40106 9894 220 1159 481.551949873461 2499.636440549271 260 0 206.43001593875 11005.371557397 1065410.0193258
8	50000 5874 221 1159 486.956018262437 2499.636440549271 214 28 241 28783 4687991
9	55874 8440 221 1159 486.956018262437 2499.636440549271 214 0.128463669459 208.02294663157 9405.4545814085 850410.83450649
10	64314 1249 223 1157 487.076176212721 2489.726720628059 45 5 49 1215 40395
11	65563 20 1160 1160 2500 2500 1 0.0964 0.0964 0.0964 0.00929296
12	65583 20 1160 1160 2500 2500 1 0.0552 0.0552 0.0552 0.00304704

