file 59515 1678560179                                           
version 2
run experiments_hard_game_mode1-1024-20230311-19:42:59-9972
attr configname experiments_hard_game_mode1
attr datetime 20230311-19:42:59
attr experiment experiments_hard_game_mode1
attr inifile omnetpp.ini
attr iterationvars "$0=9, $1=5, $2=0"
attr iterationvarsf 9,5,0-
attr measurement "$0=9, $1=5, $2=0"
attr network Network
attr processid 9972
attr repetition 4
attr replication #4
attr resultdir results
attr runnumber 1024
attr seedset 4
param *.boss.arrival_mean 20
param *.boss.service_mean 9
param *.minion.arrival_mean 10
param *.minion.service_mean 5
param *.player.recover_rate_x 0
param **.minion.arrival_distribution 0
param **.minion.service_distribution 0
param **.boss.arrival_distribution 0
param **.boss.service_distribution 0

vector 0 Network.player minion_jobs_number_stat:vector ETV
attr source signal_minion_jobs_number
vector 1 Network.player minion_jobs_queue_number_stat:vector ETV
attr source signal_minion_jobs_queue_number
vector 2 Network.player boss_defeated_stat:vector ETV
attr source signal_boss_defeated
vector 3 Network.player boss_jobs_queue_number_stat:vector ETV
attr source signal_boss_jobs_queue_number
vector 4 Network.player boss_response_time_stat:vector ETV
attr source signal_boss_response_time
vector 5 Network.player minion_waiting_time_stat:vector ETV
attr source signal_minion_waiting_time
vector 6 Network.player boss_jobs_number_stat:vector ETV
attr source signal_boss_jobs_number
vector 7 Network.player minion_recovered_stat:vector ETV
attr source signal_minion_recovered
vector 8 Network.player boss_waiting_time_stat:vector ETV
attr source signal_boss_waiting_time
vector 9 Network.player minion_defeated_stat:vector ETV
attr source signal_minion_defeated
vector 10 Network.player minion_response_time_stat:vector ETV
attr source signal_minion_response_time
vector 11 Network.player minion_throughput:vector ETV
attr source signal_minion_throughput
vector 12 Network.player boss_throughput:vector ETV
attr source signal_boss_throughput
0	2002 5296 191 1102 352.978059280825 2495.254658704516 204 1 23 1408 15938
1	7298 10199 191 1103 352.978059280825 2496.552998149771 394 0 22 2289 25413
2	17497 2849 196 1095 354.528493170118 2484.01648207355 106 15 120 7155 582205
3	20346 5442 196 1105 354.528493170118 2497.177872175454 212 0 5 136 360
4	25788 4139 196 1095 354.528493170118 2484.01648207355 106 0.073634703891 71.211855545903 1609.0911335416 46174.326504437
5	29927 9288 196 1103 354.528493170118 2496.552998149771 244 0 153.29920068165 10726.107611051 876424.04191057
6	39215 2720 198 1105 356.5813254123 2497.177872175454 106 1 6 174 422
7	41935 1438 198 1105 356.5813254123 2497.177872175454 54 11 64 2025 89055
8	43373 3229 198 1105 356.5813254123 2497.177872175454 106 0 57.94039785944 628.32770286839 18902.843420822
9	46602 5203 200 1103 357.231690027328 2496.552998149771 190 48 237 27075 4429755
10	51805 7670 200 1103 357.231690027328 2496.552998149771 190 0.080296469063 159.7549370669 9074.4017372542 745245.27538959
11	59475 20 1106 1106 2500 2500 1 0.0948 0.0948 0.0948 0.00898704
12	59495 19 1106 1106 2500 2500 1 0.048 0.048 0.048 0.002304

