version 2
run experiments_hard_game_mode1-891-20230311-19:42:30-9304
attr configname experiments_hard_game_mode1
attr datetime 20230311-19:42:30
attr experiment experiments_hard_game_mode1
attr inifile omnetpp.ini
attr iterationvars "$0=8.5, $1=7, $2=100"
attr iterationvarsf 8.5,7,100-
attr measurement "$0=8.5, $1=7, $2=100"
attr network Network
attr processid 9304
attr repetition 21
attr replication #21
attr resultdir results
attr runnumber 891
attr seedset 21
param *.boss.arrival_mean 20
param *.boss.service_mean 8.5
param *.minion.arrival_mean 10
param *.minion.service_mean 7
param *.player.recover_rate_x 100
param **.minion.arrival_distribution 0
param **.minion.service_distribution 0
param **.boss.arrival_distribution 0
param **.boss.service_distribution 0

vector 0 Network.player boss_defeated_stat:vector ETV
attr source signal_boss_defeated
vector 1 Network.player boss_jobs_queue_number_stat:vector ETV
attr source signal_boss_jobs_queue_number
vector 2 Network.player boss_response_time_stat:vector ETV
attr source signal_boss_response_time
vector 3 Network.player minion_waiting_time_stat:vector ETV
attr source signal_minion_waiting_time
vector 4 Network.player minion_defeated_stat:vector ETV
attr source signal_minion_defeated
vector 5 Network.player minion_jobs_queue_number_stat:vector ETV
attr source signal_minion_jobs_queue_number
vector 6 Network.player minion_response_time_stat:vector ETV
attr source signal_minion_response_time
vector 7 Network.player minion_jobs_number_stat:vector ETV
attr source signal_minion_jobs_number
vector 8 Network.player boss_jobs_number_stat:vector ETV
attr source signal_boss_jobs_number
vector 9 Network.player minion_recovered_stat:vector ETV
attr source signal_minion_recovered
vector 10 Network.player boss_waiting_time_stat:vector ETV
attr source signal_boss_waiting_time
vector 11 Network.player minion_throughput:vector ETV
attr source signal_minion_throughput
vector 12 Network.player boss_throughput:vector ETV
attr source signal_boss_throughput
0	136	352.004986605385	15
0	171	448.838787117998	16
0	185	498.512873964631	17
0	193	510.118193268633	18
0	199	526.655724056329	19
0	202	529.412356379047	20
0	207	539.112049780877	21
0	228	582.502377605875	22
0	240	621.010474838874	23
0	243	633.881574804543	24
0	252	661.675800466577	25
0	258	678.837395791449	26
0	273	710.905617309135	27
0	286	730.198991887559	28
0	309	766.476968032142	29
0	312	768.516467533904	30
0	319	780.714903710573	31
0	326	788.459346680532	32
0	327	791.09645590799	33
0	340	802.498032932788	34
0	343	805.139322119772	35
0	344	808.33339717265	36
0	351	840.063165194446	37
0	352	842.161533879949	38
0	361	872.780215534753	39
0	389	905.489191089088	40
0	396	910.107801359149	41
0	401	919.555114439606	42
0	412	934.50557216991	43
0	416	939.298120612361	44
0	434	976.659960950725	45
0	455	1028.472455898693	46
0	461	1033.117933239266	47
0	474	1070.694731436917	48
0	485	1096.020785080231	49
0	486	1097.392797881211	50
0	491	1104.714409529457	51
0	504	1134.983843234056	52
0	507	1137.180958501051	53
0	519	1168.6695842219	54
0	537	1219.011678109553	55
0	538	1220.913527617928	56
0	539	1224.448646382497	57
0	556	1296.384878762265	58
0	557	1299.745188493323	59
0	560	1308.33472290226	60
0	565	1320.761912468983	61
0	566	1320.883132772745	62
0	571	1341.240607460036	63
0	578	1350.6635923511	64
0	582	1354.78233583701	65
0	606	1409.315250037989	66
0	625	1435.211727180381	67
0	636	1453.993499160686	68
0	637	1465.800944179146	69
0	638	1472.884447057592	70
0	641	1475.072466266883	71
0	642	1476.619499003505	72
0	687	1580.679349847678	73
0	694	1599.78774671452	74
0	709	1641.040746799152	75
0	715	1657.009526633566	76
0	728	1686.184167646453	77
0	758	1748.702706650456	78
0	767	1773.684387104329	79
0	768	1776.408567448565	80
0	771	1788.587519568396	81
0	793	1854.728042083379	82
0	802	1866.528058580101	83
0	803	1870.986979779889	84
0	828	1925.742120287312	85
0	833	1932.629566207813	86
0	837	1942.373225895596	87
0	845	1957.949705936149	88
0	862	1984.406101197694	89
0	865	1995.455044816697	90
0	874	2004.350670234359	91
0	883	2033.441833009767	92
0	884	2043.67421537576	93
0	892	2055.511434959271	94
0	902	2079.982876856313	95
0	903	2083.494612548294	96
0	921	2127.755946989651	97
0	924	2128.880074471994	98
0	937	2167.055539926512	99
0	942	2173.910012997973	100
0	948	2198.318869405148	101
0	971	2251.804337587894	102
0	976	2260.33798140504	103
0	981	2274.724858972831	104
0	996	2307.670428566235	105
0	1032	2413.998618125214	106
0	1041	2432.87022944519	107
0	1042	2437.686949454638	108
0	1047	2453.65447470372	109
1	136	352.004986605385	0
1	170	437.655607876823	0
1	171	448.838787117998	0
1	178	476.417763818169	0
1	185	498.512873964631	0
1	190	505.157294903869	0
1	193	510.118193268633	0
1	196	518.497244516544	0
1	198	524.0058841167	1
1	199	526.655724056329	1
1	202	529.412356379047	0
1	204	529.768904742497	0
1	207	539.112049780877	0
1	227	580.600471402607	0
1	228	582.502377605875	0
1	239	617.556769837513	0
1	240	621.010474838874	0
1	242	627.787029116695	0
1	243	633.881574804543	0
1	251	659.958738792625	0
1	252	661.675800466577	0
1	257	677.472481062608	0
1	258	678.837395791449	0
1	270	707.079421658916	0
1	273	710.905617309135	0
1	283	727.849037380949	0
1	286	730.198991887559	0
1	306	762.10861487089	0
1	308	766.064582611732	1
1	309	766.476968032142	1
1	311	767.243145531648	1
1	312	768.516467533904	1
1	314	772.710391185803	1
1	318	780.04016885003	2
1	319	780.714903710573	2
1	321	781.156737009427	2
1	325	785.089428818756	3
1	326	788.459346680532	3
1	327	791.09645590799	2
1	329	791.300089263771	2
1	339	801.447574365974	3
1	340	802.498032932788	3
1	343	805.139322119772	2
1	344	808.33339717265	1
1	350	828.207746898685	1
1	351	840.063165194446	1
1	352	842.161533879949	0
1	360	872.233908686601	0
1	361	872.780215534753	0
1	382	897.458853731429	0
1	388	904.239175991417	1
1	389	905.489191089088	1
1	395	908.062744141541	1
1	396	910.107801359149	1
1	401	919.555114439606	0
1	411	930.827557754315	0
1	412	934.50557216991	0
1	415	936.983423856897	0
1	416	939.298120612361	0
1	433	975.863125736149	0
1	434	976.659960950725	0
1	454	1024.781438977254	0
1	455	1028.472455898693	0
1	460	1031.249239247124	0
1	461	1033.117933239266	0
1	469	1057.375757117136	0
1	474	1070.694731436917	0
1	476	1071.984350674741	0
1	484	1087.347407495617	1
1	485	1096.020785080231	1
1	486	1097.392797881211	0
1	490	1104.624125570428	0
1	491	1104.714409529457	0
1	501	1131.913251019904	0
1	504	1134.983843234056	0
1	506	1135.430596268884	0
1	507	1137.180958501051	0
1	514	1156.225977596079	0
1	519	1168.6695842219	0
1	522	1183.033137147023	0
1	524	1184.399680763421	1
1	534	1202.823700682684	2
1	537	1219.011678109553	2
1	538	1220.913527617928	1
1	539	1224.448646382497	0
1	551	1290.756257528264	0
1	553	1291.773124459133	1
1	556	1296.384878762265	1
1	557	1299.745188493323	0
1	559	1303.250290103507	0
1	560	1308.33472290226	0
1	562	1311.742924506421	0
1	564	1318.834994364708	1
1	565	1320.761912468983	1
1	566	1320.883132772745	0
1	570	1341.051374691128	0
1	571	1341.240607460036	0
1	573	1348.418308572707	0
1	578	1350.6635923511	0
1	581	1352.969785587635	0
1	582	1354.78233583701	0
1	593	1392.271716502791	0
1	595	1395.251755794326	1
1	606	1409.315250037989	1
1	612	1420.79883808038	1
1	622	1432.314240596926	2
1	624	1432.462336685495	3
1	625	1435.211727180381	3
1	631	1439.522554827319	3
1	635	1453.866869318157	4
1	636	1453.993499160686	4
1	637	1465.800944179146	3
1	638	1472.884447057592	2
1	641	1475.072466266883	1
1	642	1476.619499003505	0
1	684	1572.04492876378	0
1	687	1580.679349847678	0
1	693	1595.075952196652	0
1	694	1599.78774671452	0
1	708	1640.764755717333	0
1	709	1641.040746799152	0
1	714	1652.793029395307	0
1	715	1657.009526633566	0
1	725	1681.66743090527	0
1	728	1686.184167646453	0
1	745	1726.483585756461	0
1	749	1731.217903927377	1
1	755	1745.062392548567	2
1	758	1748.702706650456	2
1	764	1761.688329774283	2
1	767	1773.684387104329	2
1	768	1776.408567448565	1
1	771	1788.587519568396	0
1	786	1834.890265730179	0
1	793	1854.728042083379	0
1	797	1861.258659594882	0
1	799	1862.537144774147	1
1	802	1866.528058580101	1
1	803	1870.986979779889	0
1	823	1921.970189220149	0
1	828	1925.742120287312	0
1	830	1926.174871237724	0
1	833	1932.629566207813	0
1	836	1939.677308397534	0
1	837	1942.373225895596	0
1	842	1947.375216089019	0
1	845	1957.949705936149	0
1	859	1982.883816033365	0
1	861	1983.984816311616	1
1	862	1984.406101197694	1
1	864	1991.286837472051	1
1	865	1995.455044816697	1
1	867	1996.754152655681	1
1	873	2002.466128489888	2
1	874	2004.350670234359	2
1	883	2033.441833009767	1
1	884	2043.67421537576	0
1	891	2055.107241010381	0
1	892	2055.511434959271	0
1	897	2068.075372850136	0
1	901	2075.632832202764	1
1	902	2079.982876856313	1
1	903	2083.494612548294	0
1	912	2104.666754849128	0
1	921	2127.755946989651	0
1	923	2127.889419142281	0
1	924	2128.880074471994	0
1	934	2158.870692950259	0
1	937	2167.055539926512	0
1	939	2167.354006824154	0
1	942	2173.910012997973	0
1	947	2188.12599603428	0
1	948	2198.318869405148	0
1	970	2251.243384943465	0
1	971	2251.804337587894	0
1	975	2258.364926004097	0
1	976	2260.33798140504	0
1	980	2269.872364346719	0
1	981	2274.724858972831	0
1	995	2307.555450401146	0
1	996	2307.670428566235	0
1	1029	2408.063543574337	0
1	1031	2409.514620667025	1
1	1032	2413.998618125214	1
1	1038	2424.407726500811	1
1	1040	2432.363775165864	2
1	1041	2432.87022944519	2
1	1042	2437.686949454638	1
1	1047	2453.65447470372	0
1	1056	2490.842751616098	0
2	136	352.004986605385	10.79454347878
2	171	448.838787117998	11.183179241175
2	185	498.512873964631	22.095110146462
2	193	510.118193268633	4.960898364764
2	199	526.655724056329	8.158479539785
2	202	529.412356379047	5.406472262347
2	207	539.112049780877	9.34314503838
2	228	582.502377605875	1.901906203268
2	240	621.010474838874	3.453705001361
2	243	633.881574804543	6.094545687848
2	252	661.675800466577	1.717061673952
2	258	678.837395791449	1.364914728841
2	273	710.905617309135	3.826195650219
2	286	730.198991887559	2.34995450661
2	309	766.476968032142	4.368353161252
2	312	768.516467533904	2.451884922172
2	319	780.714903710573	13.471758178925
2	326	788.459346680532	15.748955494729
2	327	791.09645590799	11.05628705796
2	340	802.498032932788	21.341295923361
2	343	805.139322119772	20.049893301016
2	344	808.33339717265	17.033307908879
2	351	840.063165194446	38.615590828472
2	352	842.161533879949	13.953786981264
2	361	872.780215534753	0.546306848152
2	389	905.489191089088	8.030337357659
2	396	910.107801359149	5.868625367732
2	401	919.555114439606	11.492370298065
2	412	934.50557216991	3.678014415595
2	416	939.298120612361	2.314696755464
2	434	976.659960950725	0.796835214576
2	455	1028.472455898693	3.691016921439
2	461	1033.117933239266	1.868693992142
2	474	1070.694731436917	13.318974319781
2	485	1096.020785080231	24.03643440549
2	486	1097.392797881211	10.045390385594
2	491	1104.714409529457	0.090283959029
2	504	1134.983843234056	3.070592214152
2	507	1137.180958501051	1.750362232167
2	519	1168.6695842219	12.443606625821
2	537	1219.011678109553	35.97854096253
2	538	1220.913527617928	36.513846854507
2	539	1224.448646382497	21.624945699813
2	556	1296.384878762265	5.628621234001
2	557	1299.745188493323	7.97206403419
2	560	1308.33472290226	5.084432798753
2	565	1320.761912468983	9.018987962562
2	566	1320.883132772745	2.048138408037
2	571	1341.240607460036	0.189232768908
2	578	1350.6635923511	2.245283778393
2	582	1354.78233583701	1.812550249375
2	606	1409.315250037989	17.043533535198
2	625	1435.211727180381	39.959971386055
2	636	1453.993499160686	33.194661080306
2	637	1465.800944179146	33.48670358222
2	638	1472.884447057592	40.422110372097
2	641	1475.072466266883	35.549911439564
2	642	1476.619499003505	22.752629685348
2	687	1580.679349847678	8.634421083898
2	694	1599.78774671452	4.711794517868
2	709	1641.040746799152	0.275991081819
2	715	1657.009526633566	4.216497238259
2	728	1686.184167646453	4.516736741183
2	758	1748.702706650456	22.219120893995
2	767	1773.684387104329	42.466483176952
2	768	1776.408567448565	31.346174899998
2	771	1788.587519568396	26.899189794113
2	793	1854.728042083379	19.8377763532
2	802	1866.528058580101	5.269398985219
2	803	1870.986979779889	8.449835005742
2	828	1925.742120287312	3.771931067163
2	833	1932.629566207813	6.454694970089
2	837	1942.373225895596	2.695917498062
2	845	1957.949705936149	10.57448984713
2	862	1984.406101197694	1.522285164329
2	865	1995.455044816697	11.470228505081
2	874	2004.350670234359	13.063832762308
2	883	2033.441833009767	36.687680354086
2	884	2043.67421537576	41.208086885872
2	892	2055.511434959271	0.40419394889
2	902	2079.982876856313	11.907504006177
2	903	2083.494612548294	7.86178034553
2	921	2127.755946989651	23.089192140523
2	924	2128.880074471994	0.990655329713
2	937	2167.055539926512	8.184846976253
2	942	2173.910012997973	6.556006173819
2	948	2198.318869405148	10.192873370868
2	971	2251.804337587894	0.560952644429
2	976	2260.33798140504	1.973055400943
2	981	2274.724858972831	4.852494626112
2	996	2307.670428566235	0.114978165089
2	1032	2413.998618125214	5.935074550877
2	1041	2432.87022944519	23.355608778165
2	1042	2437.686949454638	13.279222953827
2	1047	2453.65447470372	21.290699537856
3	136	352.004986605385	135.04414339127
3	137	358.539813936792	116.94235035884
3	138	362.180677060949	119.92599898209
3	141	363.627311090923	117.84310187719
3	146	378.687227740312	125.96339290984
3	149	387.572676066551	127.4769964203
3	152	389.623401723708	118.97788386423
3	153	391.263727880722	120.44992734259
3	154	392.051859202684	117.51026235486
3	159	400.284952562688	121.80078401559
3	160	401.968647591795	121.18558652955
3	161	409.712838173379	107.12376757402
3	162	412.045894611581	102.23927897391
3	171	448.838787117998	119.03708164308
3	172	453.063581436154	122.80456330012
3	173	466.576348432538	131.2206013369
3	174	468.720618320342	127.51017519374
3	175	473.425039914723	109.84598502892
3	176	476.307937280386	102.76465188462
3	185	498.512873964631	123.85095977909
3	186	498.595520815556	118.8785637271
3	187	498.69964797185	109.48363861961
3	188	502.23989783323	106.16847407494
3	193	510.118193268633	112.07943065218
3	194	518.297133679181	97.370420929749
3	202	529.412356379047	107.7149209029
3	207	539.112049780877	112.72346046309
3	208	540.118494135393	102.46288625857
3	211	547.567727500494	71.149963682325
3	212	553.653695951173	72.217252427201
3	213	556.310113198766	66.661343316405
3	214	556.785750378909	62.732159814236
3	219	565.676267180325	60.518972276456
3	220	567.095429066887	57.195696848545
3	223	571.070228814873	52.572984298329
3	224	572.06605204892	43.87329589876
3	225	576.988291299291	47.219386556794
3	228	582.502377605875	45.526903077062
3	229	583.912106511186	36.773548447959
3	230	587.118545664464	27.085925806924
3	231	587.771071367476	25.385988207742
3	232	589.185549221476	18.658159553873
3	233	596.829043070409	16.228571667802
3	236	608.890487285279	0
3	245	655.955770116286	0
3	248	658.203140380837	0.757596899676
3	254	671.478368522561	0
3	260	679.535327752802	0
3	263	700.541593501188	0
3	266	703.644066229174	0
3	273	710.905617309135	4.565262121884
3	276	714.98008928381	7.900667624894
3	279	724.329249405946	14.253708275102
3	280	726.1019842662	13.118648892524
3	281	726.447812910987	9.44479010736
3	286	730.198991887559	2.34995450661
3	291	736.80361330877	7.599803349373
3	292	742.02556157655	11.24549020289
3	293	745.746571718202	13.999988769128
3	302	758.854852345416	9.918019475032
3	352	842.161533879949	90.704387417335
3	353	849.200347669078	95.986355587344
3	354	851.117535842856	96.620974154122
3	355	857.076939388464	95.681983779189
3	356	859.646615462001	97.538000591111
3	357	864.880948838727	87.156416278155
3	358	871.795897276295	90.051182375642
3	361	872.780215534753	79.326768761039
3	368	878.806184672369	83.185567106197
3	371	879.49538354761	82.995570181001
3	372	884.02486378499	85.942973186303
3	375	889.223424198976	85.410375210898
3	380	892.997297769014	77.57747831576
3	401	919.555114439606	98.353513906665
3	412	934.50557216991	62.271663483309
3	413	936.505450184077	63.054843579908
3	416	939.298120612361	64.652025787154
3	419	946.967401463452	68.969976196833
3	420	948.705590671866	69.437606569098
3	423	956.169559927601	68.550044863057
3	434	976.659960950725	87.271316836582
3	437	985.050397596133	94.379924279498
3	438	985.790792577728	88.331938846299
3	445	998.488737029865	94.803823438628
3	446	1000.388412455169	96.260186695857
3	447	1000.399901075291	94.844653157841
3	448	1001.304166543659	94.030923996396
3	451	1007.783796046748	95.808845607797
3	452	1019.365752204389	101.71658993736
3	455	1028.472455898693	106.14770568545
3	458	1029.973181127006	102.91288472875
3	461	1033.117933239266	103.47947913084
3	466	1046.475578069727	116.21649346688
3	467	1053.312357080563	122.48479932625
3	474	1070.694731436917	133.71130758002
3	486	1097.392797881211	153.18934488791
3	491	1104.714409529457	150.70699730569
3	492	1107.329920580635	148.54509707031
3	495	1124.286417912996	158.81125871283
3	504	1134.983843234056	167.89719292367
3	507	1137.180958501051	164.788851557
3	508	1137.761766222028	161.89864048588
3	519	1168.6695842219	188.30847059084
3	520	1172.169647521054	185.80221838804
3	539	1224.448646382497	236.33145001556
3	540	1228.440480640076	232.28005088246
3	541	1236.842077340066	235.31663286621
3	544	1261.006103915645	236.22466493839
3	549	1286.678845605254	257.8474720813
3	557	1299.745188493323	268.4959492462
3	560	1308.33472290226	275.2014192209
3	566	1320.883132772745	284.67895066759
3	571	1341.240607460036	283.8648503429
3	578	1350.6635923511	283.33937592523
3	579	1350.994138232204	283.4915471503
3	582	1354.78233583701	282.79798516227
3	583	1358.087351494434	284.57292809355
3	588	1367.52022229309	282.01884244514
3	589	1373.032213190049	286.27851349014
3	590	1375.439380339652	272.21725332365
3	591	1383.452655627709	278.82853005728
3	642	1476.619499003505	360.46677335605
3	643	1491.464282596804	365.02975323483
3	644	1492.963648765401	365.92185519889
3	645	1494.624897801532	362.71164678163
3	646	1501.665593758662	367.12653878378
3	651	1513.785276517442	378.35468024856
3	654	1521.212065715434	382.94858303325
3	655	1522.679894757792	366.5568356207
3	656	1523.337638928733	367.11166133265
3	657	1525.946484545113	368.08393783098
3	662	1532.897354914311	370.70989783904
3	675	1549.904144848219	366.8710077012
3	680	1555.487873349053	363.96632502376
3	681	1557.720248269792	364.09687541974
3	682	1571.54149451384	377.06712603641
3	687	1580.679349847678	386.03062500338
3	688	1587.260481214176	374.04540938438
3	689	1591.223817227152	338.51930274403
3	690	1592.259428072809	331.02700705547
3	691	1594.060276925605	316.16650660313
3	694	1599.78774671452	309.03148918626
3	695	1606.201742175758	312.50464934939
3	696	1606.92947553633	303.67918543282
3	699	1612.87262281437	301.12969830795
3	700	1627.28670194352	301.20003230318
3	703	1629.040859350061	287.98948465893
3	704	1631.866147037605	283.4478384649
3	709	1641.040746799152	292.007268419
3	710	1642.374645378341	293.21303914466
3	715	1657.009526633566	304.03974104593
3	718	1671.747263710174	313.44841380038
3	719	1672.345176287114	310.71792795647
3	722	1677.675715894263	285.40399939147
3	723	1678.451930702024	279.5046891462
3	728	1686.184167646453	284.65802684438
3	729	1689.401758901239	283.54492086945
3	730	1705.979405946623	300.0952084676
3	733	1706.545859084479	299.31083192426
3	736	1711.614876838503	300.08798945119
3	739	1717.019991379907	298.14304403714
3	742	1723.43469834236	298.7628711523
3	743	1724.269952024858	297.01823352349
3	771	1788.587519568396	359.33261098442
3	772	1794.930296617911	365.63547751181
3	775	1802.905457633909	366.52139741987
3	778	1806.571310114129	368.70220886036
3	781	1815.376318143832	374.18317946696
3	782	1821.104200286598	347.79718660343
3	793	1854.728042083379	351.04560886259
3	803	1870.986979779889	361.17990230182
3	804	1871.123720094858	354.87588398921
3	811	1893.815791074467	367.12471278562
3	814	1895.94965971147	366.24699925226
3	815	1913.995146356498	380.99300803211
3	816	1914.745351081066	378.04687985151
3	817	1915.437640549264	377.20364334584
3	820	1919.818229260424	381.36811991949
3	821	1920.803849778778	375.437491907
3	828	1925.742120287312	377.05340937203
3	833	1932.629566207813	382.3279051292
3	834	1935.264020031529	381.97918167854
3	837	1942.373225895596	370.32829713182
3	840	1946.751386782053	369.1014007798
3	845	1957.949705936149	362.8737537395
3	846	1960.920912694328	353.71776219762
3	847	1963.86402358432	335.94979928865
3	848	1964.399474109483	323.65031807193
3	857	1978.878210829952	338.11345511262
3	884	2043.67421537576	392.15243951518
3	885	2049.058851589279	396.26582219397
3	886	2049.588157099951	380.4025365289
3	887	2050.025234252037	374.48357641181
3	888	2050.430410384662	368.76297947939
3	889	2054.563156452164	370.50104154219
3	892	2055.511434959271	349.14942946481
3	893	2060.976059295943	353.29830855325
3	903	2083.494612548294	369.02512782334
3	904	2089.989810583818	366.86458669322
3	905	2092.856081513269	366.37249575681
3	906	2094.168960345151	364.14834661422
3	921	2127.755946989651	389.87802557035
3	924	2128.880074471994	389.50907650582
3	929	2150.243197724763	404.28118670433
3	930	2152.230692559369	402.34885527126
3	937	2167.055539926512	407.86867714634
3	942	2173.910012997973	404.27971068904
3	943	2174.406620214029	397.03933960697
3	944	2174.555586657968	374.32603122757
3	945	2178.590628880472	372.5965587826
3	948	2198.318869405148	388.16301135364
3	949	2199.347837786327	376.67682661689
3	950	2200.200027815056	365.30976208488
3	961	2218.622762148226	380.66474452025
3	962	2222.690267156219	380.91001644178
3	963	2231.159108504139	380.04979989049
3	964	2242.186678767333	387.16513230608
3	967	2248.200269011572	386.94160941669
3	968	2250.701522108023	387.28570588105
3	971	2251.804337587894	370.7825122435
3	972	2253.759767747355	367.91302137874
3	973	2257.258849894807	366.75954858416
3	976	2260.33798140504	365.60453105397
3	977	2261.863615393565	343.23145442335
3	978	2265.901588845186	343.93139962504
3	981	2274.724858972831	350.53656099196
3	982	2279.780299738447	354.46119978236
3	987	2286.555493176341	360.38062193862
3	988	2290.188118020897	360.60228112731
3	991	2294.361786174925	354.68447777739
3	996	2307.670428566235	362.34557053243
3	997	2310.909670368993	363.53445427997
3	1002	2336.154946176982	387.05198949595
3	1005	2343.362968169994	373.16760916235
3	1008	2346.030271859278	373.95696487626
3	1009	2351.689769930009	374.39333251449
3	1010	2353.222156833356	374.88577719548
3	1011	2360.395279426935	377.51146339357
3	1012	2364.293066014319	363.64706724458
3	1013	2366.622537822354	365.0894074783
3	1018	2381.317036299419	373.32201020461
3	1019	2392.077506408468	367.47412992323
3	1020	2392.456045508328	367.50548719274
3	1021	2396.241271801911	362.80355237209
3	1024	2400.561352197178	345.4541111868
3	1027	2404.779777524166	341.7429141586
3	1047	2453.65447470372	385.57910185358
3	1048	2462.069992696069	389.03245322751
3	1049	2477.184345587127	378.55818400128
3	1050	2479.198472840671	377.54628154915
3	1051	2485.301805383432	380.6350505343
3	1052	2487.350628157457	382.62810853312
4	137	358.539813936792	20
4	138	362.180677060949	21
4	141	363.627311090923	22
4	146	378.687227740312	23
4	149	387.572676066551	24
4	152	389.623401723708	25
4	153	391.263727880722	26
4	154	392.051859202684	27
4	159	400.284952562688	28
4	160	401.968647591795	29
4	161	409.712838173379	30
4	162	412.045894611581	31
4	172	453.063581436154	32
4	173	466.576348432538	33
4	174	468.720618320342	34
4	175	473.425039914723	35
4	176	476.307937280386	36
4	186	498.595520815556	37
4	187	498.69964797185	38
4	188	502.23989783323	39
4	194	518.297133679181	40
4	208	540.118494135393	41
4	211	547.567727500494	42
4	212	553.653695951173	43
4	213	556.310113198766	44
4	214	556.785750378909	45
4	219	565.676267180325	46
4	220	567.095429066887	47
4	223	571.070228814873	48
4	224	572.06605204892	49
4	225	576.988291299291	50
4	229	583.912106511186	51
4	230	587.118545664464	52
4	231	587.771071367476	53
4	232	589.185549221476	54
4	233	596.829043070409	55
4	234	608.405648494509	56
4	237	614.275533658718	57
4	248	658.203140380837	58
4	249	658.427982941456	59
4	255	671.48423079212	60
4	261	685.924768700209	61
4	264	703.230012419689	62
4	276	714.98008928381	63
4	279	724.329249405946	64
4	280	726.1019842662	65
4	281	726.447812910987	66
4	291	736.80361330877	67
4	292	742.02556157655	68
4	293	745.746571718202	69
4	302	758.854852345416	70
4	353	849.200347669078	71
4	354	851.117535842856	72
4	355	857.076939388464	73
4	356	859.646615462001	74
4	357	864.880948838727	75
4	358	871.795897276295	76
4	368	878.806184672369	77
4	371	879.49538354761	78
4	372	884.02486378499	79
4	375	889.223424198976	80
4	380	892.997297769014	81
4	413	936.505450184077	82
4	419	946.967401463452	83
4	420	948.705590671866	84
4	423	956.169559927601	85
4	437	985.050397596133	86
4	438	985.790792577728	87
4	445	998.488737029865	88
4	446	1000.388412455169	89
4	447	1000.399901075291	90
4	448	1001.304166543659	91
4	451	1007.783796046748	92
4	452	1019.365752204389	93
4	458	1029.973181127006	94
4	466	1046.475578069727	95
4	467	1053.312357080563	96
4	492	1107.329920580635	97
4	495	1124.286417912996	98
4	508	1137.761766222028	99
4	520	1172.169647521054	100
4	540	1228.440480640076	101
4	541	1236.842077340066	102
4	544	1261.006103915645	103
4	549	1286.678845605254	104
4	579	1350.994138232204	105
4	583	1358.087351494434	106
4	588	1367.52022229309	107
4	589	1373.032213190049	108
4	590	1375.439380339652	109
4	591	1383.452655627709	110
4	643	1491.464282596804	111
4	644	1492.963648765401	112
4	645	1494.624897801532	113
4	646	1501.665593758662	114
4	651	1513.785276517442	115
4	654	1521.212065715434	116
4	655	1522.679894757792	117
4	656	1523.337638928733	118
4	657	1525.946484545113	119
4	662	1532.897354914311	120
4	675	1549.904144848219	121
4	680	1555.487873349053	122
4	681	1557.720248269792	123
4	682	1571.54149451384	124
4	688	1587.260481214176	125
4	689	1591.223817227152	126
4	690	1592.259428072809	127
4	691	1594.060276925605	128
4	695	1606.201742175758	129
4	696	1606.92947553633	130
4	699	1612.87262281437	131
4	700	1627.28670194352	132
4	703	1629.040859350061	133
4	704	1631.866147037605	134
4	710	1642.374645378341	135
4	718	1671.747263710174	136
4	719	1672.345176287114	137
4	722	1677.675715894263	138
4	723	1678.451930702024	139
4	729	1689.401758901239	140
4	730	1705.979405946623	141
4	733	1706.545859084479	142
4	736	1711.614876838503	143
4	739	1717.019991379907	144
4	742	1723.43469834236	145
4	743	1724.269952024858	146
4	772	1794.930296617911	147
4	775	1802.905457633909	148
4	778	1806.571310114129	149
4	781	1815.376318143832	150
4	782	1821.104200286598	151
4	804	1871.123720094858	152
4	811	1893.815791074467	153
4	814	1895.94965971147	154
4	815	1913.995146356498	155
4	816	1914.745351081066	156
4	817	1915.437640549264	157
4	820	1919.818229260424	158
4	821	1920.803849778778	159
4	834	1935.264020031529	160
4	840	1946.751386782053	161
4	846	1960.920912694328	162
4	847	1963.86402358432	163
4	848	1964.399474109483	164
4	857	1978.878210829952	165
4	885	2049.058851589279	166
4	886	2049.588157099951	167
4	887	2050.025234252037	168
4	888	2050.430410384662	169
4	889	2054.563156452164	170
4	893	2060.976059295943	171
4	904	2089.989810583818	172
4	905	2092.856081513269	173
4	906	2094.168960345151	174
4	929	2150.243197724763	175
4	930	2152.230692559369	176
4	943	2174.406620214029	177
4	944	2174.555586657968	178
4	945	2178.590628880472	179
4	949	2199.347837786327	180
4	950	2200.200027815056	181
4	961	2218.622762148226	182
4	962	2222.690267156219	183
4	963	2231.159108504139	184
4	964	2242.186678767333	185
4	967	2248.200269011572	186
4	968	2250.701522108023	187
4	972	2253.759767747355	188
4	973	2257.258849894807	189
4	977	2261.863615393565	190
4	978	2265.901588845186	191
4	982	2279.780299738447	192
4	987	2286.555493176341	193
4	988	2290.188118020897	194
4	991	2294.361786174925	195
4	997	2310.909670368993	196
4	1002	2336.154946176982	197
4	1005	2343.362968169994	198
4	1008	2346.030271859278	199
4	1009	2351.689769930009	200
4	1010	2353.222156833356	201
4	1011	2360.395279426935	202
4	1012	2364.293066014319	203
4	1013	2366.622537822354	204
4	1018	2381.317036299419	205
4	1019	2392.077506408468	206
4	1020	2392.456045508328	207
4	1021	2396.241271801911	208
4	1024	2400.561352197178	209
4	1027	2404.779777524166	210
4	1048	2462.069992696069	211
4	1049	2477.184345587127	212
4	1050	2479.198472840671	213
4	1051	2485.301805383432	214
4	1052	2487.350628157457	215
5	137	358.539813936792	16
5	138	362.180677060949	15
5	140	363.579054885799	15
5	141	363.627311090923	15
5	143	373.543285395769	15
5	145	374.661914185546	16
5	146	378.687227740312	16
5	148	379.716957088455	16
5	149	387.572676066551	16
5	151	389.216009352237	16
5	152	389.623401723708	16
5	153	391.263727880722	15
5	154	392.051859202684	14
5	156	396.071423758288	14
5	158	398.038762616448	15
5	159	400.284952562688	15
5	160	401.968647591795	14
5	161	409.712838173379	13
5	162	412.045894611581	12
5	164	420.926712749432	12
5	166	421.697435476152	13
5	168	426.388589317789	14
5	172	453.063581436154	14
5	173	466.576348432538	13
5	174	468.720618320342	12
5	175	473.425039914723	11
5	176	476.307937280386	10
5	180	481.436443523972	10
5	182	489.648769882361	11
5	184	494.053590564673	12
5	186	498.595520815556	12
5	187	498.69964797185	11
5	188	502.23989783323	10
5	192	509.899732218342	10
5	194	518.297133679181	10
5	201	528.19275615016	10
5	206	536.975474528813	11
5	208	540.118494135393	11
5	210	547.138558063227	11
5	211	547.567727500494	11
5	212	553.653695951173	10
5	213	556.310113198766	9
5	214	556.785750378909	8
5	216	560.03261985754	8
5	218	562.385083159734	9
5	219	565.676267180325	9
5	220	567.095429066887	8
5	222	570.527389667603	8
5	223	571.070228814873	8
5	224	572.06605204892	7
5	225	576.988291299291	6
5	229	583.912106511186	5
5	230	587.118545664464	4
5	231	587.771071367476	3
5	232	589.185549221476	2
5	233	596.829043070409	1
5	234	608.405648494509	0
5	236	608.890487285279	0
5	237	614.275533658718	0
5	245	655.955770116286	0
5	247	657.445543481161	1
5	248	658.203140380837	1
5	249	658.427982941456	0
5	254	671.478368522561	0
5	255	671.48423079212	0
5	260	679.535327752802	0
5	261	685.924768700209	0
5	263	700.541593501188	0
5	264	703.230012419689	0
5	266	703.644066229174	0
5	268	706.340355187251	1
5	272	710.075541130844	2
5	275	712.983335373676	3
5	276	714.98008928381	3
5	278	717.003022803627	3
5	279	724.329249405946	3
5	280	726.1019842662	2
5	281	726.447812910987	1
5	285	729.203809959397	1
5	288	730.78007137366	2
5	290	731.746582949074	3
5	291	736.80361330877	3
5	292	742.02556157655	2
5	293	745.746571718202	1
5	295	748.936832870384	1
5	297	751.457146462614	2
5	299	753.213992081734	3
5	301	754.496561688734	4
5	302	758.854852345416	4
5	304	761.394955609275	4
5	316	777.724532560572	5
5	323	781.744714900653	6
5	331	793.453446773714	7
5	333	795.620617566172	8
5	335	796.499813366609	9
5	337	798.081890598687	10
5	342	803.813048988078	11
5	346	815.419819453254	12
5	348	821.201600532941	13
5	353	849.200347669078	13
5	354	851.117535842856	12
5	355	857.076939388464	11
5	356	859.646615462001	10
5	357	864.880948838727	9
5	358	871.795897276295	8
5	363	873.450606604169	8
5	365	874.646094825207	9
5	367	877.997425266619	10
5	368	878.806184672369	10
5	370	879.267984102768	10
5	371	879.49538354761	10
5	372	884.02486378499	9
5	374	887.619515064544	9
5	375	889.223424198976	9
5	377	889.388644114143	9
5	379	890.670473316635	10
5	380	892.997297769014	10
5	384	903.684913591237	10
5	386	904.128225759312	11
5	391	905.55524791745	12
5	393	907.273242547263	13
5	398	911.974950438951	14
5	400	917.649162267031	15
5	403	922.324750213238	16
5	405	927.060296398259	17
5	407	929.638454108424	18
5	409	930.259084602846	19
5	413	936.505450184077	19
5	418	944.203452993304	19
5	419	946.967401463452	19
5	420	948.705590671866	18
5	422	954.007412223763	18
5	423	956.169559927601	18
5	425	958.784823510326	18
5	427	965.475159200168	19
5	429	967.086650310384	20
5	431	972.392106944048	21
5	436	980.361113631062	22
5	437	985.050397596133	22
5	438	985.790792577728	21
5	440	986.367429133012	21
5	442	988.117196366938	22
5	444	996.160429757614	23
5	445	998.488737029865	23
5	446	1000.388412455169	22
5	447	1000.399901075291	21
5	448	1001.304166543659	20
5	450	1001.525444473856	20
5	451	1007.783796046748	20
5	452	1019.365752204389	19
5	457	1028.831373523952	19
5	458	1029.973181127006	19
5	463	1033.133303681355	19
5	465	1036.204182105157	20
5	466	1046.475578069727	20
5	467	1053.312357080563	19
5	471	1067.324216425874	19
5	473	1067.502591081906	20
5	478	1073.514423400888	21
5	480	1085.501379847949	22
5	482	1086.753699699907	23
5	488	1103.222127016005	24
5	492	1107.329920580635	24
5	494	1116.152725647456	24
5	495	1124.286417912996	24
5	497	1126.434529361977	24
5	499	1127.04179356651	25
5	503	1134.539054974881	26
5	508	1137.761766222028	26
5	510	1138.263482682187	26
5	512	1156.12305913709	27
5	516	1157.862546714135	28
5	518	1162.187457075274	29
5	520	1172.169647521054	29
5	526	1191.521548325295	29
5	528	1193.623372850051	30
5	530	1194.474368477427	31
5	532	1194.648724844303	32
5	536	1213.215071829798	33
5	540	1228.440480640076	33
5	541	1236.842077340066	32
5	543	1252.704514483121	32
5	544	1261.006103915645	32
5	546	1261.23242101734	32
5	548	1277.893770322476	33
5	549	1286.678845605254	33
5	555	1293.69709282637	33
5	568	1326.086669640338	34
5	575	1349.033478380154	35
5	577	1349.161606233685	36
5	579	1350.994138232204	36
5	583	1358.087351494434	35
5	585	1358.298849909792	35
5	587	1361.627248330642	36
5	588	1367.52022229309	36
5	589	1373.032213190049	35
5	590	1375.439380339652	34
5	591	1383.452655627709	33
5	597	1398.947241555823	33
5	599	1401.526140802077	34
5	601	1405.856838031789	35
5	603	1405.884197479022	36
5	605	1407.235027160216	37
5	608	1411.526887387314	38
5	610	1418.876947342769	39
5	614	1424.671827190064	40
5	616	1427.251718501363	41
5	618	1429.254908583975	42
5	620	1429.294819106096	43
5	627	1436.384060214042	44
5	629	1437.869101253766	45
5	633	1441.193138676873	46
5	640	1473.307013683163	47
5	643	1491.464282596804	47
5	644	1492.963648765401	46
5	645	1494.624897801532	45
5	646	1501.665593758662	44
5	648	1503.682433220789	44
5	650	1509.807077478072	45
5	651	1513.785276517442	45
5	653	1516.247836105645	45
5	654	1521.212065715434	45
5	655	1522.679894757792	44
5	656	1523.337638928733	43
5	657	1525.946484545113	42
5	659	1526.691078288846	42
5	661	1529.702660459206	43
5	662	1532.897354914311	43
5	664	1533.00213832439	43
5	666	1536.698471229552	44
5	668	1538.233997203426	45
5	670	1538.450109340932	46
5	672	1545.366357871776	47
5	674	1548.688710915277	48
5	675	1549.904144848219	48
5	677	1550.301661078617	48
5	679	1553.284838352992	49
5	680	1555.487873349053	49
5	681	1557.720248269792	48
5	682	1571.54149451384	47
5	686	1577.649986002257	47
5	688	1587.260481214176	47
5	689	1591.223817227152	46
5	690	1592.259428072809	45
5	691	1594.060276925605	44
5	695	1606.201742175758	43
5	696	1606.92947553633	42
5	698	1607.203150496704	42
5	699	1612.87262281437	42
5	700	1627.28670194352	41
5	702	1627.914224295672	41
5	703	1629.040859350061	41
5	704	1631.866147037605	40
5	706	1640.74915603755	40
5	710	1642.374645378341	40
5	712	1651.521775860583	40
5	717	1669.18562057105	41
5	718	1671.747263710174	41
5	719	1672.345176287114	40
5	721	1675.541657840223	40
5	722	1677.675715894263	40
5	723	1678.451930702024	39
5	727	1684.062114909978	39
5	729	1689.401758901239	39
5	730	1705.979405946623	38
5	732	1706.362005494458	38
5	733	1706.545859084479	38
5	735	1707.677750742697	38
5	736	1711.614876838503	38
5	738	1714.469484724958	38
5	739	1717.019991379907	38
5	741	1723.125223890593	38
5	742	1723.43469834236	38
5	743	1724.269952024858	37
5	747	1730.020613730931	37
5	751	1737.8779214193	38
5	753	1739.370997966171	39
5	757	1745.962011020429	40
5	760	1749.881837288104	41
5	762	1759.186862780174	42
5	766	1769.630302308937	43
5	770	1777.367280607055	44
5	772	1794.930296617911	44
5	774	1800.229555430394	44
5	775	1802.905457633909	44
5	777	1805.994070097871	44
5	778	1806.571310114129	44
5	780	1810.155858051508	44
5	781	1815.376318143832	44
5	782	1821.104200286598	43
5	784	1822.671011169435	43
5	788	1837.958017627977	44
5	790	1841.780250714441	45
5	792	1851.10930861365	46
5	795	1855.021546461255	47
5	801	1863.415816226968	48
5	804	1871.123720094858	48
5	806	1881.021825344395	48
5	808	1885.846746368614	49
5	810	1890.499301310651	50
5	811	1893.815791074467	50
5	813	1894.733450351068	50
5	814	1895.94965971147	50
5	815	1913.995146356498	49
5	816	1914.745351081066	48
5	817	1915.437640549264	47
5	819	1918.63216097021	47
5	820	1919.818229260424	47
5	821	1920.803849778778	46
5	825	1924.188297980871	46
5	827	1925.319099956091	47
5	832	1929.585836893588	48
5	834	1935.264020031529	48
5	839	1945.324858033802	48
5	840	1946.751386782053	48
5	844	1949.102956681035	48
5	846	1960.920912694328	48
5	847	1963.86402358432	47
5	848	1964.399474109483	46
5	850	1970.195359007643	46
5	852	1972.073306983018	47
5	854	1977.296437415521	48
5	856	1978.336379637879	49
5	857	1978.878210829952	49
5	869	2000.645998769736	49
5	871	2001.533130344054	50
5	876	2007.995026094809	51
5	878	2024.603376485236	52
5	880	2024.950558315583	53
5	882	2033.437719429817	54
5	885	2049.058851589279	54
5	886	2049.588157099951	53
5	887	2050.025234252037	52
5	888	2050.430410384662	51
5	889	2054.563156452164	50
5	893	2060.976059295943	49
5	895	2063.036863365565	49
5	899	2073.037539468562	50
5	904	2089.989810583818	50
5	905	2092.856081513269	49
5	906	2094.168960345151	48
5	908	2098.626161585843	48
5	910	2101.652191291521	49
5	914	2104.722519624341	50
5	916	2114.300281212789	51
5	918	2123.595870604585	52
5	920	2126.480391705255	53
5	926	2131.138008777177	54
5	928	2145.312916017673	55
5	929	2150.243197724763	55
5	930	2152.230692559369	54
5	932	2155.265748692222	54
5	936	2159.739164724532	55
5	941	2170.178034647438	56
5	943	2174.406620214029	56
5	944	2174.555586657968	55
5	945	2178.590628880472	54
5	949	2199.347837786327	53
5	950	2200.200027815056	52
5	952	2202.388911678322	52
5	954	2203.205691311175	53
5	956	2203.524555641011	54
5	958	2210.289759920931	55
5	960	2212.79845897277	56
5	961	2218.622762148226	56
5	962	2222.690267156219	55
5	963	2231.159108504139	54
5	964	2242.186678767333	53
5	966	2247.549440949729	53
5	967	2248.200269011572	53
5	968	2250.701522108023	52
5	972	2253.759767747355	51
5	973	2257.258849894807	50
5	977	2261.863615393565	49
5	978	2265.901588845186	48
5	982	2279.780299738447	47
5	984	2280.676308392161	47
5	986	2285.947942009678	48
5	987	2286.555493176341	48
5	988	2290.188118020897	47
5	990	2293.178156133197	47
5	991	2294.361786174925	47
5	993	2298.063499787186	47
5	997	2310.909670368993	47
5	999	2331.409750970106	47
5	1001	2335.595798817299	48
5	1002	2336.154946176982	48
5	1004	2337.869263900486	48
5	1005	2343.362968169994	48
5	1007	2345.414111781883	48
5	1008	2346.030271859278	48
5	1009	2351.689769930009	47
5	1010	2353.222156833356	46
5	1011	2360.395279426935	45
5	1012	2364.293066014319	44
5	1013	2366.622537822354	43
5	1015	2367.882882518354	43
5	1017	2375.883843674064	44
5	1018	2381.317036299419	44
5	1019	2392.077506408468	43
5	1020	2392.456045508328	42
5	1021	2396.241271801911	41
5	1023	2396.56508061736	41
5	1024	2400.561352197178	41
5	1026	2402.72537027751	41
5	1027	2404.779777524166	41
5	1034	2418.608898796319	41
5	1036	2420.928476131934	42
5	1044	2440.516677299247	43
5	1046	2448.232179053637	44
5	1048	2462.069992696069	44
5	1049	2477.184345587127	43
5	1050	2479.198472840671	42
5	1051	2485.301805383432	41
5	1052	2487.350628157457	40
5	1054	2489.019590075643	40
5	1058	2491.481527160442	41
6	137	358.539813936792	141.57897072267
6	138	362.180677060949	120.583213483
6	141	363.627311090923	121.37263301206
6	146	378.687227740312	132.90301852658
6	149	387.572676066551	134.84884123608
6	152	389.623401723708	129.52772207745
6	153	391.263727880722	120.61821002124
6	154	392.051859202684	121.23805866455
6	159	400.284952562688	125.74335571486
6	160	401.968647591795	123.4844790447
6	161	409.712838173379	128.92977711114
6	162	412.045894611581	109.45682401222
6	172	453.063581436154	123.26187596123
6	173	466.576348432538	136.3173302965
6	174	468.720618320342	133.36487122471
6	175	473.425039914723	132.21459678812
6	176	476.307937280386	112.72888239459
6	186	498.595520815556	123.93360663001
6	187	498.69964797185	118.98269088339
6	188	502.23989783323	113.02388848099
6	194	518.297133679181	120.25837106273
6	208	540.118494135393	113.7299048176
6	211	547.567727500494	109.91211962367
6	212	553.653695951173	77.235932133004
6	213	556.310113198766	74.873669674794
6	214	556.785750378909	67.136980496548
6	219	565.676267180325	71.622676615652
6	220	567.095429066887	61.938134163018
6	223	571.070228814873	61.170496596531
6	224	572.06605204892	53.568807532376
6	225	576.988291299291	48.795535149131
6	229	583.912106511186	46.936631982373
6	230	587.118545664464	39.979987601237
6	231	587.771071367476	27.738451509936
6	232	589.185549221476	26.800466061742
6	233	596.829043070409	26.301653402806
6	234	608.405648494509	27.805177091902
6	237	614.275533658718	5.385046373439
6	248	658.203140380837	2.247370264551
6	249	658.427982941456	0.982439460295
6	255	671.48423079212	0.005862269559
6	261	685.924768700209	6.389440947407
6	264	703.230012419689	2.688418918501
6	276	714.98008928381	8.639734096559
6	279	724.329249405946	17.24982774703
6	280	726.1019842662	16.026443135356
6	281	726.447812910987	13.464477537311
6	291	736.80361330877	8.954575927821
6	292	742.02556157655	12.821751617153
6	293	745.746571718202	14.966500344542
6	302	758.854852345416	27.108269396342
6	353	849.200347669078	97.743201206464
6	354	851.117535842856	97.903543761122
6	355	857.076939388464	102.58037769973
6	356	859.646615462001	98.251659852726
6	357	864.880948838727	102.77233396784
6	358	871.795897276295	94.071364715723
6	368	878.806184672369	85.352737898655
6	371	879.49538354761	83.874765981438
6	372	884.02486378499	87.525050418381
6	375	889.223424198976	91.141533600289
6	380	892.997297769014	89.184248780936
6	413	936.505450184077	64.271541497476
6	419	946.967401463452	72.321306638245
6	420	948.705590671866	70.708165405247
6	423	956.169559927601	76.901575824833
6	437	985.050397596133	95.66175348199
6	438	985.790792577728	95.120319261093
6	445	998.488737029865	101.02988329844
6	446	1000.388412455169	96.703498863932
6	447	1000.399901075291	96.271675315979
6	448	1001.304166543659	95.748918626209
6	451	1007.783796046748	100.51055349948
6	452	1019.365752204389	107.39080176544
6	458	1029.973181127006	107.64843091377
6	466	1046.475578069727	116.8371239613
6	467	1053.312357080563	123.05327247772
6	492	1107.329920580635	153.32250835687
6	495	1124.286417912996	165.50159440267
6	508	1137.761766222028	165.36965927798
6	520	1172.169647521054	191.80853388999
6	540	1228.440480640076	240.32328427314
6	541	1236.842077340066	240.68164758245
6	544	1261.006103915645	259.48065944179
6	549	1286.678845605254	261.897406628
6	579	1350.994138232204	283.66992180633
6	583	1358.087351494434	286.10300081969
6	588	1367.52022229309	294.0057988922
6	589	1373.032213190049	287.5308333421
6	590	1375.439380339652	288.68568063974
6	591	1383.452655627709	280.2305286117
6	643	1491.464282596804	375.31155694935
6	644	1492.963648765401	366.52911940342
6	645	1494.624897801532	367.58310423502
6	646	1501.665593758662	369.75234273876
6	651	1513.785276517442	379.24622154256
6	654	1521.212065715434	385.78146944655
6	655	1522.679894757792	384.4164120756
6	656	1523.337638928733	367.21457979164
6	657	1525.946484545113	369.72050694903
6	662	1532.897354914311	375.03480820018
6	675	1549.904144848219	387.71668777294
6	680	1555.487873349053	372.45473620203
6	681	1557.720248269792	366.1986999445
6	682	1571.54149451384	377.91812166379
6	688	1587.260481214176	392.61175636987
6	689	1591.223817227152	378.00874539735
6	690	1592.259428072809	339.55491358969
6	691	1594.060276925605	332.82785590827
6	695	1606.201742175758	315.44548464749
6	696	1606.92947553633	313.23238270996
6	699	1612.87262281437	309.62233271086
6	700	1627.28670194352	315.5437774371
6	703	1629.040859350061	302.95418970972
6	704	1631.866147037605	290.81477234648
6	710	1642.374645378341	293.34116699819
6	718	1671.747263710174	318.77747812254
6	719	1672.345176287114	314.04632637732
6	722	1677.675715894263	316.04846756362
6	723	1678.451930702024	286.18021419923
6	729	1689.401758901239	287.87561809916
6	730	1705.979405946623	300.12256791483
6	733	1706.545859084479	300.66166160546
6	736	1711.614876838503	304.37984967829
6	739	1717.019991379907	305.49310399259
6	742	1723.43469834236	304.55775099959
6	743	1724.269952024858	299.59812483479
6	772	1794.930296617911	365.67538803394
6	775	1802.905457633909	373.61063852781
6	778	1806.571310114129	370.18724990009
6	781	1815.376318143832	377.50721689007
6	782	1821.104200286598	379.91106160972
6	804	1871.123720094858	361.31664261679
6	811	1893.815791074467	377.56795496882
6	814	1895.94965971147	369.25858142262
6	815	1913.995146356498	384.29248589729
6	816	1914.745351081066	381.74321275668
6	817	1915.437640549264	378.73916931971
6	820	1919.818229260424	381.584232057
6	821	1920.803849778778	382.35374043785
6	834	1935.264020031529	384.96235895291
6	840	1946.751386782053	374.70645801827
6	846	1960.920912694328	365.84496049768
6	847	1963.86402358432	356.66087308762
6	848	1964.399474109483	336.48524981381
6	857	1978.878210829952	338.1290547924
6	885	2049.058851589279	397.5370757287
6	886	2049.588157099951	396.79512770464
6	887	2050.025234252037	380.83961368099
6	888	2050.430410384662	374.88875254444
6	889	2054.563156452164	372.89572554689
6	893	2060.976059295943	354.61405380148
6	904	2089.989810583818	375.52032585886
6	905	2092.856081513269	369.73085762268
6	906	2094.168960345151	367.68537458869
6	929	2150.243197724763	410.87219975859
6	930	2152.230692559369	406.26868153894
6	943	2174.406620214029	404.77631790509
6	944	2174.555586657968	397.18830605091
6	945	2178.590628880472	378.36107345008
6	949	2199.347837786327	389.19197973482
6	950	2200.200027815056	377.52901664562
6	961	2218.622762148226	383.73249641805
6	962	2222.690267156219	384.73224952824
6	963	2231.159108504139	389.3788577897
6	964	2242.186678767333	391.07737015368
6	967	2248.200269011572	393.17872255032
6	968	2250.701522108023	389.44286251314
6	972	2253.759767747355	372.73794240296
6	973	2257.258849894807	371.41210352619
6	977	2261.863615393565	367.1301650425
6	978	2265.901588845186	347.26942787498
6	982	2279.780299738447	355.59200175758
6	987	2286.555493176341	361.23639322025
6	988	2290.188118020897	364.01324678317
6	991	2294.361786174925	364.77594928134
6	997	2310.909670368993	365.58481233519
6	1002	2336.154946176982	388.77973008796
6	1005	2343.362968169994	394.26001148896
6	1008	2346.030271859278	375.83491285164
6	1009	2351.689769930009	379.61646294699
6	1010	2353.222156833356	375.92571941784
6	1011	2360.395279426935	382.05889978906
6	1012	2364.293066014319	381.40924998095
6	1013	2366.622537822354	365.97653905262
6	1018	2381.317036299419	379.78390595537
6	1019	2392.077506408468	384.08248031366
6	1020	2392.456045508328	367.85266902309
6	1021	2396.241271801911	371.29071348633
6	1024	2400.561352197178	367.12363276736
6	1027	2404.779777524166	349.67253651379
6	1048	2462.069992696069	393.99461984593
6	1049	2477.184345587127	404.14680611856
6	1050	2479.198472840671	380.57231125483
6	1051	2485.301805383432	383.64961409191
6	1052	2487.350628157457	382.68387330833
7	140	363.579054885799	16
7	143	373.543285395769	16
7	145	374.661914185546	17
7	148	379.716957088455	17
7	151	389.216009352237	17
7	156	396.071423758288	15
7	158	398.038762616448	16
7	164	420.926712749432	13
7	166	421.697435476152	14
7	168	426.388589317789	15
7	180	481.436443523972	11
7	182	489.648769882361	12
7	184	494.053590564673	13
7	192	509.899732218342	11
7	201	528.19275615016	11
7	206	536.975474528813	12
7	210	547.138558063227	12
7	216	560.03261985754	9
7	218	562.385083159734	10
7	222	570.527389667603	9
7	236	608.890487285279	1
7	245	655.955770116286	1
7	247	657.445543481161	2
7	254	671.478368522561	1
7	260	679.535327752802	1
7	263	700.541593501188	1
7	266	703.644066229174	1
7	268	706.340355187251	2
7	272	710.075541130844	3
7	275	712.983335373676	4
7	278	717.003022803627	4
7	285	729.203809959397	2
7	288	730.78007137366	3
7	290	731.746582949074	4
7	295	748.936832870384	2
7	297	751.457146462614	3
7	299	753.213992081734	4
7	301	754.496561688734	5
7	304	761.394955609275	5
7	316	777.724532560572	6
7	323	781.744714900653	7
7	331	793.453446773714	8
7	333	795.620617566172	9
7	335	796.499813366609	10
7	337	798.081890598687	11
7	342	803.813048988078	12
7	346	815.419819453254	13
7	348	821.201600532941	14
7	363	873.450606604169	9
7	365	874.646094825207	10
7	367	877.997425266619	11
7	370	879.267984102768	11
7	374	887.619515064544	10
7	377	889.388644114143	10
7	379	890.670473316635	11
7	384	903.684913591237	11
7	386	904.128225759312	12
7	391	905.55524791745	13
7	393	907.273242547263	14
7	398	911.974950438951	15
7	400	917.649162267031	16
7	403	922.324750213238	17
7	405	927.060296398259	18
7	407	929.638454108424	19
7	409	930.259084602846	20
7	418	944.203452993304	20
7	422	954.007412223763	19
7	425	958.784823510326	19
7	427	965.475159200168	20
7	429	967.086650310384	21
7	431	972.392106944048	22
7	436	980.361113631062	23
7	440	986.367429133012	22
7	442	988.117196366938	23
7	444	996.160429757614	24
7	450	1001.525444473856	21
7	457	1028.831373523952	20
7	463	1033.133303681355	20
7	465	1036.204182105157	21
7	471	1067.324216425874	20
7	473	1067.502591081906	21
7	478	1073.514423400888	22
7	480	1085.501379847949	23
7	482	1086.753699699907	24
7	488	1103.222127016005	25
7	494	1116.152725647456	25
7	497	1126.434529361977	25
7	499	1127.04179356651	26
7	503	1134.539054974881	27
7	510	1138.263482682187	27
7	512	1156.12305913709	28
7	516	1157.862546714135	29
7	518	1162.187457075274	30
7	526	1191.521548325295	30
7	528	1193.623372850051	31
7	530	1194.474368477427	32
7	532	1194.648724844303	33
7	536	1213.215071829798	34
7	543	1252.704514483121	33
7	546	1261.23242101734	33
7	548	1277.893770322476	34
7	555	1293.69709282637	34
7	568	1326.086669640338	35
7	575	1349.033478380154	36
7	577	1349.161606233685	37
7	585	1358.298849909792	36
7	587	1361.627248330642	37
7	597	1398.947241555823	34
7	599	1401.526140802077	35
7	601	1405.856838031789	36
7	603	1405.884197479022	37
7	605	1407.235027160216	38
7	608	1411.526887387314	39
7	610	1418.876947342769	40
7	614	1424.671827190064	41
7	616	1427.251718501363	42
7	618	1429.254908583975	43
7	620	1429.294819106096	44
7	627	1436.384060214042	45
7	629	1437.869101253766	46
7	633	1441.193138676873	47
7	640	1473.307013683163	48
7	648	1503.682433220789	45
7	650	1509.807077478072	46
7	653	1516.247836105645	46
7	659	1526.691078288846	43
7	661	1529.702660459206	44
7	664	1533.00213832439	44
7	666	1536.698471229552	45
7	668	1538.233997203426	46
7	670	1538.450109340932	47
7	672	1545.366357871776	48
7	674	1548.688710915277	49
7	677	1550.301661078617	49
7	679	1553.284838352992	50
7	686	1577.649986002257	48
7	698	1607.203150496704	43
7	702	1627.914224295672	42
7	706	1640.74915603755	41
7	712	1651.521775860583	41
7	717	1669.18562057105	42
7	721	1675.541657840223	41
7	727	1684.062114909978	40
7	732	1706.362005494458	39
7	735	1707.677750742697	39
7	738	1714.469484724958	39
7	741	1723.125223890593	39
7	747	1730.020613730931	38
7	751	1737.8779214193	39
7	753	1739.370997966171	40
7	757	1745.962011020429	41
7	760	1749.881837288104	42
7	762	1759.186862780174	43
7	766	1769.630302308937	44
7	770	1777.367280607055	45
7	774	1800.229555430394	45
7	777	1805.994070097871	45
7	780	1810.155858051508	45
7	784	1822.671011169435	44
7	788	1837.958017627977	45
7	790	1841.780250714441	46
7	792	1851.10930861365	47
7	795	1855.021546461255	48
7	801	1863.415816226968	49
7	806	1881.021825344395	49
7	808	1885.846746368614	50
7	810	1890.499301310651	51
7	813	1894.733450351068	51
7	819	1918.63216097021	48
7	825	1924.188297980871	47
7	827	1925.319099956091	48
7	832	1929.585836893588	49
7	839	1945.324858033802	49
7	844	1949.102956681035	49
7	850	1970.195359007643	47
7	852	1972.073306983018	48
7	854	1977.296437415521	49
7	856	1978.336379637879	50
7	869	2000.645998769736	50
7	871	2001.533130344054	51
7	876	2007.995026094809	52
7	878	2024.603376485236	53
7	880	2024.950558315583	54
7	882	2033.437719429817	55
7	895	2063.036863365565	50
7	899	2073.037539468562	51
7	908	2098.626161585843	49
7	910	2101.652191291521	50
7	914	2104.722519624341	51
7	916	2114.300281212789	52
7	918	2123.595870604585	53
7	920	2126.480391705255	54
7	926	2131.138008777177	55
7	928	2145.312916017673	56
7	932	2155.265748692222	55
7	936	2159.739164724532	56
7	941	2170.178034647438	57
7	952	2202.388911678322	53
7	954	2203.205691311175	54
7	956	2203.524555641011	55
7	958	2210.289759920931	56
7	960	2212.79845897277	57
7	966	2247.549440949729	54
7	984	2280.676308392161	48
7	986	2285.947942009678	49
7	990	2293.178156133197	48
7	993	2298.063499787186	48
7	999	2331.409750970106	48
7	1001	2335.595798817299	49
7	1004	2337.869263900486	49
7	1007	2345.414111781883	49
7	1015	2367.882882518354	44
7	1017	2375.883843674064	45
7	1023	2396.56508061736	42
7	1026	2402.72537027751	42
7	1034	2418.608898796319	42
7	1036	2420.928476131934	43
7	1044	2440.516677299247	44
7	1046	2448.232179053637	45
7	1054	2489.019590075643	41
7	1058	2491.481527160442	42
8	170	437.655607876823	1
8	178	476.417763818169	1
8	190	505.157294903869	1
8	196	518.497244516544	1
8	198	524.0058841167	2
8	204	529.768904742497	1
8	227	580.600471402607	1
8	239	617.556769837513	1
8	242	627.787029116695	1
8	251	659.958738792625	1
8	257	677.472481062608	1
8	270	707.079421658916	1
8	283	727.849037380949	1
8	306	762.10861487089	1
8	308	766.064582611732	2
8	311	767.243145531648	2
8	314	772.710391185803	2
8	318	780.04016885003	3
8	321	781.156737009427	3
8	325	785.089428818756	4
8	329	791.300089263771	3
8	339	801.447574365974	4
8	350	828.207746898685	2
8	360	872.233908686601	1
8	382	897.458853731429	1
8	388	904.239175991417	2
8	395	908.062744141541	2
8	411	930.827557754315	1
8	415	936.983423856897	1
8	433	975.863125736149	1
8	454	1024.781438977254	1
8	460	1031.249239247124	1
8	469	1057.375757117136	1
8	476	1071.984350674741	1
8	484	1087.347407495617	2
8	490	1104.624125570428	1
8	501	1131.913251019904	1
8	506	1135.430596268884	1
8	514	1156.225977596079	1
8	522	1183.033137147023	1
8	524	1184.399680763421	2
8	534	1202.823700682684	3
8	551	1290.756257528264	1
8	553	1291.773124459133	2
8	559	1303.250290103507	1
8	562	1311.742924506421	1
8	564	1318.834994364708	2
8	570	1341.051374691128	1
8	573	1348.418308572707	1
8	581	1352.969785587635	1
8	593	1392.271716502791	1
8	595	1395.251755794326	2
8	612	1420.79883808038	2
8	622	1432.314240596926	3
8	624	1432.462336685495	4
8	631	1439.522554827319	4
8	635	1453.866869318157	5
8	684	1572.04492876378	1
8	693	1595.075952196652	1
8	708	1640.764755717333	1
8	714	1652.793029395307	1
8	725	1681.66743090527	1
8	745	1726.483585756461	1
8	749	1731.217903927377	2
8	755	1745.062392548567	3
8	764	1761.688329774283	3
8	786	1834.890265730179	1
8	797	1861.258659594882	1
8	799	1862.537144774147	2
8	823	1921.970189220149	1
8	830	1926.174871237724	1
8	836	1939.677308397534	1
8	842	1947.375216089019	1
8	859	1982.883816033365	1
8	861	1983.984816311616	2
8	864	1991.286837472051	2
8	867	1996.754152655681	2
8	873	2002.466128489888	3
8	891	2055.107241010381	1
8	897	2068.075372850136	1
8	901	2075.632832202764	2
8	912	2104.666754849128	1
8	923	2127.889419142281	1
8	934	2158.870692950259	1
8	939	2167.354006824154	1
8	947	2188.12599603428	1
8	970	2251.243384943465	1
8	975	2258.364926004097	1
8	980	2269.872364346719	1
8	995	2307.555450401146	1
8	1029	2408.063543574337	1
8	1031	2409.514620667025	2
8	1038	2424.407726500811	2
8	1040	2432.363775165864	3
8	1056	2490.842751616098	1
9	170	437.655607876823	10
9	178	476.417763818169	11
9	190	505.157294903869	12
9	196	518.497244516544	13
9	204	529.768904742497	14
9	227	580.600471402607	15
9	270	707.079421658916	16
9	283	727.849037380949	17
9	306	762.10861487089	18
9	360	872.233908686601	19
9	382	897.458853731429	20
9	411	930.827557754315	21
9	415	936.983423856897	22
9	433	975.863125736149	23
9	454	1024.781438977254	24
9	460	1031.249239247124	25
9	469	1057.375757117136	26
9	476	1071.984350674741	27
9	490	1104.624125570428	28
9	501	1131.913251019904	29
9	506	1135.430596268884	30
9	514	1156.225977596079	31
9	522	1183.033137147023	32
9	551	1290.756257528264	33
9	559	1303.250290103507	34
9	562	1311.742924506421	35
9	570	1341.051374691128	36
9	573	1348.418308572707	37
9	581	1352.969785587635	38
9	593	1392.271716502791	39
9	684	1572.04492876378	40
9	693	1595.075952196652	41
9	708	1640.764755717333	42
9	714	1652.793029395307	43
9	725	1681.66743090527	44
9	745	1726.483585756461	45
9	786	1834.890265730179	46
9	797	1861.258659594882	47
9	823	1921.970189220149	48
9	830	1926.174871237724	49
9	836	1939.677308397534	50
9	842	1947.375216089019	51
9	859	1982.883816033365	52
9	891	2055.107241010381	53
9	897	2068.075372850136	54
9	912	2104.666754849128	55
9	923	2127.889419142281	56
9	934	2158.870692950259	57
9	939	2167.354006824154	58
9	947	2188.12599603428	59
9	970	2251.243384943465	60
9	975	2258.364926004097	61
9	980	2269.872364346719	62
9	995	2307.555450401146	63
9	1029	2408.063543574337	64
9	1056	2490.842751616098	65
10	170	437.655607876823	0
10	178	476.417763818169	0
10	190	505.157294903869	0
10	196	518.497244516544	0
10	199	526.655724056329	2.649839939629
10	204	529.768904742497	0
10	227	580.600471402607	0
10	239	617.556769837513	0
10	242	627.787029116695	0
10	251	659.958738792625	0
10	257	677.472481062608	0
10	270	707.079421658916	0
10	283	727.849037380949	0
10	306	762.10861487089	0
10	309	766.476968032142	0.41238542041
10	312	768.516467533904	1.273322002256
10	319	780.714903710573	8.00451252477
10	326	788.459346680532	8.419177830502
10	327	791.09645590799	9.939718898563
10	340	802.498032932788	17.408604114032
10	343	805.139322119772	13.839232856001
10	344	808.33339717265	6.885822806676
10	351	840.063165194446	11.855418295761
10	360	872.233908686601	0
10	382	897.458853731429	0
10	389	905.489191089088	1.250015097671
10	396	910.107801359149	2.045057217608
10	411	930.827557754315	0
10	415	936.983423856897	0
10	433	975.863125736149	0
10	454	1024.781438977254	0
10	460	1031.249239247124	0
10	469	1057.375757117136	0
10	476	1071.984350674741	0
10	485	1096.020785080231	8.673377584614
10	490	1104.624125570428	0
10	501	1131.913251019904	0
10	506	1135.430596268884	0
10	514	1156.225977596079	0
10	522	1183.033137147023	0
10	537	1219.011678109553	34.611997346132
10	538	1220.913527617928	18.089826935244
10	551	1290.756257528264	0
10	556	1296.384878762265	4.611754303132
10	559	1303.250290103507	0
10	562	1311.742924506421	0
10	565	1320.761912468983	1.926918104275
10	570	1341.051374691128	0
10	573	1348.418308572707	0
10	581	1352.969785587635	0
10	593	1392.271716502791	0
10	606	1409.315250037989	14.063494243663
10	625	1435.211727180381	14.412889100001
10	636	1453.993499160686	21.67925856376
10	637	1465.800944179146	33.338607493651
10	638	1472.884447057592	33.361892230273
10	641	1475.072466266883	21.205596948726
10	684	1572.04492876378	0
10	693	1595.075952196652	0
10	708	1640.764755717333	0
10	714	1652.793029395307	0
10	725	1681.66743090527	0
10	745	1726.483585756461	0
10	758	1748.702706650456	17.484802723079
10	767	1773.684387104329	28.621994555762
10	768	1776.408567448565	14.720237674282
10	786	1834.890265730179	0
10	797	1861.258659594882	0
10	802	1866.528058580101	3.990913805954
10	823	1921.970189220149	0
10	830	1926.174871237724	0
10	836	1939.677308397534	0
10	842	1947.375216089019	0
10	859	1982.883816033365	0
10	862	1984.406101197694	0.421284886078
10	865	1995.455044816697	4.168207344646
10	874	2004.350670234359	7.596517578678
10	883	2033.441833009767	30.975704519879
10	891	2055.107241010381	0
10	897	2068.075372850136	0
10	902	2079.982876856313	4.350044653549
10	912	2104.666754849128	0
10	923	2127.889419142281	0
10	934	2158.870692950259	0
10	939	2167.354006824154	0
10	947	2188.12599603428	0
10	970	2251.243384943465	0
10	975	2258.364926004097	0
10	980	2269.872364346719	0
10	995	2307.555450401146	0
10	1029	2408.063543574337	0
10	1032	2413.998618125214	4.483997458189
10	1041	2432.87022944519	8.462502944379
10	1042	2437.686949454638	5.323174288774
10	1056	2490.842751616098	0
11	1059	2500	0.086
12	1059	2500	0.0436

