version 2
run experiments_hard_game_mode1-149-20230311-19:39:55-5307
attr configname experiments_hard_game_mode1
attr datetime 20230311-19:39:55
attr experiment experiments_hard_game_mode1
attr inifile omnetpp.ini
attr iterationvars "$0=7.5, $1=5, $2=0"
attr iterationvarsf 7.5,5,0-
attr measurement "$0=7.5, $1=5, $2=0"
attr network Network
attr processid 5307
attr repetition 29
attr replication #29
attr resultdir results
attr runnumber 149
attr seedset 29
param *.boss.arrival_mean 20
param *.boss.service_mean 7.5
param *.minion.arrival_mean 10
param *.minion.service_mean 5
param *.player.recover_rate_x 0
param **.minion.arrival_distribution 0
param **.minion.service_distribution 0
param **.boss.arrival_distribution 0
param **.boss.service_distribution 0

vector 0 Network.player minion_defeated_stat:vector ETV
attr source signal_minion_defeated
vector 1 Network.player minion_jobs_queue_number_stat:vector ETV
attr source signal_minion_jobs_queue_number
vector 2 Network.player minion_response_time_stat:vector ETV
attr source signal_minion_response_time
vector 3 Network.player minion_waiting_time_stat:vector ETV
attr source signal_minion_waiting_time
vector 4 Network.player boss_jobs_number_stat:vector ETV
attr source signal_boss_jobs_number
vector 5 Network.player boss_jobs_queue_number_stat:vector ETV
attr source signal_boss_jobs_queue_number
vector 6 Network.player minion_recovered_stat:vector ETV
attr source signal_minion_recovered
vector 7 Network.player boss_waiting_time_stat:vector ETV
attr source signal_boss_waiting_time
vector 8 Network.player boss_defeated_stat:vector ETV
attr source signal_boss_defeated
vector 9 Network.player boss_response_time_stat:vector ETV
attr source signal_boss_response_time
vector 10 Network.player minion_jobs_number_stat:vector ETV
attr source signal_minion_jobs_number
vector 11 Network.player minion_throughput:vector ETV
attr source signal_minion_throughput
vector 12 Network.player boss_throughput:vector ETV
attr source signal_boss_throughput
0	141	354.659342326442	30
0	145	364.246229120755	31
0	146	364.903269828903	32
0	147	371.47537729759	33
0	148	377.587395536377	34
0	159	393.171311070397	35
0	160	395.936217740608	36
0	161	397.590930246022	37
0	164	404.209591792104	38
0	165	408.591866959897	39
0	178	456.419731035972	40
0	179	456.558611494979	41
0	184	465.951920628126	42
0	185	466.105801136026	43
0	186	466.780075495799	44
0	189	494.943757194889	45
0	192	504.601594177815	46
0	204	550.058085598879	47
0	207	562.560571733551	48
0	210	572.645239946231	49
0	215	587.453547845825	50
0	233	634.096785107061	51
0	234	634.665258407638	52
0	245	652.340903498333	53
0	254	679.323953082276	54
0	262	693.37585929243	55
0	265	698.522357643902	56
0	266	705.076001291743	57
0	269	710.765320419509	58
0	270	711.026773245093	59
0	278	727.901277110738	60
0	279	728.463279833871	61
0	280	732.019172567511	62
0	281	742.220565020821	63
0	285	747.505794463678	64
0	289	763.256845694989	65
0	290	775.059093339242	66
0	291	776.015560983055	67
0	298	786.107069816408	68
0	301	790.062490965763	69
0	304	794.211653867196	70
0	314	800.304866665276	71
0	317	800.841225598964	72
0	320	802.658310161768	73
0	321	802.82403620089	74
0	322	804.388912489013	75
0	323	805.05690482599	76
0	326	812.041211769721	77
0	330	833.599875967335	78
0	333	839.86635198677	79
0	336	846.071656290872	80
0	339	851.163586489554	81
0	342	852.892118771264	82
0	345	858.095651562155	83
0	360	890.477297060067	84
0	381	912.544773942957	85
0	384	917.731224175825	86
0	400	958.784026950274	87
0	403	964.300165342347	88
0	404	967.145948498319	89
0	405	967.320502716882	90
0	408	973.240903352096	91
0	409	976.217024742128	92
0	412	978.220866684166	93
0	417	993.139886444073	94
0	420	1001.580283880695	95
0	423	1007.969072039335	96
0	432	1020.347062150999	97
0	435	1025.519871955923	98
0	436	1031.482195770863	99
0	446	1052.463958509378	100
0	449	1064.065398860379	101
0	450	1067.533709063525	102
0	455	1072.699056641331	103
0	458	1079.220992965216	104
0	459	1085.00004200029	105
0	462	1085.861095123098	106
0	465	1092.158674162133	107
0	466	1093.678600722629	108
0	467	1094.717139032618	109
0	472	1111.103796911869	110
0	475	1115.822923364563	111
0	476	1116.203569944224	112
0	481	1123.535991263364	113
0	507	1184.306133006045	114
0	508	1186.056493762691	115
0	511	1206.525547598888	116
0	512	1212.144126754011	117
0	513	1214.11261995217	118
0	514	1220.392096108464	119
0	517	1227.535102486852	120
0	521	1239.07748265003	121
0	524	1240.315172644516	122
0	527	1243.132157767469	123
0	528	1244.460913441644	124
0	531	1247.060162595844	125
0	534	1249.99580226661	126
0	540	1270.127750570022	127
0	589	1385.435655273628	128
0	596	1410.605147878036	129
0	599	1431.896262174146	130
0	606	1438.92297704909	131
0	609	1446.150542605169	132
0	615	1462.000339755007	133
0	618	1469.591762411796	134
0	619	1471.267039263348	135
0	620	1473.953783479763	136
0	621	1477.636085855909	137
0	622	1482.755978920433	138
0	623	1483.359945643794	139
0	626	1488.015231076971	140
0	627	1489.816165347847	141
0	628	1495.238931785803	142
0	629	1496.157009697287	143
0	632	1497.199409433665	144
0	633	1503.72516936118	145
0	634	1506.70153683317	146
0	635	1507.487512572369	147
0	636	1510.361019913139	148
0	639	1532.784477070737	149
0	642	1537.10114354912	150
0	648	1565.432239109133	151
0	651	1569.976166122531	152
0	666	1609.895771008433	153
0	673	1624.8219457187	154
0	684	1648.716786097821	155
0	685	1649.875288792171	156
0	691	1658.915681693352	157
0	692	1659.455628870838	158
0	698	1666.264310404645	159
0	701	1667.683054984913	160
0	706	1680.33943362118	161
0	709	1690.200915352938	162
0	712	1696.367559294014	163
0	713	1704.38741280665	164
0	714	1704.608766299878	165
0	717	1725.079326590205	166
0	720	1731.28329085777	167
0	732	1748.220803649438	168
0	744	1769.639745712849	169
0	745	1781.748520124132	170
0	748	1789.15960652811	171
0	749	1789.269249871637	172
0	750	1793.30766703882	173
0	751	1795.343674650366	174
0	761	1805.180630698093	175
0	771	1823.950762284133	176
0	774	1843.352540768638	177
0	778	1849.268237394494	178
0	779	1851.261767850855	179
0	780	1855.578495406463	180
0	787	1868.368293859981	181
0	799	1891.696402252073	182
0	815	1922.919874970609	183
0	818	1923.734536445966	184
0	819	1926.96794936769	185
0	820	1927.778492696238	186
0	821	1931.858175967897	187
0	824	1938.260507555842	188
0	825	1948.137620044556	189
0	826	1953.393949036888	190
0	844	1994.193639271186	191
0	852	2016.99989287394	192
0	853	2020.792298089079	193
0	854	2025.641803979196	194
0	870	2048.229809028938	195
0	871	2050.202703181558	196
0	872	2050.229330444406	197
0	880	2070.355266133094	198
0	881	2071.160723718165	199
0	885	2075.673765537191	200
0	886	2082.446035405415	201
0	887	2087.732399880652	202
0	888	2089.131455439593	203
0	889	2090.614194819448	204
0	890	2100.100157510284	205
0	893	2102.875893817382	206
0	894	2104.632051466747	207
0	897	2113.109677366673	208
0	900	2116.490948799329	209
0	903	2121.37589715757	210
0	909	2143.55380948988	211
0	912	2146.946989005017	212
0	928	2182.461862854577	213
0	929	2182.733148069871	214
0	933	2199.024438864601	215
0	939	2208.505004103965	216
0	948	2220.222502785586	217
0	960	2248.697846010296	218
0	963	2251.989341648827	219
0	964	2259.320683549122	220
0	965	2260.231526107594	221
0	966	2260.267459027127	222
0	969	2265.93274463536	223
0	984	2292.992816305632	224
0	1006	2317.884874376887	225
0	1007	2318.771105633917	226
0	1008	2319.955742015461	227
0	1009	2320.101298915108	228
0	1028	2358.731739266249	229
0	1029	2364.455397085897	230
0	1033	2386.893440123884	231
0	1036	2396.682065575339	232
0	1041	2414.887415282558	233
0	1046	2426.986373104112	234
0	1047	2427.40947334588	235
0	1057	2445.204951868537	236
0	1058	2446.067115306051	237
0	1059	2449.117968411194	238
0	1060	2451.640318432461	239
0	1070	2464.930144030538	240
0	1071	2468.217151036939	241
0	1072	2473.078451525257	242
0	1073	2480.778893410879	243
0	1074	2481.891796804059	244
1	141	354.659342326442	6
1	145	364.246229120755	5
1	146	364.903269828903	4
1	147	371.47537729759	3
1	148	377.587395536377	2
1	154	379.608095313354	2
1	157	385.157042033546	3
1	159	393.171311070397	3
1	160	395.936217740608	2
1	161	397.590930246022	1
1	163	399.228233649482	1
1	164	404.209591792104	1
1	165	408.591866959897	0
1	169	426.29441775287	0
1	173	443.660282730514	1
1	175	448.882770349587	2
1	178	456.419731035972	2
1	179	456.558611494979	1
1	181	458.137377426833	1
1	183	465.826518938555	2
1	184	465.951920628126	2
1	185	466.105801136026	1
1	186	466.780075495799	0
1	188	494.833255579592	0
1	189	494.943757194889	0
1	191	499.822669747212	0
1	192	504.601594177815	0
1	200	545.209727119979	0
1	204	550.058085598879	0
1	206	556.326563719439	0
1	207	562.560571733551	0
1	209	572.24175660314	0
1	210	572.645239946231	0
1	212	575.863779244195	0
1	214	577.881832968284	1
1	215	587.453547845825	1
1	224	618.606462312563	1
1	227	621.290089637664	2
1	229	624.589581645086	3
1	232	627.159808616859	4
1	233	634.096785107061	4
1	234	634.665258407638	3
1	236	636.156734196456	3
1	238	638.695588633048	4
1	240	639.503912377234	5
1	242	641.651605112762	6
1	244	648.446565023337	7
1	245	652.340903498333	7
1	249	656.54974981075	7
1	254	679.323953082276	7
1	256	679.39638457525	7
1	260	682.973119520857	8
1	262	693.37585929243	8
1	264	694.937514966378	8
1	265	698.522357643902	8
1	266	705.076001291743	7
1	268	709.632194269071	7
1	269	710.765320419509	7
1	270	711.026773245093	6
1	272	711.758812941697	6
1	274	714.745063282436	7
1	278	727.901277110738	7
1	279	728.463279833871	6
1	280	732.019172567511	5
1	281	742.220565020821	4
1	285	747.505794463678	3
1	289	763.256845694989	2
1	290	775.059093339242	1
1	291	776.015560983055	0
1	293	780.526003935068	0
1	295	782.044152913347	1
1	297	785.118702325468	2
1	298	786.107069816408	2
1	300	786.82893246052	2
1	301	790.062490965763	2
1	303	792.211735403243	2
1	304	794.211653867196	2
1	306	794.650893746256	2
1	308	796.164645718989	3
1	310	797.919207288304	4
1	314	800.304866665276	4
1	316	800.659176556938	4
1	317	800.841225598964	4
1	319	802.145561068497	4
1	320	802.658310161768	4
1	321	802.82403620089	3
1	322	804.388912489013	2
1	323	805.05690482599	1
1	325	811.00518497882	1
1	326	812.041211769721	1
1	330	833.599875967335	0
1	332	837.601350145641	0
1	333	839.86635198677	0
1	335	842.808892412795	0
1	336	846.071656290872	0
1	338	850.859225738186	0
1	339	851.163586489554	0
1	341	852.072682488855	0
1	342	852.892118771264	0
1	344	856.159958446072	0
1	345	858.095651562155	0
1	357	877.773073587536	0
1	360	890.477297060067	0
1	362	893.64717916577	0
1	366	896.443773630609	1
1	368	899.605850019362	2
1	373	906.490154822813	3
1	375	908.845874933179	4
1	377	909.068777480588	5
1	380	910.906698195825	6
1	381	912.544773942957	6
1	383	913.501120803603	6
1	384	917.731224175825	6
1	386	923.456570972861	6
1	396	953.896826670245	7
1	398	955.784633106749	8
1	400	958.784026950274	8
1	402	959.402928374506	8
1	403	964.300165342347	8
1	404	967.145948498319	7
1	405	967.320502716882	6
1	407	967.655498130466	6
1	408	973.240903352096	6
1	409	976.217024742128	5
1	411	977.727526974586	5
1	412	978.220866684166	5
1	414	986.483345419537	5
1	416	992.65484243738	6
1	417	993.139886444073	6
1	419	1000.462186581842	6
1	420	1001.580283880695	6
1	422	1006.176726943197	6
1	423	1007.969072039335	6
1	430	1017.427407056631	6
1	432	1020.347062150999	6
1	434	1023.333185885289	6
1	435	1025.519871955923	6
1	436	1031.482195770863	5
1	438	1035.575057615901	5
1	440	1036.397542892707	6
1	444	1042.071307097477	7
1	446	1052.463958509378	7
1	448	1053.311955600887	7
1	449	1064.065398860379	7
1	450	1067.533709063525	6
1	452	1068.628170045546	6
1	454	1068.7372523909	7
1	455	1072.699056641331	7
1	457	1076.558449330755	7
1	458	1079.220992965216	7
1	459	1085.00004200029	6
1	461	1085.269920578633	6
1	462	1085.861095123098	6
1	464	1090.503816550838	6
1	465	1092.158674162133	6
1	466	1093.678600722629	5
1	467	1094.717139032618	4
1	469	1108.756096424927	4
1	471	1109.014040151767	5
1	472	1111.103796911869	5
1	474	1111.825117276107	5
1	475	1115.822923364563	5
1	476	1116.203569944224	4
1	478	1117.188075728243	4
1	480	1118.573341036805	5
1	481	1123.535991263364	5
1	485	1130.12602680693	5
1	492	1145.944497366466	6
1	507	1184.306133006045	6
1	508	1186.056493762691	5
1	510	1191.074306916834	5
1	511	1206.525547598888	5
1	512	1212.144126754011	4
1	513	1214.11261995217	3
1	514	1220.392096108464	2
1	516	1224.317871195993	2
1	517	1227.535102486852	2
1	521	1239.07748265003	1
1	523	1239.415299962359	1
1	524	1240.315172644516	1
1	526	1241.319226478284	1
1	527	1243.132157767469	1
1	528	1244.460913441644	0
1	530	1246.698348383056	0
1	531	1247.060162595844	0
1	533	1249.075240055608	0
1	534	1249.99580226661	0
1	538	1262.228682128353	0
1	540	1270.127750570022	0
1	544	1281.456586332296	0
1	548	1285.868618464094	1
1	550	1287.995910071284	2
1	552	1290.105014442061	3
1	560	1297.064115025479	4
1	566	1309.251003332188	5
1	570	1322.970381474386	6
1	572	1327.054292896169	7
1	576	1337.426373481282	8
1	578	1339.570652825673	9
1	584	1353.57388117284	10
1	586	1354.516585092584	11
1	589	1385.435655273628	11
1	596	1410.605147878036	10
1	598	1421.845319537203	10
1	599	1431.896262174146	10
1	601	1433.077455864582	10
1	603	1434.570566934513	11
1	605	1436.700873309931	12
1	606	1438.92297704909	12
1	608	1444.299171092421	12
1	609	1446.150542605169	12
1	613	1451.583659890725	12
1	615	1462.000339755007	12
1	617	1462.140670769399	12
1	618	1469.591762411796	12
1	619	1471.267039263348	11
1	620	1473.953783479763	10
1	621	1477.636085855909	9
1	622	1482.755978920433	8
1	623	1483.359945643794	7
1	625	1486.551119297569	7
1	626	1488.015231076971	7
1	627	1489.816165347847	6
1	628	1495.238931785803	5
1	629	1496.157009697287	4
1	631	1496.223907441521	4
1	632	1497.199409433665	4
1	633	1503.72516936118	3
1	634	1506.70153683317	2
1	635	1507.487512572369	1
1	636	1510.361019913139	0
1	638	1523.68482419876	0
1	639	1532.784477070737	0
1	641	1535.830083928314	0
1	642	1537.10114354912	0
1	646	1552.15528015073	0
1	648	1565.432239109133	0
1	650	1569.113611818043	0
1	651	1569.976166122531	0
1	653	1574.59712260323	0
1	655	1577.783622414697	1
1	661	1588.000980001104	2
1	664	1592.596152355802	3
1	666	1609.895771008433	3
1	673	1624.8219457187	2
1	679	1636.55918818209	2
1	682	1640.641096239258	3
1	684	1648.716786097821	3
1	685	1649.875288792171	2
1	687	1650.918419052956	2
1	691	1658.915681693352	2
1	692	1659.455628870838	1
1	696	1663.785704815084	1
1	698	1666.264310404645	1
1	700	1667.004304150596	1
1	701	1667.683054984913	1
1	703	1674.644996918479	1
1	705	1675.406868188611	2
1	706	1680.33943362118	2
1	708	1683.621375205935	2
1	709	1690.200915352938	2
1	711	1691.870758945599	2
1	712	1696.367559294014	2
1	713	1704.38741280665	1
1	714	1704.608766299878	0
1	716	1720.321633944097	0
1	717	1725.079326590205	0
1	719	1728.242047121611	0
1	720	1731.28329085777	0
1	722	1733.304477625183	0
1	726	1736.123190533158	1
1	728	1736.909763431248	2
1	731	1745.044126709653	3
1	732	1748.220803649438	3
1	734	1748.564229081137	3
1	736	1749.269661046032	4
1	740	1753.344411509976	5
1	743	1768.415993221564	6
1	744	1769.639745712849	6
1	745	1781.748520124132	5
1	747	1784.209010264732	5
1	748	1789.15960652811	5
1	749	1789.269249871637	4
1	750	1793.30766703882	3
1	751	1795.343674650366	2
1	755	1800.178677377241	2
1	757	1800.95833616599	3
1	760	1802.963572909128	4
1	761	1805.180630698093	4
1	763	1808.674857293738	4
1	768	1823.070351810148	5
1	770	1823.916015992079	6
1	771	1823.950762284133	6
1	773	1834.242923632817	6
1	774	1843.352540768638	6
1	778	1849.268237394494	5
1	779	1851.261767850855	4
1	780	1855.578495406463	3
1	787	1868.368293859981	2
1	797	1884.674211425783	2
1	799	1891.696402252073	2
1	803	1897.934943306775	2
1	805	1899.021409378431	3
1	808	1908.271706007079	4
1	810	1911.895429355032	5
1	812	1914.724388814061	6
1	814	1919.490991222787	7
1	815	1922.919874970609	7
1	817	1923.241762418407	7
1	818	1923.734536445966	7
1	819	1926.96794936769	6
1	820	1927.778492696238	5
1	821	1931.858175967897	4
1	823	1936.92438258832	4
1	824	1938.260507555842	4
1	825	1948.137620044556	3
1	826	1953.393949036888	2
1	832	1961.501522926047	2
1	835	1965.216661545734	3
1	837	1976.143259682891	4
1	839	1977.106085114153	5
1	844	1994.193639271186	5
1	846	2002.049166686635	5
1	851	2014.824804974099	6
1	852	2016.99989287394	6
1	853	2020.792298089079	5
1	854	2025.641803979196	4
1	856	2026.435831902888	4
1	858	2026.746619278247	5
1	860	2034.2767880203	6
1	864	2040.832134308452	7
1	866	2041.731501973777	8
1	869	2044.394175563752	9
1	870	2048.229809028938	9
1	871	2050.202703181558	8
1	872	2050.229330444406	7
1	874	2057.540071414153	7
1	878	2064.678649429053	8
1	880	2070.355266133094	8
1	881	2071.160723718165	7
1	885	2075.673765537191	6
1	886	2082.446035405415	5
1	887	2087.732399880652	4
1	888	2089.131455439593	3
1	889	2090.614194819448	2
1	890	2100.100157510284	1
1	892	2100.643440090761	1
1	893	2102.875893817382	1
1	894	2104.632051466747	0
1	896	2109.735389103771	0
1	897	2113.109677366673	0
1	899	2114.55518655679	0
1	900	2116.490948799329	0
1	902	2119.70008837266	0
1	903	2121.37589715757	0
1	908	2141.252353958549	0
1	909	2143.55380948988	0
1	911	2145.214967111336	0
1	912	2146.946989005017	0
1	914	2156.225819555676	0
1	918	2162.801836191714	1
1	926	2176.399567796595	2
1	928	2182.461862854577	2
1	929	2182.733148069871	1
1	933	2199.024438864601	0
1	935	2206.400218154673	0
1	939	2208.505004103965	0
1	941	2212.910426022293	0
1	948	2220.222502785586	0
1	952	2223.822523938987	0
1	954	2229.518382743654	1
1	956	2237.356526885323	2
1	958	2242.16939733723	3
1	960	2248.697846010296	3
1	962	2249.811830180648	3
1	963	2251.989341648827	3
1	964	2259.320683549122	2
1	965	2260.231526107594	1
1	966	2260.267459027127	0
1	968	2260.677147560681	0
1	969	2265.93274463536	0
1	975	2276.381357349022	0
1	984	2292.992816305632	0
1	988	2299.593657816942	0
1	992	2305.917559909468	1
1	996	2308.049972561187	2
1	999	2311.300208667409	3
1	1001	2311.517313327987	4
1	1005	2317.103988873237	5
1	1006	2317.884874376887	5
1	1007	2318.771105633917	4
1	1008	2319.955742015461	3
1	1009	2320.101298915108	2
1	1011	2321.252529477898	2
1	1013	2324.894460081239	3
1	1026	2345.158710441866	4
1	1028	2358.731739266249	4
1	1029	2364.455397085897	3
1	1033	2386.893440123884	2
1	1035	2393.48451685585	2
1	1036	2396.682065575339	2
1	1038	2409.027012630994	2
1	1040	2414.534346640401	3
1	1041	2414.887415282558	3
1	1043	2418.902692042539	3
1	1045	2419.493416931437	4
1	1046	2426.986373104112	4
1	1047	2427.40947334588	3
1	1049	2432.165685310105	3
1	1053	2437.386547876681	4
1	1055	2439.315187646736	5
1	1057	2445.204951868537	5
1	1058	2446.067115306051	4
1	1059	2449.117968411194	3
1	1060	2451.640318432461	2
1	1065	2461.210077954654	2
1	1067	2463.600744450632	3
1	1069	2464.886615128397	4
1	1070	2464.930144030538	4
1	1071	2468.217151036939	3
1	1072	2473.078451525257	2
1	1073	2480.778893410879	1
1	1074	2481.891796804059	0
2	141	354.659342326442	45.150265433407
2	145	364.246229120755	50.393071940287
2	146	364.903269828903	42.597753998227
2	147	371.47537729759	45.635658250261
2	148	377.587395536377	46.93490372202
2	159	393.171311070397	32.149485521233
2	160	395.936217740608	17.945551920036
2	161	397.590930246022	17.982834932668
2	164	404.209591792104	19.052549758558
2	165	408.591866959897	9.363633310415
2	178	456.419731035972	30.125313283102
2	179	456.558611494979	12.898328764465
2	184	465.951920628126	17.069150278539
2	185	466.105801136026	7.968423709193
2	186	466.780075495799	0.953556557244
2	189	494.943757194889	0.110501615297
2	192	504.601594177815	4.778924430603
2	204	550.058085598879	4.684960513894
2	207	562.560571733551	6.234008014112
2	210	572.645239946231	0.403483343091
2	215	587.453547845825	11.58976860163
2	233	634.096785107061	44.740695672801
2	234	634.665258407638	16.058796095075
2	245	652.340903498333	31.050813860669
2	254	679.323953082276	52.164144465417
2	262	693.37585929243	54.680270659382
2	265	698.522357643902	59.018445266668
2	266	705.076001291743	63.424396178981
2	269	710.765320419509	62.318755396172
2	270	711.026773245093	58.364638243982
2	278	727.901277110738	48.504892535488
2	279	728.463279833871	46.475057750857
2	280	732.019172567511	49.046053046654
2	281	742.220565020821	47.283050054443
2	285	747.505794463678	35.746981521981
2	289	763.256845694989	40.647134577773
2	290	775.059093339242	32.690104121483
2	291	776.015560983055	24.903632216724
2	298	786.107069816408	5.58106588134
2	301	790.062490965763	8.018338052416
2	304	794.211653867196	9.092951541728
2	314	800.304866665276	8.093131262033
2	317	800.841225598964	6.190331852708
2	320	802.658310161768	6.493664442779
2	321	802.82403620089	4.904828912586
2	322	804.388912489013	4.756052479861
2	323	805.05690482599	4.397728269052
2	326	812.041211769721	9.895650701224
2	330	833.599875967335	18.746382256654
2	333	839.86635198677	2.265001841129
2	336	846.071656290872	3.262763878077
2	339	851.163586489554	0.304360751368
2	342	852.892118771264	0.819436282409
2	345	858.095651562155	1.935693116083
2	360	890.477297060067	12.704223472531
2	381	912.544773942957	16.254364318327
2	384	917.731224175825	21.287450545216
2	400	958.784026950274	49.938152017095
2	403	964.300165342347	55.231387861759
2	404	967.145948498319	56.239250302494
2	405	967.320502716882	53.819381913279
2	408	973.240903352096	49.784332379235
2	409	976.217024742128	51.726688988003
2	412	978.220866684166	33.784774385242
2	417	993.139886444073	39.243059773828
2	420	1001.580283880695	45.795650773946
2	423	1007.969072039335	48.566143664829
2	432	1020.347062150999	33.863716731462
2	435	1025.519871955923	32.865029518543
2	436	1031.482195770863	31.020009189021
2	446	1052.463958509378	40.691970089008
2	449	1064.065398860379	51.552752484473
2	450	1067.533709063525	50.106302006894
2	455	1072.699056641331	49.365870756042
2	458	1079.220992965216	43.645935349315
2	459	1085.00004200029	48.602499107583
2	462	1085.861095123098	47.489975817358
2	465	1092.158674162133	50.087367064656
2	466	1093.678600722629	40.366645121742
2	467	1094.717139032618	26.088968987072
2	472	1111.103796911869	42.366544520969
2	475	1115.822923364563	39.264474033808
2	476	1116.203569944224	30.933649365591
2	481	1123.535991263364	33.032174712526
2	507	1184.306133006045	75.292092854278
2	508	1186.056493762691	74.231376486584
2	511	1206.525547598888	89.337471870645
2	512	1212.144126754011	93.570785717206
2	513	1214.11261995217	89.425470956561
2	514	1220.392096108464	90.266069301534
2	517	1227.535102486852	81.590605120386
2	521	1239.07748265003	14.759611454037
2	524	1240.315172644516	9.955333932513
2	527	1243.132157767469	3.71685780511
2	528	1244.460913441644	3.14168696336
2	531	1247.060162595844	0.361814212788
2	534	1249.99580226661	0.920562211002
2	540	1270.127750570022	7.899068441669
2	589	1385.435655273628	103.97906894133
2	596	1410.605147878036	120.50013343598
2	599	1431.896262174146	134.83214714867
2	606	1438.92297704909	129.6719737169
2	609	1446.150542605169	123.18016113078
2	615	1462.000339755007	124.57396627372
2	618	1469.591762411796	130.02110958612
2	619	1471.267039263348	117.69315809051
2	620	1473.953783479763	119.43719838718
2	621	1477.636085855909	88.850056765025
2	622	1482.755978920433	82.656339762271
2	623	1483.359945643794	61.514626106591
2	626	1488.015231076971	54.937775212389
2	627	1489.816165347847	55.245598413334
2	628	1495.238931785803	58.538058475872
2	629	1496.157009697287	51.857838604866
2	632	1497.199409433665	48.730449608216
2	633	1503.72516936118	52.141509470455
2	634	1506.70153683317	44.560866063771
2	635	1507.487512572369	20.9363932748
2	636	1510.361019913139	14.137112471618
2	639	1532.784477070737	9.099652871977
2	642	1537.10114354912	1.271059620806
2	648	1565.432239109133	13.276958958403
2	651	1569.976166122531	0.862554304488
2	666	1609.895771008433	32.112148593736
2	673	1624.8219457187	36.820965717596
2	684	1648.716786097821	35.09059634933
2	685	1649.875288792171	20.886703842292
2	691	1658.915681693352	18.274585454094
2	692	1659.455628870838	8.537209817882
2	698	1666.264310404645	2.738412627801
2	701	1667.683054984913	3.897350169829
2	706	1680.33943362118	13.335129470584
2	709	1690.200915352938	15.555918434459
2	712	1696.367559294014	20.960691105403
2	713	1704.38741280665	20.766037600715
2	714	1704.608766299878	12.738007354279
2	717	1725.079326590205	4.757692646108
2	720	1731.28329085777	3.041243736159
2	732	1748.220803649438	14.143563120632
2	744	1769.639745712849	32.729982281601
2	745	1781.748520124132	36.704393414479
2	748	1789.15960652811	40.595377446973
2	749	1789.269249871637	39.999588825605
2	750	1793.30766703882	43.869684444392
2	751	1795.343674650366	41.99926314039
2	761	1805.180630698093	20.971620433361
2	771	1823.950762284133	23.772084906892
2	774	1843.352540768638	42.394204602648
2	778	1849.268237394494	40.593380100756
2	779	1851.261767850855	32.766900995353
2	780	1855.578495406463	32.508143596315
2	787	1868.368293859981	23.922316568786
2	799	1891.696402252073	26.43331165469
2	815	1922.919874970609	38.245663544826
2	818	1923.734536445966	29.159767981682
2	819	1926.96794936769	29.033006060915
2	820	1927.778492696238	28.757083317807
2	821	1931.858175967897	23.586469960818
2	824	1938.260507555842	26.36507820081
2	825	1948.137620044556	33.413231230495
2	826	1953.393949036888	33.902957814101
2	844	1994.193639271186	57.269256682866
2	852	2016.99989287394	55.498369947893
2	853	2020.792298089079	55.575636543345
2	854	2025.641803979196	49.498544296305
2	870	2048.229809028938	46.180642342303
2	871	2050.202703181558	41.503904307212
2	872	2050.229330444406	35.404525470307
2	880	2070.355266133094	43.608646854847
2	881	2071.160723718165	36.883935697865
2	885	2075.673765537191	34.841631228739
2	886	2082.446035405415	40.714533431638
2	887	2087.732399880652	43.3382243169
2	888	2089.131455439593	31.59138402544
2	889	2090.614194819448	29.852215116459
2	890	2100.100157510284	35.421508081231
2	893	2102.875893817382	30.435954745472
2	894	2104.632051466747	3.988611375986
2	897	2113.109677366673	3.374288262902
2	900	2116.490948799329	1.935762242539
2	903	2121.37589715757	1.67580878491
2	909	2143.55380948988	2.301455531331
2	912	2146.946989005017	1.732021893681
2	928	2182.461862854577	20.681044700063
2	929	2182.733148069871	19.931311878157
2	933	2199.024438864601	14.555320842745
2	939	2208.505004103965	1.82733846367
2	948	2220.222502785586	3.219933342827
2	960	2248.697846010296	24.875322071309
2	963	2251.989341648827	22.470958905173
2	964	2259.320683549122	21.964156663799
2	965	2260.231526107594	18.062128770364
2	966	2260.267459027127	10.455628846479
2	969	2265.93274463536	5.255597074679
2	984	2292.992816305632	7.799161801993
2	1006	2317.884874376887	18.291216559945
2	1007	2318.771105633917	12.853545724449
2	1008	2319.955742015461	11.905769454274
2	1009	2320.101298915108	8.801090247699
2	1028	2358.731739266249	41.627750393012
2	1029	2364.455397085897	43.202867607999
2	1033	2386.893440123884	57.998054503529
2	1036	2396.682065575339	51.523355133473
2	1041	2414.887415282558	47.63206002694
2	1046	2426.986373104112	33.501856248262
2	1047	2427.40947334588	18.382460714886
2	1057	2445.204951868537	26.302259825998
2	1058	2446.067115306051	26.573698374614
2	1059	2449.117968411194	16.952283101089
2	1060	2451.640318432461	15.238375537493
2	1070	2464.930144030538	25.614956383802
2	1071	2468.217151036939	12.463435814099
2	1072	2473.078451525257	11.868373570603
2	1073	2480.778893410879	17.178148960247
2	1074	2481.891796804059	17.005181675662
3	141	354.659342326442	41.421963094931
3	144	363.428380091388	49.57522291092
3	145	364.246229120755	41.940713290079
3	146	364.903269828903	39.063550781574
3	147	371.47537729759	40.822885483233
3	148	377.587395536377	46.073698070737
3	158	385.966253748444	24.94442819928
3	159	393.171311070397	15.180645249825
3	160	395.936217740608	16.328122427254
3	161	397.590930246022	12.433888212476
3	164	404.209591792104	4.981358142622
3	177	456.222890461734	29.928472708864
3	178	456.419731035972	12.759448305458
3	179	456.558611494979	7.675841145392
3	184	465.951920628126	7.814543201293
3	185	466.105801136026	0.279282197471
3	188	494.833255579592	0
3	191	499.822669747212	0
3	200	545.209727119979	0
3	203	546.349781612749	0.976656527764
3	206	556.326563719439	0
3	209	572.24175660314	0
3	212	575.863779244195	0
3	215	587.453547845825	9.571714877541
3	230	625.108927700392	35.752838266132
3	233	634.096785107061	15.490322794498
3	234	634.665258407638	13.375168769974
3	245	652.340903498333	27.751321853247
3	253	670.48488248371	43.325073866851
3	254	679.323953082276	43.16721888582
3	261	685.645408837783	46.949820204735
3	262	693.37585929243	53.871946915196
3	265	698.522357643902	56.87075253114
3	266	705.076001291743	56.629436268406
3	269	710.765320419509	58.103185418398
3	270	711.026773245093	54.477023434343
3	277	723.893358939347	44.496974364097
3	278	727.901277110738	45.913055027724
3	279	728.463279833871	45.490160313014
3	280	732.019172567511	37.081657601133
3	281	742.220565020821	32.58837075175
3	284	745.345131324382	33.586318382685
3	285	747.505794463678	32.760731181242
3	288	754.350334596412	31.740623479196
3	289	763.256845694989	20.88785647723
3	290	775.059093339242	23.947164572911
3	293	780.526003935068	0
3	298	786.107069816408	4.062916903061
3	301	790.062490965763	4.943788640295
3	304	794.211653867196	7.382721406676
3	313	799.965194416893	7.75345901365
3	314	800.304866665276	5.65397291902
3	317	800.841225598964	4.676579879975
3	320	802.658310161768	4.739102873464
3	321	802.82403620089	3.191176191738
3	322	804.388912489013	3.729735932075
3	323	805.05690482599	2.911343757493
3	326	812.041211769721	1.036026790901
3	329	830.764854643187	15.911360932506
3	332	837.601350145641	0
3	335	842.808892412795	0
3	338	850.859225738186	0
3	341	852.072682488855	0
3	344	856.159958446072	0
3	359	889.791961338903	12.018887751367
3	362	893.64717916577	0
3	378	909.246240747242	12.955831122612
3	381	912.544773942957	16.101000312348
3	384	917.731224175825	18.125374156463
3	389	933.959604348933	27.46944952612
3	399	958.417038436586	49.571163503407
3	400	958.784026950274	49.715249469686
3	403	964.300165342347	53.393467146522
3	404	967.145948498319	53.644827694716
3	405	967.320502716882	43.863931744021
3	408	973.240903352096	48.750567597971
3	409	976.217024742128	31.780932443204
3	412	978.220866684166	24.324040013921
3	417	993.139886444073	37.355253337324
3	420	1001.580283880695	42.177355506189
3	423	1007.969072039335	40.313573908869
3	426	1012.110186622474	34.382659647888
3	431	1019.365570128123	32.882224708586
3	432	1020.347062150999	27.692219713619
3	435	1025.519871955923	25.057685374081
3	436	1031.482195770863	25.305468827666
3	445	1046.740395178333	34.968406757963
3	446	1052.463958509378	39.951312133472
3	449	1064.065398860379	46.637991803748
3	450	1067.533709063525	44.200523178236
3	455	1072.699056641331	37.12399902543
3	458	1079.220992965216	42.823450072509
3	459	1085.00004200029	46.62892269455
3	462	1085.861095123098	43.789788025621
3	465	1092.158674162133	38.846718561246
3	466	1093.678600722629	25.050430677083
3	467	1094.717139032618	25.979886641718
3	472	1111.103796911869	34.545347581114
3	475	1115.822923364563	30.55300278593
3	476	1116.203569944224	25.699753393386
3	481	1123.535991263364	14.779894838437
3	506	1183.105476785641	74.091436633874
3	507	1184.306133006045	72.481015729938
3	508	1186.056493762691	68.868418034448
3	511	1206.525547598888	87.952206562083
3	512	1212.144126754011	87.456977758402
3	513	1214.11261995217	83.98659314524
3	514	1220.392096108464	74.447598741998
3	517	1227.535102486852	36.460795570018
3	520	1231.519364449137	7.201493253144
3	521	1239.07748265003	8.717643938027
3	524	1240.315172644516	0.899872682157
3	527	1243.132157767469	1.812931289185
3	530	1246.698348383056	0
3	533	1249.075240055608	0
3	539	1264.242982894153	2.0143007658
3	588	1381.443638494297	99.987052162001
3	589	1385.435655273628	99.567036809534
3	592	1390.829515230374	102.83360515909
3	595	1402.62842829961	112.52341385755
3	596	1410.605147878036	113.54103285256
3	599	1431.896262174146	122.64525884196
3	606	1438.92297704909	115.9525955747
3	609	1446.150542605169	119.096249709
3	614	1460.406884764992	122.98051128371
3	615	1462.000339755007	122.42968692933
3	618	1469.591762411796	116.01788123896
3	619	1471.267039263348	116.75045417076
3	620	1473.953783479763	85.167754388879
3	621	1477.636085855909	77.536446697747
3	622	1482.755978920433	60.91065938323
3	623	1483.359945643794	50.282489779212
3	626	1488.015231076971	53.444664142458
3	627	1489.816165347847	53.115292037916
3	628	1495.238931785803	50.939760693382
3	629	1496.157009697287	47.688049871838
3	632	1497.199409433665	45.61574954294
3	633	1503.72516936118	41.584498591781
3	634	1506.70153683317	20.150417535601
3	635	1507.487512572369	11.263605130848
3	638	1523.68482419876	0
3	641	1535.830083928314	0
3	647	1562.082082011916	9.926801861186
3	650	1569.113611818043	0
3	653	1574.59712260323	0
3	665	1601.432410430449	23.648788015752
3	666	1609.895771008433	26.569887082885
3	672	1622.159198158331	34.158218157227
3	673	1624.8219457187	32.225793362898
3	683	1642.232974831728	28.606785083237
3	684	1648.716786097821	19.728201147942
3	685	1649.875288792171	13.316100610081
3	690	1656.155542868696	15.514446629438
3	691	1658.915681693352	7.997262640396
3	692	1659.455628870838	5.230535042733
3	697	1666.256571207715	2.730673430871
3	698	1666.264310404645	2.478605589561
3	701	1667.683054984913	0.678750834317
3	706	1680.33943362118	5.694436702701
3	709	1690.200915352938	14.794047164327
3	712	1696.367559294014	12.746184088079
3	713	1704.38741280665	12.516653861051
3	716	1720.321633944097	0
3	719	1728.242047121611	0
3	722	1733.304477625183	0
3	729	1744.355157219575	10.277916690769
3	732	1748.220803649438	12.09761311628
3	741	1760.382610819985	23.472847388737
3	744	1769.639745712849	24.595619003196
3	745	1781.748520124132	33.184291042995
3	748	1789.15960652811	39.889945482078
3	749	1789.269249871637	39.831267277209
3	750	1793.30766703882	39.963255528844
3	751	1795.343674650366	26.927681428802
3	758	1802.524858744557	18.315848479825
3	761	1805.180630698093	5.774707296153
3	766	1819.104300114631	18.92562273739
3	771	1823.950762284133	22.992426118143
3	774	1843.352540768638	40.38896785951
3	777	1845.245583666735	36.570726372997
3	778	1849.268237394494	30.773370538992
3	779	1851.261767850855	28.191416040707
3	780	1855.578495406463	31.662479414384
3	783	1862.365971728918	28.123048096101
3	786	1865.73754649701	21.291569205815
3	787	1868.368293859981	11.198342621268
3	798	1887.989499628837	22.726409031454
3	799	1891.696402252073	20.804119630703
3	806	1903.500296281035	18.826084855252
3	815	1922.919874970609	28.345106506325
3	818	1923.734536445966	25.799593139191
3	819	1926.96794936769	27.946539989259
3	820	1927.778492696238	19.506786689159
3	821	1931.858175967897	19.962746612865
3	824	1938.260507555842	23.536118741781
3	825	1948.137620044556	28.646628821769
3	826	1953.393949036888	30.152186618481
3	843	1988.308839403281	51.384456814961
3	844	1994.193639271186	37.923768043283
3	849	2013.564955245262	52.063432319215
3	852	2016.99989287394	51.783231328206
3	853	2020.792298089079	44.649038406188
3	854	2025.641803979196	48.535718865043
3	867	2043.499520512042	41.450353825407
3	870	2048.229809028938	39.531010154592
3	871	2050.202703181558	35.377898207459
3	872	2050.229330444406	23.793498541518
3	879	2069.59158058318	42.844961304933
3	880	2070.355266133094	36.078478112794
3	881	2071.160723718165	30.823575853586
3	884	2074.5930536897	33.760919381248
3	885	2075.673765537191	33.942263563414
3	886	2082.446035405415	38.051859841663
3	887	2087.732399880652	30.192328466499
3	888	2089.131455439593	28.369475736604
3	889	2090.614194819448	25.935545390395
3	890	2100.100157510284	27.660218438374
3	893	2102.875893817382	2.232453726621
3	896	2109.735389103771	0
3	899	2114.55518655679	0
3	902	2119.70008837266	0
3	908	2141.252353958549	0
3	911	2145.214967111336	0
3	914	2156.225819555676	0
3	927	2179.842348373591	18.061530219077
3	928	2182.461862854577	19.660026662863
3	929	2182.733148069871	6.333580273276
3	932	2189.25033397384	4.781215951984
3	935	2206.400218154673	0
3	938	2208.435357429784	1.757691789489
3	941	2212.910426022293	0
3	944	2216.860503891997	3.586165918752
3	947	2217.981824189026	0.979254746267
3	959	2247.934312722687	24.1117887837
3	960	2248.697846010296	19.179463266642
3	963	2251.989341648827	14.632814763504
3	964	2259.320683549122	17.151286211892
3	965	2260.231526107594	10.419695926946
3	968	2260.677147560681	0
3	977	2280.319126918691	3.937769569669
3	980	2281.51589133903	0.856024264692
3	983	2291.281619938159	6.08796543452
3	1003	2314.732702937323	15.139045120381
3	1006	2317.884874376887	11.967314467419
3	1007	2318.771105633917	10.72113307273
3	1008	2319.955742015461	8.655533348052
3	1009	2320.101298915108	8.583985587121
3	1027	2353.931797167166	36.827808293929
3	1028	2358.731739266249	37.479209788351
3	1029	2364.455397085897	39.560937004658
3	1032	2371.112041600272	42.216655979917
3	1033	2386.893440123884	41.734729682018
3	1036	2396.682065575339	29.426710319721
3	1041	2414.887415282558	21.402898426708
3	1046	2426.986373104112	17.959360473118
3	1047	2427.40947334588	12.875126705479
3	1056	2442.04882252828	23.146130485741
3	1057	2445.204951868537	25.7115349371
3	1058	2446.067115306051	13.901429995946
3	1059	2449.117968411194	12.716025516226
3	1060	2451.640318432461	14.25377055578
3	1063	2456.144012263149	16.828824616413
3	1070	2464.930144030538	9.176428807698
3	1071	2468.217151036939	7.007073082285
3	1072	2473.078451525257	9.477707074625
3	1073	2480.778893410879	15.892278282482
4	143	361.021825549164	1
4	150	377.990665820572	1
4	152	378.253915431294	2
4	167	422.009642860919	1
4	171	440.507768153143	2
4	194	523.73951392862	1
4	197	530.555131859566	1
4	202	545.373125084985	1
4	217	589.35608943426	1
4	219	610.291214639623	2
4	222	615.800908427453	2
4	247	652.662135001111	1
4	251	662.997675276741	2
4	258	681.988222083014	1
4	276	722.609711117216	1
4	283	742.368989217759	1
4	287	751.111928766331	1
4	312	799.632860009152	1
4	328	814.853493710681	1
4	347	860.107364097815	1
4	350	863.381446274853	1
4	353	873.232163967375	1
4	355	875.141813991404	2
4	364	896.29040962463	1
4	370	900.777193276199	2
4	388	924.490335754125	1
4	391	944.436092298924	1
4	393	951.47929612701	2
4	425	1011.77198842037	1
4	428	1012.512646375906	1
4	442	1038.37111930574	1
4	483	1124.687148995609	1
4	487	1134.14472775205	2
4	489	1136.014676504768	3
4	495	1150.696087075246	2
4	498	1163.995141988292	2
4	500	1164.834707420463	3
4	503	1175.182035494463	3
4	519	1230.359838712003	1
4	536	1257.761287405401	1
4	542	1277.139323562446	1
4	546	1284.576761460268	2
4	554	1290.546818596825	3
4	556	1290.626256761703	4
4	558	1295.97049487972	5
4	562	1303.980580883593	6
4	568	1309.463716143574	5
4	581	1347.514072646773	3
4	591	1388.786029090884	1
4	594	1400.099639158162	1
4	611	1448.468959825449	1
4	644	1540.065042446857	1
4	657	1583.325883925548	1
4	659	1586.275170027452	2
4	668	1613.626189748491	1
4	670	1614.26675634966	2
4	675	1628.988584949879	1
4	677	1633.042512394715	2
4	689	1654.225093828105	1
4	694	1663.525897776844	1
4	724	1734.077240528806	1
4	738	1749.437982594428	1
4	753	1799.40592340194	1
4	765	1818.494866855502	1
4	776	1844.445977291195	1
4	782	1857.169951238713	1
4	785	1865.263090597383	1
4	789	1870.89228262137	1
4	791	1874.166523009959	2
4	794	1875.969531453931	2
4	801	1894.574768464284	1
4	828	1956.269871227903	1
4	830	1958.634551972986	2
4	841	1983.36840924784	2
4	848	2008.698798874346	1
4	862	2040.337147864579	1
4	876	2060.761979702989	1
4	883	2072.43993907191	1
4	905	2125.454313612626	1
4	916	2161.780818154514	1
4	920	2164.572453140033	2
4	922	2165.34997202045	3
4	931	2184.469118021856	1
4	937	2206.677665640295	1
4	943	2213.274337973245	1
4	946	2217.002569442759	1
4	950	2221.137838314775	1
4	971	2272.148163070228	1
4	973	2275.806883192869	2
4	979	2280.659867074338	1
4	982	2285.193654503639	1
4	986	2296.706842502531	1
4	990	2299.904511665169	2
4	994	2307.946249155461	3
4	1015	2328.895385620355	1
4	1017	2339.416810040685	2
4	1019	2339.425908011321	3
4	1022	2342.523346328393	3
4	1031	2367.255355255618	1
4	1051	2436.401942894968	1
4	1062	2455.75371522284	1
5	143	361.021825549164	0
5	144	363.428380091388	0
5	150	377.990665820572	0
5	152	378.253915431294	1
5	155	382.075944824799	1
5	158	385.966253748444	0
5	167	422.009642860919	0
5	171	440.507768153143	1
5	176	454.616254440765	1
5	177	456.222890461734	0
5	194	523.73951392862	0
5	195	524.449457429552	0
5	197	530.555131859566	0
5	198	532.841469300075	0
5	202	545.373125084985	0
5	203	546.349781612749	0
5	217	589.35608943426	0
5	219	610.291214639623	1
5	220	614.452586666556	1
5	222	615.800908427453	1
5	225	620.272246126578	1
5	230	625.108927700392	0
5	247	652.662135001111	0
5	251	662.997675276741	1
5	252	664.472898186955	1
5	253	670.48488248371	0
5	258	681.988222083014	0
5	261	685.645408837783	0
5	276	722.609711117216	0
5	277	723.893358939347	0
5	283	742.368989217759	0
5	284	745.345131324382	0
5	287	751.111928766331	0
5	288	754.350334596412	0
5	312	799.632860009152	0
5	313	799.965194416893	0
5	328	814.853493710681	0
5	329	830.764854643187	0
5	347	860.107364097815	0
5	348	863.207518604803	0
5	350	863.381446274853	0
5	351	868.178796501263	0
5	353	873.232163967375	0
5	355	875.141813991404	1
5	358	879.107903420171	1
5	359	889.791961338903	0
5	364	896.29040962463	0
5	370	900.777193276199	1
5	371	902.326630756692	1
5	378	909.246240747242	0
5	388	924.490335754125	0
5	389	933.959604348933	0
5	391	944.436092298924	0
5	393	951.47929612701	1
5	394	952.187309650594	1
5	399	958.417038436586	0
5	425	1011.77198842037	0
5	426	1012.110186622474	0
5	428	1012.512646375906	0
5	431	1019.365570128123	0
5	442	1038.37111930574	0
5	445	1046.740395178333	0
5	483	1124.687148995609	0
5	487	1134.14472775205	1
5	489	1136.014676504768	2
5	490	1136.310648626133	2
5	493	1148.131585165124	1
5	495	1150.696087075246	1
5	496	1163.10313429164	1
5	498	1163.995141988292	1
5	500	1164.834707420463	2
5	501	1166.895886459264	2
5	503	1175.182035494463	2
5	504	1179.152015303327	2
5	505	1180.804431823321	1
5	506	1183.105476785641	0
5	519	1230.359838712003	0
5	520	1231.519364449137	0
5	536	1257.761287405401	0
5	539	1264.242982894153	0
5	542	1277.139323562446	0
5	546	1284.576761460268	1
5	554	1290.546818596825	2
5	556	1290.626256761703	3
5	558	1295.97049487972	4
5	562	1303.980580883593	5
5	563	1305.489556262951	5
5	564	1306.584921142533	4
5	568	1309.463716143574	4
5	573	1329.154083265036	4
5	574	1335.574139696859	3
5	579	1347.507423675709	2
5	581	1347.514072646773	2
5	582	1347.834780011086	2
5	587	1368.833624828298	1
5	588	1381.443638494297	0
5	591	1388.786029090884	0
5	592	1390.829515230374	0
5	594	1400.099639158162	0
5	595	1402.62842829961	0
5	611	1448.468959825449	0
5	614	1460.406884764992	0
5	644	1540.065042446857	0
5	647	1562.082082011916	0
5	657	1583.325883925548	0
5	659	1586.275170027452	1
5	662	1588.319098250521	1
5	665	1601.432410430449	0
5	668	1613.626189748491	0
5	670	1614.26675634966	1
5	671	1621.835443834908	1
5	672	1622.159198158331	0
5	675	1628.988584949879	0
5	677	1633.042512394715	1
5	680	1638.469326675055	1
5	683	1642.232974831728	0
5	689	1654.225093828105	0
5	690	1656.155542868696	0
5	694	1663.525897776844	0
5	697	1666.256571207715	0
5	724	1734.077240528806	0
5	729	1744.355157219575	0
5	738	1749.437982594428	0
5	741	1760.382610819985	0
5	753	1799.40592340194	0
5	758	1802.524858744557	0
5	765	1818.494866855502	0
5	766	1819.104300114631	0
5	776	1844.445977291195	0
5	777	1845.245583666735	0
5	782	1857.169951238713	0
5	783	1862.365971728918	0
5	785	1865.263090597383	0
5	786	1865.73754649701	0
5	789	1870.89228262137	0
5	791	1874.166523009959	1
5	792	1874.92533651652	1
5	794	1875.969531453931	1
5	795	1878.533448601449	1
5	798	1887.989499628837	0
5	801	1894.574768464284	0
5	806	1903.500296281035	0
5	828	1956.269871227903	0
5	830	1958.634551972986	1
5	833	1964.214023531632	1
5	841	1983.36840924784	1
5	842	1985.235954955451	1
5	843	1988.308839403281	0
5	848	2008.698798874346	0
5	849	2013.564955245262	0
5	862	2040.337147864579	0
5	867	2043.499520512042	0
5	876	2060.761979702989	0
5	879	2069.59158058318	0
5	883	2072.43993907191	0
5	884	2074.5930536897	0
5	905	2125.454313612626	0
5	906	2137.520859073966	0
5	916	2161.780818154514	0
5	920	2164.572453140033	1
5	922	2165.34997202045	2
5	923	2167.531265933456	2
5	924	2172.375626664718	1
5	927	2179.842348373591	0
5	931	2184.469118021856	0
5	932	2189.25033397384	0
5	937	2206.677665640295	0
5	938	2208.435357429784	0
5	943	2213.274337973245	0
5	944	2216.860503891997	0
5	946	2217.002569442759	0
5	947	2217.981824189026	0
5	950	2221.137838314775	0
5	959	2247.934312722687	0
5	971	2272.148163070228	0
5	973	2275.806883192869	1
5	976	2277.638493766218	1
5	977	2280.319126918691	0
5	979	2280.659867074338	0
5	980	2281.51589133903	0
5	982	2285.193654503639	0
5	983	2291.281619938159	0
5	986	2296.706842502531	0
5	990	2299.904511665169	1
5	994	2307.946249155461	2
5	997	2311.125341577691	2
5	1002	2313.991493260448	1
5	1003	2314.732702937323	0
5	1015	2328.895385620355	0
5	1017	2339.416810040685	1
5	1019	2339.425908011321	2
5	1020	2340.883159541109	2
5	1022	2342.523346328393	2
5	1023	2342.948918818942	2
5	1024	2343.251507851845	1
5	1027	2353.931797167166	0
5	1031	2367.255355255618	0
5	1032	2371.112041600272	0
5	1051	2436.401942894968	0
5	1056	2442.04882252828	0
5	1062	2455.75371522284	0
5	1063	2456.144012263149	0
6	143	361.021825549164	5
6	150	377.990665820572	6
6	202	545.373125084985	7
6	217	589.35608943426	8
6	247	652.662135001111	9
6	258	681.988222083014	10
6	276	722.609711117216	11
6	283	742.368989217759	12
6	287	751.111928766331	13
6	312	799.632860009152	14
6	328	814.853493710681	15
6	364	896.29040962463	16
6	388	924.490335754125	17
6	391	944.436092298924	18
6	425	1011.77198842037	19
6	428	1012.512646375906	20
6	442	1038.37111930574	21
6	483	1124.687148995609	22
6	519	1230.359838712003	23
6	591	1388.786029090884	24
6	594	1400.099639158162	25
6	611	1448.468959825449	26
6	657	1583.325883925548	27
6	668	1613.626189748491	28
6	675	1628.988584949879	29
6	689	1654.225093828105	30
6	694	1663.525897776844	31
6	724	1734.077240528806	32
6	738	1749.437982594428	33
6	753	1799.40592340194	34
6	765	1818.494866855502	35
6	776	1844.445977291195	36
6	782	1857.169951238713	37
6	785	1865.263090597383	38
6	789	1870.89228262137	39
6	801	1894.574768464284	40
6	828	1956.269871227903	41
6	848	2008.698798874346	42
6	862	2040.337147864579	43
6	876	2060.761979702989	44
6	883	2072.43993907191	45
6	916	2161.780818154514	46
6	931	2184.469118021856	47
6	937	2206.677665640295	48
6	943	2213.274337973245	49
6	946	2217.002569442759	50
6	979	2280.659867074338	51
6	982	2285.193654503639	52
6	1015	2328.895385620355	53
6	1031	2367.255355255618	54
6	1051	2436.401942894968	55
6	1062	2455.75371522284	56
7	143	361.021825549164	0
7	150	377.990665820572	0
7	155	382.075944824799	3.822029393505
7	167	422.009642860919	0
7	176	454.616254440765	14.108486287622
7	194	523.73951392862	0
7	197	530.555131859566	0
7	202	545.373125084985	0
7	217	589.35608943426	0
7	220	614.452586666556	4.161372026933
7	225	620.272246126578	4.471337699125
7	247	652.662135001111	0
7	252	664.472898186955	1.475222910214
7	258	681.988222083014	0
7	276	722.609711117216	0
7	283	742.368989217759	0
7	287	751.111928766331	0
7	312	799.632860009152	0
7	328	814.853493710681	0
7	347	860.107364097815	0
7	350	863.381446274853	0
7	353	873.232163967375	0
7	358	879.107903420171	3.966089428767
7	364	896.29040962463	0
7	371	902.326630756692	1.549437480493
7	388	924.490335754125	0
7	391	944.436092298924	0
7	394	952.187309650594	0.708013523584
7	425	1011.77198842037	0
7	428	1012.512646375906	0
7	442	1038.37111930574	0
7	483	1124.687148995609	0
7	490	1136.310648626133	2.165920874083
7	493	1148.131585165124	12.116908660356
7	496	1163.10313429164	12.407047216394
7	501	1166.895886459264	2.900744470972
7	504	1179.152015303327	14.317307882864
7	505	1180.804431823321	5.622396328858
7	519	1230.359838712003	0
7	536	1257.761287405401	0
7	542	1277.139323562446	0
7	563	1305.489556262951	20.912794802683
7	564	1306.584921142533	16.038102545708
7	573	1329.154083265036	38.527826503333
7	574	1335.574139696859	39.603644817139
7	579	1347.507423675709	43.526842792116
7	582	1347.834780011086	38.371063867512
7	587	1368.833624828298	21.319552181525
7	591	1388.786029090884	0
7	594	1400.099639158162	0
7	611	1448.468959825449	0
7	644	1540.065042446857	0
7	657	1583.325883925548	0
7	662	1588.319098250521	2.043928223069
7	668	1613.626189748491	0
7	671	1621.835443834908	7.568687485248
7	675	1628.988584949879	0
7	680	1638.469326675055	5.42681428034
7	689	1654.225093828105	0
7	694	1663.525897776844	0
7	724	1734.077240528806	0
7	738	1749.437982594428	0
7	753	1799.40592340194	0
7	765	1818.494866855502	0
7	776	1844.445977291195	0
7	782	1857.169951238713	0
7	785	1865.263090597383	0
7	789	1870.89228262137	0
7	792	1874.92533651652	0.758813506561
7	795	1878.533448601449	2.563917147518
7	801	1894.574768464284	0
7	828	1956.269871227903	0
7	833	1964.214023531632	5.579471558646
7	842	1985.235954955451	1.867545707611
7	848	2008.698798874346	0
7	862	2040.337147864579	0
7	876	2060.761979702989	0
7	883	2072.43993907191	0
7	905	2125.454313612626	0
7	916	2161.780818154514	0
7	923	2167.531265933456	2.958812793423
7	924	2172.375626664718	7.025654644268
7	931	2184.469118021856	0
7	937	2206.677665640295	0
7	943	2213.274337973245	0
7	946	2217.002569442759	0
7	950	2221.137838314775	0
7	971	2272.148163070228	0
7	976	2277.638493766218	1.831610573349
7	979	2280.659867074338	0
7	982	2285.193654503639	0
7	986	2296.706842502531	0
7	997	2311.125341577691	11.220829912522
7	1002	2313.991493260448	6.045244104987
7	1015	2328.895385620355	0
7	1020	2340.883159541109	1.466349500424
7	1023	2342.948918818942	3.523010807621
7	1024	2343.251507851845	0.728161523452
7	1031	2367.255355255618	0
7	1051	2436.401942894968	0
7	1062	2455.75371522284	0
8	144	363.428380091388	14
8	155	382.075944824799	15
8	158	385.966253748444	16
8	176	454.616254440765	17
8	177	456.222890461734	18
8	195	524.449457429552	19
8	198	532.841469300075	20
8	203	546.349781612749	21
8	220	614.452586666556	22
8	225	620.272246126578	23
8	230	625.108927700392	24
8	252	664.472898186955	25
8	253	670.48488248371	26
8	261	685.645408837783	27
8	277	723.893358939347	28
8	284	745.345131324382	29
8	288	754.350334596412	30
8	313	799.965194416893	31
8	329	830.764854643187	32
8	348	863.207518604803	33
8	351	868.178796501263	34
8	358	879.107903420171	35
8	359	889.791961338903	36
8	371	902.326630756692	37
8	378	909.246240747242	38
8	389	933.959604348933	39
8	394	952.187309650594	40
8	399	958.417038436586	41
8	426	1012.110186622474	42
8	431	1019.365570128123	43
8	445	1046.740395178333	44
8	490	1136.310648626133	45
8	493	1148.131585165124	46
8	496	1163.10313429164	47
8	501	1166.895886459264	48
8	504	1179.152015303327	49
8	505	1180.804431823321	50
8	506	1183.105476785641	51
8	520	1231.519364449137	52
8	539	1264.242982894153	53
8	563	1305.489556262951	54
8	564	1306.584921142533	55
8	573	1329.154083265036	56
8	574	1335.574139696859	57
8	579	1347.507423675709	58
8	582	1347.834780011086	59
8	587	1368.833624828298	60
8	588	1381.443638494297	61
8	592	1390.829515230374	62
8	595	1402.62842829961	63
8	614	1460.406884764992	64
8	647	1562.082082011916	65
8	662	1588.319098250521	66
8	665	1601.432410430449	67
8	671	1621.835443834908	68
8	672	1622.159198158331	69
8	680	1638.469326675055	70
8	683	1642.232974831728	71
8	690	1656.155542868696	72
8	697	1666.256571207715	73
8	729	1744.355157219575	74
8	741	1760.382610819985	75
8	758	1802.524858744557	76
8	766	1819.104300114631	77
8	777	1845.245583666735	78
8	783	1862.365971728918	79
8	786	1865.73754649701	80
8	792	1874.92533651652	81
8	795	1878.533448601449	82
8	798	1887.989499628837	83
8	806	1903.500296281035	84
8	833	1964.214023531632	85
8	842	1985.235954955451	86
8	843	1988.308839403281	87
8	849	2013.564955245262	88
8	867	2043.499520512042	89
8	879	2069.59158058318	90
8	884	2074.5930536897	91
8	906	2137.520859073966	92
8	923	2167.531265933456	93
8	924	2172.375626664718	94
8	927	2179.842348373591	95
8	932	2189.25033397384	96
8	938	2208.435357429784	97
8	944	2216.860503891997	98
8	947	2217.981824189026	99
8	959	2247.934312722687	100
8	976	2277.638493766218	101
8	977	2280.319126918691	102
8	980	2281.51589133903	103
8	983	2291.281619938159	104
8	997	2311.125341577691	105
8	1002	2313.991493260448	106
8	1003	2314.732702937323	107
8	1020	2340.883159541109	108
8	1023	2342.948918818942	109
8	1024	2343.251507851845	110
8	1027	2353.931797167166	111
8	1032	2371.112041600272	112
8	1056	2442.04882252828	113
8	1063	2456.144012263149	114
9	144	363.428380091388	2.406554542224
9	155	382.075944824799	4.085279004227
9	158	385.966253748444	7.71233831715
9	176	454.616254440765	32.606611579846
9	177	456.222890461734	15.715122308591
9	195	524.449457429552	0.709943500932
9	198	532.841469300075	2.286337440509
9	203	546.349781612749	0.976656527764
9	220	614.452586666556	25.096497232296
9	225	620.272246126578	9.981031486955
9	230	625.108927700392	9.308019272939
9	252	664.472898186955	11.810763185844
9	253	670.48488248371	7.487207206969
9	261	685.645408837783	3.657186754769
9	277	723.893358939347	1.283647822131
9	284	745.345131324382	2.976142106623
9	288	754.350334596412	3.238405830081
9	313	799.965194416893	0.332334407741
9	329	830.764854643187	15.911360932506
9	348	863.207518604803	3.100154506988
9	351	868.178796501263	4.79735022641
9	358	879.107903420171	5.875739452796
9	359	889.791961338903	14.650147347499
9	371	902.326630756692	6.036221132062
9	378	909.246240747242	8.469047471043
9	389	933.959604348933	9.469268594808
9	394	952.187309650594	7.75121735167
9	399	958.417038436586	6.937742309576
9	426	1012.110186622474	0.338198202104
9	431	1019.365570128123	6.852923752217
9	445	1046.740395178333	8.369275872593
9	490	1136.310648626133	11.623499630524
9	493	1148.131585165124	13.986857413074
9	496	1163.10313429164	27.088457786872
9	501	1166.895886459264	16.199799384018
9	504	1179.152015303327	15.156873315035
9	505	1180.804431823321	15.969724402858
9	506	1183.105476785641	7.923441291178
9	520	1231.519364449137	1.159525737134
9	539	1264.242982894153	6.481695488752
9	563	1305.489556262951	28.350232700505
9	564	1306.584921142533	22.008159682265
9	573	1329.154083265036	38.607264668211
9	574	1335.574139696859	44.947882935156
9	579	1347.507423675709	51.536928795989
9	582	1347.834780011086	43.854199127493
9	587	1368.833624828298	59.369908684724
9	588	1381.443638494297	33.929565847524
9	592	1390.829515230374	2.04348613949
9	595	1402.62842829961	2.528789141448
9	614	1460.406884764992	11.937924939543
9	647	1562.082082011916	22.017039565059
9	662	1588.319098250521	4.993214324973
9	665	1601.432410430449	15.157240402997
9	671	1621.835443834908	8.209254086417
9	672	1622.159198158331	7.892441808671
9	680	1638.469326675055	9.480741725176
9	683	1642.232974831728	9.190462437013
9	690	1656.155542868696	1.930449040591
9	697	1666.256571207715	2.730673430871
9	729	1744.355157219575	10.277916690769
9	741	1760.382610819985	10.944628225557
9	758	1802.524858744557	3.118935342617
9	766	1819.104300114631	0.609433259129
9	777	1845.245583666735	0.79960637554
9	783	1862.365971728918	5.196020490205
9	786	1865.73754649701	0.474455899627
9	792	1874.92533651652	4.03305389515
9	795	1878.533448601449	4.36692559149
9	798	1887.989499628837	12.019968174906
9	806	1903.500296281035	8.925527816751
9	833	1964.214023531632	7.944152303729
9	842	1985.235954955451	26.601402982465
9	843	1988.308839403281	4.940430155441
9	849	2013.564955245262	4.866156370916
9	867	2043.499520512042	3.162372647463
9	879	2069.59158058318	8.829600880191
9	884	2074.5930536897	2.15311461779
9	906	2137.520859073966	12.06654546134
9	923	2167.531265933456	5.750447778942
9	924	2172.375626664718	7.803173524685
9	927	2179.842348373591	14.492376353141
9	932	2189.25033397384	4.781215951984
9	938	2208.435357429784	1.757691789489
9	944	2216.860503891997	3.586165918752
9	947	2217.981824189026	0.979254746267
9	959	2247.934312722687	26.796474407912
9	976	2277.638493766218	5.49033069599
9	977	2280.319126918691	4.512243725822
9	980	2281.51589133903	0.856024264692
9	983	2291.281619938159	6.08796543452
9	997	2311.125341577691	14.41849907516
9	1002	2313.991493260448	14.086981595279
9	1003	2314.732702937323	6.786453781862
9	1020	2340.883159541109	11.987773920754
9	1023	2342.948918818942	3.532108778257
9	1024	2343.251507851845	3.825599840524
9	1027	2353.931797167166	11.408450838773
9	1032	2371.112041600272	3.856686344654
9	1056	2442.04882252828	5.646879633312
9	1063	2456.144012263149	0.390297040309
10	154	379.608095313354	3
10	157	385.157042033546	4
10	163	399.228233649482	2
10	169	426.29441775287	1
10	173	443.660282730514	2
10	175	448.882770349587	3
10	181	458.137377426833	2
10	183	465.826518938555	3
10	188	494.833255579592	1
10	191	499.822669747212	1
10	200	545.209727119979	1
10	206	556.326563719439	1
10	209	572.24175660314	1
10	212	575.863779244195	1
10	214	577.881832968284	2
10	224	618.606462312563	2
10	227	621.290089637664	3
10	229	624.589581645086	4
10	232	627.159808616859	5
10	236	636.156734196456	4
10	238	638.695588633048	5
10	240	639.503912377234	6
10	242	641.651605112762	7
10	244	648.446565023337	8
10	249	656.54974981075	8
10	256	679.39638457525	8
10	260	682.973119520857	9
10	264	694.937514966378	9
10	268	709.632194269071	8
10	272	711.758812941697	7
10	274	714.745063282436	8
10	293	780.526003935068	1
10	295	782.044152913347	2
10	297	785.118702325468	3
10	300	786.82893246052	3
10	303	792.211735403243	3
10	306	794.650893746256	3
10	308	796.164645718989	4
10	310	797.919207288304	5
10	316	800.659176556938	5
10	319	802.145561068497	5
10	325	811.00518497882	2
10	332	837.601350145641	1
10	335	842.808892412795	1
10	338	850.859225738186	1
10	341	852.072682488855	1
10	344	856.159958446072	1
10	357	877.773073587536	1
10	362	893.64717916577	1
10	366	896.443773630609	2
10	368	899.605850019362	3
10	373	906.490154822813	4
10	375	908.845874933179	5
10	377	909.068777480588	6
10	380	910.906698195825	7
10	383	913.501120803603	7
10	386	923.456570972861	7
10	396	953.896826670245	8
10	398	955.784633106749	9
10	402	959.402928374506	9
10	407	967.655498130466	7
10	411	977.727526974586	6
10	414	986.483345419537	6
10	416	992.65484243738	7
10	419	1000.462186581842	7
10	422	1006.176726943197	7
10	430	1017.427407056631	7
10	434	1023.333185885289	7
10	438	1035.575057615901	6
10	440	1036.397542892707	7
10	444	1042.071307097477	8
10	448	1053.311955600887	8
10	452	1068.628170045546	7
10	454	1068.7372523909	8
10	457	1076.558449330755	8
10	461	1085.269920578633	7
10	464	1090.503816550838	7
10	469	1108.756096424927	5
10	471	1109.014040151767	6
10	474	1111.825117276107	6
10	478	1117.188075728243	5
10	480	1118.573341036805	6
10	485	1130.12602680693	6
10	492	1145.944497366466	7
10	510	1191.074306916834	6
10	516	1224.317871195993	3
10	523	1239.415299962359	2
10	526	1241.319226478284	2
10	530	1246.698348383056	1
10	533	1249.075240055608	1
10	538	1262.228682128353	1
10	544	1281.456586332296	1
10	548	1285.868618464094	2
10	550	1287.995910071284	3
10	552	1290.105014442061	4
10	560	1297.064115025479	5
10	566	1309.251003332188	6
10	570	1322.970381474386	7
10	572	1327.054292896169	8
10	576	1337.426373481282	9
10	578	1339.570652825673	10
10	584	1353.57388117284	11
10	586	1354.516585092584	12
10	598	1421.845319537203	11
10	601	1433.077455864582	11
10	603	1434.570566934513	12
10	605	1436.700873309931	13
10	608	1444.299171092421	13
10	613	1451.583659890725	13
10	617	1462.140670769399	13
10	625	1486.551119297569	8
10	631	1496.223907441521	5
10	638	1523.68482419876	1
10	641	1535.830083928314	1
10	646	1552.15528015073	1
10	650	1569.113611818043	1
10	653	1574.59712260323	1
10	655	1577.783622414697	2
10	661	1588.000980001104	3
10	664	1592.596152355802	4
10	679	1636.55918818209	3
10	682	1640.641096239258	4
10	687	1650.918419052956	3
10	696	1663.785704815084	2
10	700	1667.004304150596	2
10	703	1674.644996918479	2
10	705	1675.406868188611	3
10	708	1683.621375205935	3
10	711	1691.870758945599	3
10	716	1720.321633944097	1
10	719	1728.242047121611	1
10	722	1733.304477625183	1
10	726	1736.123190533158	2
10	728	1736.909763431248	3
10	731	1745.044126709653	4
10	734	1748.564229081137	4
10	736	1749.269661046032	5
10	740	1753.344411509976	6
10	743	1768.415993221564	7
10	747	1784.209010264732	6
10	755	1800.178677377241	3
10	757	1800.95833616599	4
10	760	1802.963572909128	5
10	763	1808.674857293738	5
10	768	1823.070351810148	6
10	770	1823.916015992079	7
10	773	1834.242923632817	7
10	797	1884.674211425783	3
10	803	1897.934943306775	3
10	805	1899.021409378431	4
10	808	1908.271706007079	5
10	810	1911.895429355032	6
10	812	1914.724388814061	7
10	814	1919.490991222787	8
10	817	1923.241762418407	8
10	823	1936.92438258832	5
10	832	1961.501522926047	3
10	835	1965.216661545734	4
10	837	1976.143259682891	5
10	839	1977.106085114153	6
10	846	2002.049166686635	6
10	851	2014.824804974099	7
10	856	2026.435831902888	5
10	858	2026.746619278247	6
10	860	2034.2767880203	7
10	864	2040.832134308452	8
10	866	2041.731501973777	9
10	869	2044.394175563752	10
10	874	2057.540071414153	8
10	878	2064.678649429053	9
10	892	2100.643440090761	2
10	896	2109.735389103771	1
10	899	2114.55518655679	1
10	902	2119.70008837266	1
10	908	2141.252353958549	1
10	911	2145.214967111336	1
10	914	2156.225819555676	1
10	918	2162.801836191714	2
10	926	2176.399567796595	3
10	935	2206.400218154673	1
10	941	2212.910426022293	1
10	952	2223.822523938987	1
10	954	2229.518382743654	2
10	956	2237.356526885323	3
10	958	2242.16939733723	4
10	962	2249.811830180648	4
10	968	2260.677147560681	1
10	975	2276.381357349022	1
10	988	2299.593657816942	1
10	992	2305.917559909468	2
10	996	2308.049972561187	3
10	999	2311.300208667409	4
10	1001	2311.517313327987	5
10	1005	2317.103988873237	6
10	1011	2321.252529477898	3
10	1013	2324.894460081239	4
10	1026	2345.158710441866	5
10	1035	2393.48451685585	3
10	1038	2409.027012630994	3
10	1040	2414.534346640401	4
10	1043	2418.902692042539	4
10	1045	2419.493416931437	5
10	1049	2432.165685310105	4
10	1053	2437.386547876681	5
10	1055	2439.315187646736	6
10	1065	2461.210077954654	3
10	1067	2463.600744450632	4
10	1069	2464.886615128397	5
11	1075	2500	0.0976
12	1075	2500	0.0456

