version 2
run experiments_hard_game_mode1-1414-20230311-19:44:32-12123
attr configname experiments_hard_game_mode1
attr datetime 20230311-19:44:32
attr experiment experiments_hard_game_mode1
attr inifile omnetpp.ini
attr iterationvars "$0=9.5, $1=6, $2=100"
attr iterationvarsf 9.5,6,100-
attr measurement "$0=9.5, $1=6, $2=100"
attr network Network
attr processid 12123
attr repetition 4
attr replication #4
attr resultdir results
attr runnumber 1414
attr seedset 4
param *.boss.arrival_mean 20
param *.boss.service_mean 9.5
param *.minion.arrival_mean 10
param *.minion.service_mean 6
param *.player.recover_rate_x 100
param **.minion.arrival_distribution 0
param **.minion.service_distribution 0
param **.boss.arrival_distribution 0
param **.boss.service_distribution 0

vector 0 Network.player minion_jobs_number_stat:vector ETV
attr source signal_minion_jobs_number
vector 1 Network.player minion_jobs_queue_number_stat:vector ETV
attr source signal_minion_jobs_queue_number
vector 2 Network.player boss_defeated_stat:vector ETV
attr source signal_boss_defeated
vector 3 Network.player boss_jobs_queue_number_stat:vector ETV
attr source signal_boss_jobs_queue_number
vector 4 Network.player boss_response_time_stat:vector ETV
attr source signal_boss_response_time
vector 5 Network.player minion_waiting_time_stat:vector ETV
attr source signal_minion_waiting_time
vector 6 Network.player boss_jobs_number_stat:vector ETV
attr source signal_boss_jobs_number
vector 7 Network.player minion_recovered_stat:vector ETV
attr source signal_minion_recovered
vector 8 Network.player boss_waiting_time_stat:vector ETV
attr source signal_boss_waiting_time
vector 9 Network.player minion_defeated_stat:vector ETV
attr source signal_minion_defeated
vector 10 Network.player minion_response_time_stat:vector ETV
attr source signal_minion_response_time
vector 11 Network.player minion_throughput:vector ETV
attr source signal_minion_throughput
vector 12 Network.player boss_throughput:vector ETV
attr source signal_boss_throughput
0	190	352.978059280825	4
0	192	353.419832700556	5
0	194	354.029144478105	6
0	204	367.990366123876	5
0	206	370.215756671625	6
0	208	378.052364412856	7
0	210	392.371167949294	8
0	217	406.946512179946	9
0	219	428.383531803711	10
0	222	444.011401927085	11
0	226	450.98066652757	11
0	229	451.73028784658	11
0	234	457.757667197246	9
0	239	468.537409541898	7
0	241	473.982018299906	8
0	244	474.529741610902	8
0	246	475.544180612483	9
0	251	487.096783251574	10
0	257	498.149657772508	7
0	262	504.007860976143	8
0	266	521.612487774395	9
0	269	527.923533215532	10
0	273	537.445084178704	9
0	280	548.264386181192	7
0	293	590.493629256602	3
0	297	602.20438266908	3
0	311	615.409528465206	2
0	313	618.465673972245	3
0	315	619.717847794858	4
0	317	619.833301056846	5
0	320	625.095285653623	6
0	327	639.848484542895	6
0	332	642.658770506067	6
0	338	659.594703833646	7
0	343	673.829436125857	8
0	345	675.333498500462	9
0	349	690.910142428003	10
0	353	699.537802025186	10
0	355	701.278112949638	11
0	357	705.443488769669	12
0	362	720.668128982073	12
0	365	723.310590708142	13
0	367	724.755192015371	14
0	372	726.969688862878	12
0	374	730.360630098194	13
0	377	733.528179951936	13
0	385	747.957665793117	14
0	396	785.616464863021	12
0	401	794.197517599841	13
0	403	796.623699401966	14
0	405	796.72708907059	15
0	407	801.133982897773	16
0	412	815.422787032409	16
0	415	815.608500370594	17
0	418	815.934585411496	17
0	420	825.526313810085	18
0	425	835.67500919863	16
0	427	838.293922995647	17
0	429	849.288132877701	18
0	436	862.849732286948	16
0	440	867.819189508284	17
0	443	876.595906204156	18
0	447	884.676733301921	19
0	449	890.125790668226	20
0	452	899.84808513181	21
0	455	912.201097435126	22
0	460	924.745328877657	22
0	465	960.517106469297	21
0	487	1033.384009707371	10
0	495	1049.993380740303	11
0	500	1082.984639060615	10
0	502	1088.617329153541	11
0	507	1103.125587623014	11
0	516	1134.762032603282	10
0	519	1147.048587206214	11
0	521	1147.537948956536	12
0	524	1164.904607599407	13
0	530	1178.101504796177	10
0	532	1183.818427798031	11
0	538	1195.078255801779	10
0	542	1207.401156566698	10
0	545	1214.887864769734	10
0	549	1217.974748432124	11
0	555	1226.344634059431	12
0	558	1235.378878174354	13
0	562	1248.214279567109	14
0	568	1265.493396779247	14
0	575	1276.969427052902	12
0	580	1292.311340785742	13
0	586	1308.17405787577	14
0	596	1344.116104056895	12
0	598	1345.313465627111	13
0	602	1354.599587035081	13
0	606	1356.820560843841	14
0	617	1405.804050851196	13
0	619	1418.580934377472	14
0	621	1419.365251027381	15
0	624	1424.371814798071	15
0	626	1426.080754246227	16
0	628	1430.223573916927	17
0	630	1432.174455560598	18
0	632	1433.840264766058	19
0	637	1438.239809209698	19
0	639	1439.299794285302	20
0	645	1452.654154888627	20
0	647	1457.883931666083	21
0	649	1463.273812668466	22
0	653	1472.018476230275	23
0	656	1474.9858238411	24
0	665	1488.484311171099	25
0	667	1493.700703597856	26
0	675	1514.130707624126	23
0	680	1526.978937178612	22
0	691	1560.94884828646	17
0	693	1564.5415027936	18
0	696	1570.621567227446	18
0	700	1589.074637641165	17
0	703	1594.189946417285	17
0	707	1596.105758401379	18
0	709	1599.657371185126	19
0	712	1600.459363741868	20
0	720	1618.082927982142	18
0	723	1619.408985688684	18
0	730	1643.470809558966	17
0	736	1654.772490570587	16
0	740	1669.302674711366	16
0	748	1691.348428581574	14
0	750	1692.056031350476	15
0	752	1693.557577111194	16
0	756	1702.87229380948	17
0	759	1712.519235799934	18
0	771	1740.523544655067	18
0	774	1745.556817795269	18
0	776	1746.634258612059	19
0	782	1752.693400708012	18
0	792	1790.6533783296	12
0	802	1816.797479941983	11
0	806	1821.20874573268	12
0	811	1823.300686946975	13
0	813	1833.919262889088	14
0	815	1839.387629554969	15
0	817	1840.697669255105	16
0	819	1848.201262330267	17
0	823	1880.733915395693	17
0	825	1883.06317196079	18
0	832	1893.595205370134	19
0	837	1904.705244863345	20
0	843	1932.300439084964	21
0	847	1939.475494742049	22
0	851	1963.425493522929	22
0	853	1964.026110923123	23
0	855	1969.771006203081	24
0	859	1977.582003380281	23
0	864	2004.651654727298	21
0	866	2013.816493378783	22
0	871	2026.065640661776	20
0	877	2034.283285546739	17
0	879	2037.391245495991	18
0	882	2047.716138571191	18
0	885	2049.697799527098	18
0	906	2084.366810896809	16
0	909	2095.024971664933	17
0	916	2115.576932845457	18
0	922	2132.838212740182	19
0	926	2151.954268436023	20
0	939	2175.804034837298	21
0	942	2180.444845152746	22
0	944	2190.28453943741	23
0	947	2201.54298104968	24
0	949	2203.319575982824	25
0	951	2205.190997088893	26
0	953	2208.498927757079	27
0	955	2210.034316746444	28
0	960	2218.906711902633	29
0	962	2223.371926576437	30
0	966	2224.556940303423	31
0	969	2242.344369738812	32
0	971	2245.484935265308	33
0	973	2250.531878277508	34
0	975	2250.551742008903	35
0	981	2266.636445813813	33
0	988	2289.324407733636	29
0	991	2290.078142997807	29
0	1001	2316.717632951859	28
0	1003	2330.117065585829	29
0	1005	2334.275765462892	30
0	1007	2335.764180382884	31
0	1011	2341.256052364237	32
0	1015	2349.061370327206	33
0	1018	2360.153948864617	34
0	1020	2362.081870274283	35
0	1024	2371.529764969959	35
0	1026	2371.729467480541	36
0	1032	2382.54474823165	37
0	1034	2385.63005962926	38
0	1036	2392.703794730356	39
0	1039	2399.773344757494	40
0	1044	2409.851191240822	41
0	1047	2419.522145450243	42
0	1049	2420.667741845603	43
0	1055	2439.880233104867	42
0	1068	2470.080629290396	42
0	1076	2494.914627525382	40
0	1078	2495.254658704516	41
1	190	352.978059280825	3
1	192	353.419832700556	4
1	194	354.029144478105	5
1	199	359.911755656068	5
1	200	360.23949193878	4
1	204	367.990366123876	4
1	206	370.215756671625	5
1	208	378.052364412856	6
1	210	392.371167949294	7
1	217	406.946512179946	8
1	219	428.383531803711	9
1	222	444.011401927085	10
1	224	449.012858891274	10
1	226	450.98066652757	10
1	227	451.125171486252	10
1	229	451.73028784658	10
1	230	452.841496175242	10
1	231	454.278545694674	9
1	232	455.260062894592	8
1	234	457.757667197246	8
1	235	461.824204046205	8
1	236	462.165158720511	7
1	237	466.539299621101	6
1	239	468.537409541898	6
1	241	473.982018299906	7
1	242	474.135180290485	7
1	244	474.529741610902	7
1	246	475.544180612483	8
1	251	487.096783251574	9
1	252	489.122296614314	9
1	253	490.287563906137	8
1	254	491.617236320927	7
1	255	495.927932879377	6
1	257	498.149657772508	6
1	262	504.007860976143	7
1	266	521.612487774395	8
1	269	527.923533215532	9
1	270	529.270404657652	9
1	271	534.975945752984	8
1	273	537.445084178704	8
1	274	541.497012741577	8
1	275	542.012581085599	7
1	276	542.405504314988	6
1	280	548.264386181192	6
1	282	556.151367044233	6
1	286	570.144886819692	5
1	287	571.183574209151	4
1	288	575.863025403686	3
1	289	585.731450237317	2
1	293	590.493629256602	2
1	295	598.046254858266	2
1	297	602.20438266908	2
1	298	604.686497511491	2
1	305	608.530266258781	1
1	311	615.409528465206	1
1	313	618.465673972245	2
1	315	619.717847794858	3
1	317	619.833301056846	4
1	320	625.095285653623	5
1	322	633.705138072152	5
1	327	639.848484542895	5
1	328	640.956046218062	5
1	332	642.658770506067	5
1	338	659.594703833646	6
1	343	673.829436125857	7
1	345	675.333498500462	8
1	349	690.910142428003	9
1	351	696.338853930776	9
1	353	699.537802025186	9
1	355	701.278112949638	10
1	357	705.443488769669	11
1	358	705.914068110379	11
1	362	720.668128982073	11
1	365	723.310590708142	12
1	367	724.755192015371	13
1	368	725.254820832542	13
1	369	725.677218698785	12
1	370	726.805011285282	11
1	372	726.969688862878	11
1	374	730.360630098194	12
1	375	730.500720786427	12
1	377	733.528179951936	12
1	385	747.957665793117	13
1	389	760.048977820798	13
1	390	766.507829733227	12
1	391	766.815956832557	11
1	396	785.616464863021	11
1	401	794.197517599841	12
1	403	796.623699401966	13
1	405	796.72708907059	14
1	407	801.133982897773	15
1	408	804.81660010615	15
1	412	815.422787032409	15
1	415	815.608500370594	16
1	416	815.660407080713	16
1	418	815.934585411496	16
1	420	825.526313810085	17
1	421	828.781838245317	17
1	422	830.219753034754	16
1	423	831.082598840544	15
1	425	835.67500919863	15
1	427	838.293922995647	16
1	429	849.288132877701	17
1	430	849.421819401981	17
1	431	850.594013644982	16
1	432	856.329024334323	15
1	436	862.849732286948	15
1	440	867.819189508284	16
1	443	876.595906204156	17
1	447	884.676733301921	18
1	449	890.125790668226	19
1	452	899.84808513181	20
1	455	912.201097435126	21
1	456	912.719460692482	21
1	460	924.745328877657	21
1	462	942.644321000545	21
1	463	953.564960099429	20
1	465	960.517106469297	20
1	466	964.9533157444	20
1	470	981.071875210339	19
1	471	982.650714625814	18
1	472	982.828257681488	17
1	473	993.396546922483	16
1	474	996.366009518514	15
1	475	998.40659389355	14
1	476	1001.85613386836	13
1	480	1016.027999635376	12
1	481	1020.439758288415	11
1	482	1022.94765711248	10
1	483	1027.021616096328	9
1	487	1033.384009707371	9
1	495	1049.993380740303	10
1	497	1052.183217537046	10
1	498	1067.544492030813	9
1	500	1082.984639060615	9
1	502	1088.617329153541	10
1	503	1092.501069980526	10
1	507	1103.125587623014	10
1	509	1109.338431645081	10
1	510	1109.74619273345	9
1	516	1134.762032603282	9
1	519	1147.048587206214	10
1	521	1147.537948956536	11
1	524	1164.904607599407	12
1	525	1166.610855185467	12
1	526	1169.891474091991	11
1	527	1172.684389351976	10
1	528	1177.879173954437	9
1	530	1178.101504796177	9
1	532	1183.818427798031	10
1	533	1187.001817175362	10
1	534	1192.217899760442	9
1	538	1195.078255801779	9
1	540	1202.25389250108	9
1	542	1207.401156566698	9
1	543	1211.343339780842	9
1	545	1214.887864769734	9
1	549	1217.974748432124	10
1	555	1226.344634059431	11
1	558	1235.378878174354	12
1	562	1248.214279567109	13
1	566	1264.872528641259	13
1	568	1265.493396779247	13
1	569	1266.192248832246	13
1	570	1267.726427361587	12
1	571	1268.24844366611	11
1	575	1276.969427052902	11
1	580	1292.311340785742	12
1	586	1308.17405787577	13
1	587	1314.851827593542	13
1	588	1315.931271851977	12
1	589	1316.026195945484	11
1	596	1344.116104056895	11
1	598	1345.313465627111	12
1	600	1353.888694147281	12
1	602	1354.599587035081	12
1	606	1356.820560843841	13
1	611	1398.070735587535	13
1	615	1404.649507733019	12
1	617	1405.804050851196	12
1	619	1418.580934377472	13
1	621	1419.365251027381	14
1	622	1422.06057050294	14
1	624	1424.371814798071	14
1	626	1426.080754246227	15
1	628	1430.223573916927	16
1	630	1432.174455560598	17
1	632	1433.840264766058	18
1	633	1434.396973439946	18
1	637	1438.239809209698	18
1	639	1439.299794285302	19
1	641	1449.684075122955	19
1	645	1452.654154888627	19
1	647	1457.883931666083	20
1	649	1463.273812668466	21
1	653	1472.018476230275	22
1	656	1474.9858238411	23
1	665	1488.484311171099	24
1	667	1493.700703597856	25
1	668	1496.003915192332	25
1	669	1499.000162187865	24
1	670	1500.919850111611	23
1	671	1507.216224068396	22
1	675	1514.130707624126	22
1	677	1517.984952649404	22
1	678	1526.227203060804	21
1	680	1526.978937178612	21
1	681	1533.976455226238	21
1	682	1536.207359377084	20
1	686	1552.636284335262	19
1	687	1554.529098415635	18
1	688	1555.047254807734	17
1	689	1558.038268212348	16
1	691	1560.94884828646	16
1	693	1564.5415027936	17
1	694	1564.790835956056	17
1	696	1570.621567227446	17
1	697	1573.655782956693	17
1	698	1580.396698886068	16
1	700	1589.074637641165	16
1	701	1592.130478283624	16
1	703	1594.189946417285	16
1	707	1596.105758401379	17
1	709	1599.657371185126	18
1	712	1600.459363741868	19
1	713	1603.690461242775	19
1	714	1610.773891517318	18
1	715	1615.232918986076	17
1	720	1618.082927982142	17
1	721	1619.023587318756	17
1	723	1619.408985688684	17
1	724	1621.638649986424	17
1	728	1642.471073750405	16
1	730	1643.470809558966	16
1	731	1643.96331953984	16
1	732	1645.536727873237	15
1	736	1654.772490570587	15
1	738	1666.07268474027	15
1	740	1669.302674711366	15
1	741	1674.671403980424	15
1	745	1683.622222745783	14
1	746	1684.019880643364	13
1	748	1691.348428581574	13
1	750	1692.056031350476	14
1	752	1693.557577111194	15
1	756	1702.87229380948	16
1	759	1712.519235799934	17
1	769	1733.58035055151	17
1	771	1740.523544655067	17
1	772	1742.723120042625	17
1	774	1745.556817795269	17
1	776	1746.634258612059	18
1	777	1746.735923883635	18
1	778	1747.770455512514	17
1	782	1752.693400708012	17
1	784	1759.423678975837	17
1	785	1773.576265399944	16
1	786	1778.24101815904	15
1	787	1778.914448546964	14
1	788	1782.48733174654	13
1	789	1783.452393286404	12
1	790	1788.566797537917	11
1	792	1790.6533783296	11
1	796	1798.658312597448	11
1	800	1813.359972500605	10
1	802	1816.797479941983	10
1	806	1821.20874573268	11
1	811	1823.300686946975	12
1	813	1833.919262889088	13
1	815	1839.387629554969	14
1	817	1840.697669255105	15
1	819	1848.201262330267	16
1	821	1876.022934489402	16
1	823	1880.733915395693	16
1	825	1883.06317196079	17
1	832	1893.595205370134	18
1	837	1904.705244863345	19
1	843	1932.300439084964	20
1	847	1939.475494742049	21
1	849	1948.327380428857	21
1	851	1963.425493522929	21
1	853	1964.026110923123	22
1	855	1969.771006203081	23
1	856	1974.86780500025	23
1	857	1977.157317220192	22
1	859	1977.582003380281	22
1	860	1991.800022038923	22
1	861	1994.524631347239	21
1	862	2003.303970041539	20
1	864	2004.651654727298	20
1	866	2013.816493378783	21
1	867	2014.03790358595	21
1	868	2017.128920179163	20
1	869	2022.969343566213	19
1	871	2026.065640661776	19
1	872	2027.105992127327	19
1	873	2028.670695805002	18
1	874	2029.171972542817	17
1	875	2032.916727738918	16
1	877	2034.283285546739	16
1	879	2037.391245495991	17
1	880	2045.206571038463	17
1	882	2047.716138571191	17
1	883	2049.668526187945	17
1	885	2049.697799527098	17
1	886	2050.674732848709	17
1	890	2061.262726623092	16
1	891	2068.136400747767	15
1	906	2084.366810896809	15
1	909	2095.024971664933	16
1	916	2115.576932845457	17
1	922	2132.838212740182	18
1	926	2151.954268436023	19
1	939	2175.804034837298	20
1	942	2180.444845152746	21
1	944	2190.28453943741	22
1	947	2201.54298104968	23
1	949	2203.319575982824	24
1	951	2205.190997088893	25
1	953	2208.498927757079	26
1	955	2210.034316746444	27
1	960	2218.906711902633	28
1	962	2223.371926576437	29
1	966	2224.556940303423	30
1	969	2242.344369738812	31
1	971	2245.484935265308	32
1	973	2250.531878277508	33
1	975	2250.551742008903	34
1	977	2251.896772041547	34
1	978	2262.307458623473	33
1	979	2265.304952553623	32
1	981	2266.636445813813	32
1	982	2273.50341388686	32
1	983	2274.385732497952	31
1	984	2277.582755423948	30
1	985	2281.332715381022	29
1	986	2285.670709467658	28
1	988	2289.324407733636	28
1	989	2289.856853675037	28
1	991	2290.078142997807	28
1	992	2301.102804150181	28
1	993	2301.954491850737	27
1	1001	2316.717632951859	27
1	1003	2330.117065585829	28
1	1005	2334.275765462892	29
1	1007	2335.764180382884	30
1	1011	2341.256052364237	31
1	1015	2349.061370327206	32
1	1018	2360.153948864617	33
1	1020	2362.081870274283	34
1	1022	2370.302578768608	34
1	1024	2371.529764969959	34
1	1026	2371.729467480541	35
1	1032	2382.54474823165	36
1	1034	2385.63005962926	37
1	1036	2392.703794730356	38
1	1039	2399.773344757494	39
1	1044	2409.851191240822	40
1	1047	2419.522145450243	41
1	1049	2420.667741845603	42
1	1050	2427.45839593541	42
1	1051	2429.689158849697	41
1	1055	2439.880233104867	41
1	1063	2465.178976456723	41
1	1068	2470.080629290396	41
1	1069	2472.025830528795	41
1	1073	2488.075286877731	40
1	1074	2489.066459568788	39
1	1076	2494.914627525382	39
1	1078	2495.254658704516	40
2	195	355.349974485094	15
2	198	356.659050933074	16
2	215	401.086666905247	17
2	220	438.488759836795	18
2	223	448.080622875072	19
2	249	487.047739412545	20
2	260	500.77307645903	21
2	267	524.234549835001	22
2	281	551.426638693621	23
2	285	567.502485172468	24
2	294	594.18384840559	25
2	303	605.240285369489	26
2	304	607.77367338557	27
2	318	623.956871038458	28
2	321	625.103795995123	29
2	325	637.4233657822	30
2	335	648.167468483758	31
2	336	656.812001114094	32
2	341	670.937572007221	33
2	350	695.263244463072	34
2	363	722.87262438448	35
2	382	741.134747775435	36
2	383	745.784060984126	37
2	388	751.406038400806	38
2	394	781.989792866694	39
2	399	794.145108547271	40
2	413	815.600783477332	41
2	441	868.174517676198	42
2	450	895.931041719616	43
2	453	903.716643566607	44
2	461	927.28908506096	45
2	469	977.845379683714	46
2	479	1011.416300504901	47
2	492	1040.80069764267	48
2	493	1049.874288556022	49
2	496	1051.344683865199	50
2	508	1109.273912150882	51
2	517	1145.411922966454	52
2	522	1148.381960356992	53
2	539	1198.06206264068	54
2	556	1229.365934788554	55
2	563	1252.321496066675	56
2	564	1255.532839427467	57
2	565	1264.504978223403	58
2	576	1285.334259480707	59
2	583	1301.297539138189	60
2	584	1301.933856038605	61
2	594	1340.125285045011	62
2	599	1351.24718743096	63
2	609	1367.870012040663	64
2	610	1375.501711159742	65
2	614	1401.047306335443	66
2	640	1443.083643426392	67
2	654	1472.507888459975	68
2	659	1476.549725810328	69
2	662	1481.052014853873	70
2	663	1482.852100427494	71
2	676	1516.366833813956	72
2	685	1545.091130117872	73
2	710	1599.66573887978	74
2	718	1616.609086050472	75
2	727	1636.423588328655	76
2	737	1664.383499445497	77
2	744	1682.582257127358	78
2	757	1709.204351577324	79
2	764	1727.112344401824	80
2	765	1727.541481257563	81
2	768	1731.851301590439	82
2	783	1753.279173217501	83
2	795	1797.746938412657	84
2	799	1808.320337435875	85
2	807	1821.931559119153	86
2	820	1871.672870708396	87
2	830	1888.723859839638	88
2	833	1897.415423499783	89
2	840	1926.442847665435	90
2	841	1928.325105959999	91
2	848	1948.221438149547	92
2	889	2058.642193098357	93
2	894	2073.192678009453	94
2	907	2094.588811682562	95
2	914	2113.731911115951	96
2	919	2119.415776804801	97
2	920	2123.636064536755	98
2	929	2157.39234062784	99
2	934	2161.841259915977	100
2	935	2163.22625366821	101
2	936	2163.338082498002	102
2	937	2175.285620057958	103
2	940	2175.832518110118	104
2	945	2199.940217008898	105
2	958	2215.201284147437	106
2	967	2241.221691902208	107
2	976	2251.097944314075	108
2	1008	2338.838697069657	109
2	1009	2340.360790040099	110
2	1016	2350.973281230592	111
2	1021	2364.601714092401	112
2	1037	2399.341640771869	113
2	1040	2400.750797450803	114
2	1045	2411.021400506054	115
2	1058	2455.706090615847	116
2	1061	2461.366936170688	117
2	1062	2464.41615843721	118
2	1066	2467.610009969892	119
2	1072	2484.499707759772	120
3	195	355.349974485094	0
3	197	356.5813254123	0
3	198	356.659050933074	0
3	202	362.521660136066	0
3	212	400.41477839754	1
3	214	400.989063535264	2
3	215	401.086666905247	2
3	220	438.488759836795	1
3	223	448.080622875072	0
3	248	478.265615825747	0
3	249	487.047739412545	0
3	259	498.462216923946	0
3	260	500.77307645903	0
3	264	506.274101154578	0
3	267	524.234549835001	0
3	278	543.861325420206	0
3	281	551.426638693621	0
3	284	560.04194327393	0
3	285	567.502485172468	0
3	291	586.69130007823	0
3	294	594.18384840559	0
3	300	604.735245203313	0
3	302	605.155777816588	1
3	303	605.240285369489	1
3	304	607.77367338557	0
3	307	611.966540144215	0
3	309	614.333274271427	1
3	318	623.956871038458	1
3	321	625.103795995123	0
3	324	634.520473617099	0
3	325	637.4233657822	0
3	330	641.589042052045	0
3	334	646.140911074391	1
3	335	648.167468483758	1
3	336	656.812001114094	0
3	340	669.370048180619	0
3	341	670.937572007221	0
3	347	676.089550307947	0
3	350	695.263244463072	0
3	360	715.645460968857	0
3	363	722.87262438448	0
3	379	735.110182554916	0
3	381	739.538941641431	1
3	382	741.134747775435	1
3	383	745.784060984126	0
3	387	749.503152676415	0
3	388	751.406038400806	0
3	393	770.914674302833	0
3	394	781.989792866694	0
3	398	787.110693257764	0
3	399	794.145108547271	0
3	410	811.167204134008	0
3	413	815.600783477332	0
3	434	858.399036366918	0
3	438	867.088444874552	1
3	441	868.174517676198	1
3	445	881.809084173332	1
3	450	895.931041719616	1
3	453	903.716643566607	0
3	458	913.018282051986	0
3	461	927.28908506096	0
3	468	968.873454385473	0
3	469	977.845379683714	0
3	478	1002.51878157638	0
3	479	1011.416300504901	0
3	485	1029.242586038515	0
3	489	1033.641092825581	1
3	491	1039.791114202476	2
3	492	1040.80069764267	2
3	493	1049.874288556022	1
3	496	1051.344683865199	0
3	505	1099.489056947826	0
3	508	1109.273912150882	0
3	512	1110.541336198966	0
3	514	1123.489536725241	1
3	517	1145.411922966454	1
3	522	1148.381960356992	0
3	536	1194.221935883371	0
3	539	1198.06206264068	0
3	547	1216.190203000085	0
3	551	1220.406967291869	1
3	553	1225.154657742576	2
3	556	1229.365934788554	2
3	560	1240.638952913731	2
3	563	1252.321496066675	2
3	564	1255.532839427467	1
3	565	1264.504978223403	0
3	573	1273.59487077883	0
3	576	1285.334259480707	0
3	578	1286.95495848667	0
3	582	1294.658978465549	1
3	583	1301.297539138189	1
3	584	1301.933856038605	0
3	591	1324.434619982293	0
3	593	1331.395607018128	1
3	594	1340.125285045011	1
3	599	1351.24718743096	0
3	604	1355.60478524757	0
3	608	1362.793164268834	1
3	609	1367.870012040663	1
3	610	1375.501711159742	0
3	613	1400.224333753695	0
3	614	1401.047306335443	0
3	635	1435.416693770565	0
3	640	1443.083643426392	0
3	643	1451.229788169275	0
3	651	1467.31286884861	1
3	654	1472.507888459975	1
3	658	1476.276237015556	1
3	659	1476.549725810328	1
3	661	1480.532117879222	1
3	662	1481.052014853873	1
3	663	1482.852100427494	0
3	673	1512.620878371213	0
3	676	1516.366833813956	0
3	684	1537.674109379175	0
3	685	1545.091130117872	0
3	705	1595.678269176451	0
3	710	1599.66573887978	0
3	717	1616.104092815001	0
3	718	1616.609086050472	0
3	726	1632.557720265987	0
3	727	1636.423588328655	0
3	734	1647.794972004337	0
3	737	1664.383499445497	0
3	743	1680.412202636077	0
3	744	1682.582257127358	0
3	754	1697.409528314427	0
3	757	1709.204351577324	0
3	761	1724.988876512068	0
3	763	1725.23706083006	1
3	764	1727.112344401824	1
3	765	1727.541481257563	0
3	767	1728.758263676249	0
3	768	1731.851301590439	0
3	780	1752.522744556116	0
3	783	1753.279173217501	0
3	794	1792.921853419995	0
3	795	1797.746938412657	0
3	798	1808.22155861746	0
3	799	1808.320337435875	0
3	804	1820.926754352695	0
3	807	1821.931559119153	0
3	809	1822.575584828858	0
3	820	1871.672870708396	0
3	827	1886.804862313205	0
3	829	1887.079489260505	1
3	830	1888.723859839638	1
3	833	1897.415423499783	0
3	835	1900.930256248978	0
3	839	1907.440788448399	1
3	840	1926.442847665435	1
3	841	1928.325105959999	0
3	845	1935.405271074888	0
3	848	1948.221438149547	0
3	888	2054.337250358517	0
3	889	2058.642193098357	0
3	893	2070.533405052142	0
3	894	2073.192678009453	0
3	896	2075.646756539144	0
3	898	2076.914782185927	1
3	900	2079.133756545541	2
3	902	2081.549383941071	3
3	904	2081.878085919375	4
3	907	2094.588811682562	4
3	911	2095.149543605838	4
3	913	2103.509230131846	5
3	914	2113.731911115951	5
3	918	2116.197895522037	5
3	919	2119.415776804801	5
3	920	2123.636064536755	4
3	924	2149.223735525897	4
3	928	2154.144608735228	5
3	929	2157.39234062784	5
3	931	2159.045226232794	5
3	933	2159.7706300103	6
3	934	2161.841259915977	6
3	935	2163.22625366821	5
3	936	2163.338082498002	4
3	937	2175.285620057958	3
3	940	2175.832518110118	2
3	945	2199.940217008898	1
3	957	2214.316810083452	1
3	958	2215.201284147437	1
3	964	2223.374868222643	1
3	967	2241.221691902208	1
3	976	2251.097944314075	0
3	995	2312.67934090531	0
3	997	2313.820088273974	1
3	999	2314.04164474955	2
3	1008	2338.838697069657	2
3	1009	2340.360790040099	1
3	1013	2342.03911326403	1
3	1016	2350.973281230592	1
3	1021	2364.601714092401	0
3	1028	2372.772414252373	0
3	1030	2380.837896134975	1
3	1037	2399.341640771869	1
3	1040	2400.750797450803	0
3	1042	2403.964648935548	0
3	1045	2411.021400506054	0
3	1053	2433.433079546767	0
3	1057	2447.93178109452	1
3	1058	2455.706090615847	1
3	1060	2461.038193796627	1
3	1061	2461.366936170688	1
3	1062	2464.41615843721	0
3	1065	2467.308126790654	0
3	1066	2467.610009969892	0
3	1071	2475.318419721545	0
3	1072	2484.499707759772	0
3	1080	2497.177872175454	0
4	195	355.349974485094	15.608144984531
4	198	356.659050933074	0.077725520774
4	215	401.086666905247	38.565006769181
4	220	438.488759836795	38.073981439255
4	223	448.080622875072	47.091559339808
4	249	487.047739412545	8.782123586798
4	260	500.77307645903	2.310859535084
4	267	524.234549835001	17.960448680423
4	281	551.426638693621	7.565313273415
4	285	567.502485172468	7.460541898538
4	294	594.18384840559	7.49254832736
4	303	605.240285369489	0.505040166176
4	304	607.77367338557	2.617895568982
4	318	623.956871038458	11.990330894243
4	321	625.103795995123	10.770521723696
4	325	637.4233657822	2.902892165101
4	335	648.167468483758	6.578426431713
4	336	656.812001114094	10.671090039703
4	341	670.937572007221	1.567523826602
4	350	695.263244463072	19.173694155125
4	363	722.87262438448	7.227163415623
4	382	741.134747775435	6.024565220519
4	383	745.784060984126	6.245119342695
4	388	751.406038400806	1.902885724391
4	394	781.989792866694	11.075118563861
4	399	794.145108547271	7.034415289507
4	413	815.600783477332	4.433579343324
4	441	868.174517676198	9.77548130928
4	450	895.931041719616	28.842596845064
4	453	903.716643566607	21.907559393275
4	461	927.28908506096	14.270803008974
4	469	977.845379683714	8.971925298241
4	479	1011.416300504901	8.897518928521
4	492	1040.80069764267	11.558111604155
4	493	1049.874288556022	16.233195730441
4	496	1051.344683865199	11.553569662723
4	508	1109.273912150882	9.784855203056
4	517	1145.411922966454	34.870586767488
4	522	1148.381960356992	24.892423631751
4	539	1198.06206264068	3.840126757309
4	556	1229.365934788554	13.175731788469
4	563	1252.321496066675	31.914528774806
4	564	1255.532839427467	30.378181684891
4	565	1264.504978223403	23.866025309672
4	576	1285.334259480707	11.739388701877
4	583	1301.297539138189	14.342580651519
4	584	1301.933856038605	7.274877573056
4	594	1340.125285045011	15.690665062718
4	599	1351.24718743096	19.851580412832
4	609	1367.870012040663	12.265226793093
4	610	1375.501711159742	12.708546890908
4	614	1401.047306335443	0.822972581748
4	640	1443.083643426392	7.666949655827
4	654	1472.507888459975	21.2781002907
4	659	1476.549725810328	9.236856961718
4	662	1481.052014853873	4.775777838317
4	663	1482.852100427494	2.319982548272
4	676	1516.366833813956	3.745955442743
4	685	1545.091130117872	7.417020738697
4	710	1599.66573887978	3.987469703329
4	718	1616.609086050472	0.504993235471
4	727	1636.423588328655	3.865868062668
4	737	1664.383499445497	16.58852744116
4	744	1682.582257127358	2.170054491281
4	757	1709.204351577324	11.794823262897
4	764	1727.112344401824	2.123467889756
4	765	1727.541481257563	2.304420427503
4	768	1731.851301590439	3.09303791419
4	783	1753.279173217501	0.756428661385
4	795	1797.746938412657	4.825084992662
4	799	1808.320337435875	0.098778818415
4	807	1821.931559119153	1.004804766458
4	820	1871.672870708396	49.097285879538
4	830	1888.723859839638	1.918997526433
4	833	1897.415423499783	10.335934239278
4	840	1926.442847665435	25.512591416457
4	841	1928.325105959999	20.8843175116
4	848	1948.221438149547	12.816167074659
4	889	2058.642193098357	4.30494273984
4	894	2073.192678009453	2.659272957311
4	907	2094.588811682562	18.942055143418
4	914	2113.731911115951	36.817128930024
4	919	2119.415776804801	40.28202025926
4	920	2123.636064536755	42.086680595684
4	929	2157.39234062784	75.514254708465
4	934	2161.841259915977	66.691716310139
4	935	2163.22625366821	59.717023536364
4	936	2163.338082498002	47.140186975965
4	937	2175.285620057958	26.061884532061
4	940	2175.832518110118	21.68790937489
4	945	2199.940217008898	40.894990776104
4	958	2215.201284147437	55.430654137137
4	967	2241.221691902208	26.904881818756
4	976	2251.097944314075	27.723076091432
4	1008	2338.838697069657	26.159356164347
4	1009	2340.360790040099	26.540701766125
4	1016	2350.973281230592	36.931636481042
4	1021	2364.601714092401	22.562600828371
4	1037	2399.341640771869	26.569226519496
4	1040	2400.750797450803	19.912901315828
4	1045	2411.021400506054	7.056751570506
4	1058	2455.706090615847	22.27301106908
4	1061	2461.366936170688	13.435155076168
4	1062	2464.41615843721	3.377964640583
4	1066	2467.610009969892	0.301883179238
4	1072	2484.499707759772	9.181288038227
5	195	355.349974485094	23.365612963021
5	198	356.659050933074	20.897652552635
5	199	359.911755656068	20.169926155505
5	200	360.23949193878	7.261432657955
5	223	448.080622875072	94.660790174516
5	224	449.012858891274	94.983714413169
5	227	451.125171486252	94.543846073952
5	230	452.841496175242	90.319836039176
5	231	454.278545694674	86.288179570798
5	232	455.260062894592	85.044306222967
5	235	461.824204046205	83.771839633349
5	236	462.165158720511	69.793990771217
5	237	466.539299621101	59.592787441155
5	242	474.135180290485	45.751648486774
5	249	487.047739412545	43.03633748546
5	252	489.122296614314	38.141630086744
5	253	490.287563906137	38.557276059557
5	254	491.617236320927	33.859569123681
5	255	495.927932879377	27.390523337479
5	260	500.77307645903	26.791058159124
5	267	524.234549835001	49.704808224099
5	270	529.270404657652	53.726224045169
5	271	534.975945752984	56.710329927237
5	274	541.497012741577	54.400229490003
5	275	542.012581085599	43.862923313091
5	276	542.405504314988	43.943287391042
5	281	551.426638693621	47.418777717478
5	282	556.151367044233	49.877265889655
5	285	567.502485172468	45.889997398073
5	286	570.144886819692	42.22135360416
5	287	571.183574209151	33.738490030447
5	288	575.863025403686	32.00169998348
5	289	585.731450237317	37.467064056125
5	294	594.18384840559	34.14190513166
5	295	598.046254858266	11.354954780036
5	298	604.686497511491	14.192868254889
5	304	607.77367338557	5.56929071649
5	305	608.530266258781	3.795021055468
5	321	625.103795995123	13.137255850908
5	322	633.705138072152	18.295609606946
5	325	637.4233657822	18.957691809955
5	328	640.956046218062	21.238198423204
5	336	656.812001114094	36.978700057248
5	341	670.937572007221	45.842286353598
5	350	695.263244463072	60.742770845973
5	351	696.338853930776	56.490369387881
5	358	705.914068110379	64.325026058334
5	363	722.87262438448	80.213853878413
5	368	725.254820832542	65.660116998896
5	369	725.677218698785	56.307170518166
5	370	726.805011285282	52.975575159425
5	375	730.500720786427	55.167222285965
5	383	745.784060984126	69.694510676179
5	388	751.406038400806	60.495895972803
5	389	760.048977820798	60.511175795612
5	390	766.507829733227	65.229716783589
5	391	766.815956832557	61.372468062888
5	394	781.989792866694	66.344331897837
5	399	794.145108547271	73.476979565198
5	408	804.81660010615	81.506009398008
5	413	815.600783477332	90.845591461961
5	416	815.660407080713	88.690718217835
5	421	828.781838245317	98.421208147123
5	422	830.219753034754	96.691573082818
5	423	831.082598840544	95.972416285628
5	430	849.421819401981	101.46415360886
5	431	850.594013644982	101.09086096857
5	432	856.329024334323	85.41435003149
5	453	903.716643566607	118.10017870359
5	456	912.719460692482	125.60876743472
5	461	927.28908506096	133.09156746112
5	462	942.644321000545	146.02062159858
5	463	953.564960099429	156.83787102884
5	466	964.9533157444	163.81933284663
5	469	977.845379683714	166.67817554971
5	470	981.071875210339	165.64908817793
5	471	982.650714625814	167.04221425522
5	472	982.828257681488	166.89367226999
5	473	993.396546922483	167.8702331124
5	474	996.366009518514	160.69100031988
5	475	998.40659389355	160.1126708979
5	476	1001.85613386836	152.56800099066
5	479	1011.416300504901	153.01726413798
5	480	1016.027999635376	153.17826734843
5	481	1020.439758288415	152.62056878013
5	482	1022.94765711248	146.35175090832
5	483	1027.021616096328	142.34488279441
5	496	1051.344683865199	161.21889319697
5	497	1052.183217537046	152.33513240524
5	498	1067.544492030813	155.34339459569
5	503	1092.501069980526	179.48278792854
5	508	1109.273912150882	184.52858327322
5	509	1109.338431645081	148.82132517578
5	510	1109.74619273345	140.87273834798
5	522	1148.381960356992	145.86317878061
5	525	1166.610855185467	137.36826914695
5	526	1169.891474091991	136.50746438462
5	527	1172.684389351976	122.69100861167
5	528	1177.879173954437	94.894534893822
5	533	1187.001817175362	98.384488021821
5	534	1192.217899760442	92.728842812616
5	539	1198.06206264068	94.936475017666
5	540	1202.25389250108	91.712556302114
5	543	1211.343339780842	76.58130717756
5	565	1264.504978223403	117.45639101719
5	566	1264.872528641259	117.33457968472
5	569	1266.192248832246	101.28764123284
5	570	1267.726427361587	89.62492256541
5	571	1268.24844366611	84.430015868079
5	576	1285.334259480707	91.112323597336
5	584	1301.933856038605	106.85560023683
5	587	1314.851827593542	107.45067102684
5	588	1315.931271851977	101.04340708224
5	589	1316.026195945484	99.835992945399
5	599	1351.24718743096	133.27243899884
5	600	1353.888694147281	127.54406008785
5	610	1375.501711159742	140.12283298539
5	611	1398.070735587535	149.85645602043
5	614	1401.047306335443	135.5539095562
5	615	1404.649507733019	131.05463695419
5	622	1422.06057050294	145.09114345004
5	633	1434.396973439946	147.44201495328
5	640	1443.083643426392	150.77230264065
5	641	1449.684075122955	141.51001724719
5	663	1482.852100427494	158.4174804452
5	668	1496.003915192332	151.88781113544
5	669	1499.000162187865	153.68669656075
5	670	1500.919850111611	146.32026307653
5	671	1507.216224068396	151.61143882083
5	676	1516.366833813956	159.54627297011
5	677	1517.984952649404	117.76061889571
5	678	1526.227203060804	120.42315220961
5	681	1533.976455226238	115.39552084877
5	682	1536.207359377084	116.8421083497
5	685	1545.091130117872	120.7193153198
5	686	1552.636284335262	126.55553008904
5	687	1554.529098415635	124.30552449871
5	688	1555.047254807734	122.87279924714
5	689	1558.038268212348	124.19800344629
5	694	1564.790835956056	129.37414218549
5	697	1573.655782956693	135.415973747
5	698	1580.396698886068	141.09690460077
5	701	1592.130478283624	140.90069011435
5	710	1599.66573887978	147.01158399115
5	713	1603.690461242775	145.80652957669
5	714	1610.773891517318	147.50007884885
5	715	1615.232918986076	143.2144427558
5	718	1616.609086050472	141.62326220937
5	721	1619.023587318756	130.53927614766
5	724	1621.638649986424	127.93794638857
5	727	1636.423588328655	123.80270995744
5	728	1642.471073750405	128.34036612628
5	731	1643.96331953984	116.98438236123
5	732	1645.536727873237	107.86261849406
5	737	1664.383499445497	103.43465115904
5	738	1666.07268474027	101.53118194667
5	741	1674.671403980424	104.04983675298
5	744	1682.582257127358	93.507619486193
5	745	1683.622222745783	89.432276328498
5	746	1684.019880643364	88.341611466913
5	757	1709.204351577324	113.09859317594
5	765	1727.541481257563	127.88411007244
5	768	1731.851301590439	131.39193784857
5	769	1733.58035055151	117.47625773651
5	772	1742.723120042625	124.64019206048
5	777	1746.735923883635	127.32693819495
5	778	1747.770455512514	115.21273524653
5	783	1753.279173217501	109.80836365854
5	784	1759.423678975837	111.6287069715
5	785	1773.576265399944	118.80377482936
5	786	1778.24101815904	108.93834344767
5	787	1778.914448546964	98.502245910887
5	788	1782.48733174654	91.138903164966
5	789	1783.452393286404	91.396361935928
5	790	1788.566797537917	95.009220426723
5	795	1797.746938412657	100.33741009823
5	796	1798.658312597448	95.786018787968
5	799	1808.320337435875	95.801101635941
5	800	1813.359972500605	88.371095988537
5	807	1821.931559119153	93.173295442904
5	820	1871.672870708396	131.14932605333
5	821	1876.022934489402	130.46611669413
5	833	1897.415423499783	150.78116488772
5	841	1928.325105959999	175.80236140388
5	848	1948.221438149547	195.52803744153
5	849	1948.327380428857	157.67400209926
5	856	1974.86780500025	181.94595158025
5	857	1977.157317220192	168.93575860273
5	860	1991.800022038923	175.00254209694
5	861	1994.524631347239	173.59787699454
5	862	2003.303970041539	182.09522430886
5	867	2014.03790358595	191.46231875709
5	868	2017.128920179163	193.82823323219
5	869	2022.969343566213	189.05008067713
5	872	2027.105992127327	187.71836257236
5	873	2028.670695805002	187.9730265499
5	874	2029.171972542817	180.97071021255
5	875	2032.916727738918	152.18281234323
5	880	2045.206571038463	162.14339907767
5	883	2049.668526187945	162.86366387474
5	886	2050.674732848709	157.07952747857
5	889	2058.642193098357	157.71193684938
5	890	2061.262726623092	156.55748175975
5	891	2068.136400747767	135.8359616628
5	894	2073.192678009453	137.78740693456
5	976	2251.097944314075	311.62244957203
5	977	2251.896772041547	288.47127851862
5	978	2262.307458623473	298.28134770035
5	979	2265.304952553623	295.53394635054
5	982	2273.50341388686	295.92141050658
5	983	2274.385732497952	269.73407777065
5	984	2277.582755423948	263.76626204516
5	985	2281.332715381022	255.26707471925
5	986	2285.670709467658	251.38742392092
5	989	2289.856853675037	252.46560817905
5	992	2301.102804150181	253.38666557899
5	993	2301.954491850737	252.25669232364
5	1021	2364.601714092401	310.26446373388
5	1022	2370.302578768608	299.76917371647
5	1040	2400.750797450803	325.10404091166
5	1045	2411.021400506054	326.65458960924
5	1050	2427.45839593541	332.43342427048
5	1051	2429.689158849697	314.11222600424
5	1062	2464.41615843721	331.57794569703
5	1063	2465.178976456723	313.2247080207
5	1066	2467.610009969892	291.80597513259
5	1069	2472.025830528795	291.58098537605
5	1072	2484.499707759772	294.21516832236
5	1073	2488.075286877731	286.53230582805
5	1074	2489.066459568788	285.74688358596
6	197	356.5813254123	1
6	202	362.521660136066	1
6	212	400.41477839754	2
6	214	400.989063535264	3
6	248	478.265615825747	1
6	259	498.462216923946	1
6	264	506.274101154578	1
6	278	543.861325420206	1
6	284	560.04194327393	1
6	291	586.69130007823	1
6	300	604.735245203313	1
6	302	605.155777816588	2
6	307	611.966540144215	1
6	309	614.333274271427	2
6	324	634.520473617099	1
6	330	641.589042052045	1
6	334	646.140911074391	2
6	340	669.370048180619	1
6	347	676.089550307947	1
6	360	715.645460968857	1
6	379	735.110182554916	1
6	381	739.538941641431	2
6	387	749.503152676415	1
6	393	770.914674302833	1
6	398	787.110693257764	1
6	410	811.167204134008	1
6	434	858.399036366918	1
6	438	867.088444874552	2
6	445	881.809084173332	2
6	458	913.018282051986	1
6	468	968.873454385473	1
6	478	1002.51878157638	1
6	485	1029.242586038515	1
6	489	1033.641092825581	2
6	491	1039.791114202476	3
6	505	1099.489056947826	1
6	512	1110.541336198966	1
6	514	1123.489536725241	2
6	536	1194.221935883371	1
6	547	1216.190203000085	1
6	551	1220.406967291869	2
6	553	1225.154657742576	3
6	560	1240.638952913731	3
6	573	1273.59487077883	1
6	578	1286.95495848667	1
6	582	1294.658978465549	2
6	591	1324.434619982293	1
6	593	1331.395607018128	2
6	604	1355.60478524757	1
6	608	1362.793164268834	2
6	613	1400.224333753695	1
6	635	1435.416693770565	1
6	643	1451.229788169275	1
6	651	1467.31286884861	2
6	658	1476.276237015556	2
6	661	1480.532117879222	2
6	673	1512.620878371213	1
6	684	1537.674109379175	1
6	705	1595.678269176451	1
6	717	1616.104092815001	1
6	726	1632.557720265987	1
6	734	1647.794972004337	1
6	743	1680.412202636077	1
6	754	1697.409528314427	1
6	761	1724.988876512068	1
6	763	1725.23706083006	2
6	767	1728.758263676249	1
6	780	1752.522744556116	1
6	794	1792.921853419995	1
6	798	1808.22155861746	1
6	804	1820.926754352695	1
6	809	1822.575584828858	1
6	827	1886.804862313205	1
6	829	1887.079489260505	2
6	835	1900.930256248978	1
6	839	1907.440788448399	2
6	845	1935.405271074888	1
6	888	2054.337250358517	1
6	893	2070.533405052142	1
6	896	2075.646756539144	1
6	898	2076.914782185927	2
6	900	2079.133756545541	3
6	902	2081.549383941071	4
6	904	2081.878085919375	5
6	911	2095.149543605838	5
6	913	2103.509230131846	6
6	918	2116.197895522037	6
6	924	2149.223735525897	5
6	928	2154.144608735228	6
6	931	2159.045226232794	6
6	933	2159.7706300103	7
6	957	2214.316810083452	2
6	964	2223.374868222643	2
6	995	2312.67934090531	1
6	997	2313.820088273974	2
6	999	2314.04164474955	3
6	1013	2342.03911326403	2
6	1028	2372.772414252373	1
6	1030	2380.837896134975	2
6	1042	2403.964648935548	1
6	1053	2433.433079546767	1
6	1057	2447.93178109452	2
6	1060	2461.038193796627	2
6	1065	2467.308126790654	1
6	1071	2475.318419721545	1
6	1080	2497.177872175454	1
7	197	356.5813254123	13
7	202	362.521660136066	14
7	248	478.265615825747	15
7	259	498.462216923946	16
7	264	506.274101154578	17
7	278	543.861325420206	18
7	284	560.04194327393	19
7	291	586.69130007823	20
7	300	604.735245203313	21
7	307	611.966540144215	22
7	324	634.520473617099	23
7	330	641.589042052045	24
7	340	669.370048180619	25
7	347	676.089550307947	26
7	360	715.645460968857	27
7	379	735.110182554916	28
7	387	749.503152676415	29
7	393	770.914674302833	30
7	398	787.110693257764	31
7	410	811.167204134008	32
7	434	858.399036366918	33
7	458	913.018282051986	34
7	468	968.873454385473	35
7	478	1002.51878157638	36
7	485	1029.242586038515	37
7	505	1099.489056947826	38
7	512	1110.541336198966	39
7	536	1194.221935883371	40
7	547	1216.190203000085	41
7	573	1273.59487077883	42
7	578	1286.95495848667	43
7	591	1324.434619982293	44
7	604	1355.60478524757	45
7	613	1400.224333753695	46
7	635	1435.416693770565	47
7	643	1451.229788169275	48
7	673	1512.620878371213	49
7	684	1537.674109379175	50
7	705	1595.678269176451	51
7	717	1616.104092815001	52
7	726	1632.557720265987	53
7	734	1647.794972004337	54
7	743	1680.412202636077	55
7	754	1697.409528314427	56
7	761	1724.988876512068	57
7	767	1728.758263676249	58
7	780	1752.522744556116	59
7	794	1792.921853419995	60
7	798	1808.22155861746	61
7	804	1820.926754352695	62
7	809	1822.575584828858	63
7	827	1886.804862313205	64
7	835	1900.930256248978	65
7	845	1935.405271074888	66
7	888	2054.337250358517	67
7	893	2070.533405052142	68
7	896	2075.646756539144	69
7	995	2312.67934090531	70
7	1028	2372.772414252373	71
7	1042	2403.964648935548	72
7	1053	2433.433079546767	73
7	1065	2467.308126790654	74
7	1071	2475.318419721545	75
7	1080	2497.177872175454	76
8	197	356.5813254123	0
8	202	362.521660136066	0
8	215	401.086666905247	0.671888507707
8	220	438.488759836795	37.499696301531
8	248	478.265615825747	0
8	259	498.462216923946	0
8	264	506.274101154578	0
8	278	543.861325420206	0
8	284	560.04194327393	0
8	291	586.69130007823	0
8	300	604.735245203313	0
8	303	605.240285369489	0.084507552901
8	307	611.966540144215	0
8	318	623.956871038458	9.623596767031
8	324	634.520473617099	0
8	330	641.589042052045	0
8	335	648.167468483758	2.026557409367
8	340	669.370048180619	0
8	347	676.089550307947	0
8	360	715.645460968857	0
8	379	735.110182554916	0
8	382	741.134747775435	1.595806134004
8	387	749.503152676415	0
8	393	770.914674302833	0
8	398	787.110693257764	0
8	410	811.167204134008	0
8	434	858.399036366918	0
8	441	868.174517676198	1.086072801646
8	450	895.931041719616	14.121957546284
8	458	913.018282051986	0
8	468	968.873454385473	0
8	478	1002.51878157638	0
8	485	1029.242586038515	0
8	492	1040.80069764267	7.159604817089
8	493	1049.874288556022	10.083174353546
8	505	1099.489056947826	0
8	512	1110.541336198966	0
8	517	1145.411922966454	21.922386241213
8	536	1194.221935883371	0
8	547	1216.190203000085	0
8	556	1229.365934788554	8.958967496685
8	563	1252.321496066675	27.166838324099
8	564	1255.532839427467	14.893886513736
8	573	1273.59487077883	0
8	578	1286.95495848667	0
8	583	1301.297539138189	6.63856067264
8	591	1324.434619982293	0
8	594	1340.125285045011	8.729678026883
8	604	1355.60478524757	0
8	609	1367.870012040663	5.076847771829
8	613	1400.224333753695	0
8	635	1435.416693770565	0
8	643	1451.229788169275	0
8	654	1472.507888459975	5.195019611365
8	659	1476.549725810328	0.273488794772
8	662	1481.052014853873	0.519896974651
8	673	1512.620878371213	0
8	684	1537.674109379175	0
8	705	1595.678269176451	0
8	717	1616.104092815001	0
8	726	1632.557720265987	0
8	734	1647.794972004337	0
8	743	1680.412202636077	0
8	754	1697.409528314427	0
8	761	1724.988876512068	0
8	764	1727.112344401824	1.875283571764
8	767	1728.758263676249	0
8	780	1752.522744556116	0
8	794	1792.921853419995	0
8	798	1808.22155861746	0
8	804	1820.926754352695	0
8	809	1822.575584828858	0
8	827	1886.804862313205	0
8	830	1888.723859839638	1.644370579133
8	835	1900.930256248978	0
8	840	1926.442847665435	19.002059217036
8	845	1935.405271074888	0
8	888	2054.337250358517	0
8	893	2070.533405052142	0
8	896	2075.646756539144	0
8	907	2094.588811682562	17.674029496635
8	914	2113.731911115951	34.59815457041
8	919	2119.415776804801	37.86639286373
8	920	2123.636064536755	41.75797861738
8	929	2157.39234062784	62.242797022002
8	934	2161.841259915977	58.332029784131
8	935	2163.22625366821	47.028358146173
8	936	2163.338082498002	14.114346972105
8	937	2175.285620057958	21.14101132273
8	940	2175.832518110118	16.787291877324
8	945	2199.940217008898	40.169586998598
8	958	2215.201284147437	0.884474063985
8	967	2241.221691902208	17.846823679565
8	995	2312.67934090531	0
8	1008	2338.838697069657	25.018608795683
8	1009	2340.360790040099	26.319145290549
8	1016	2350.973281230592	8.934167966562
8	1028	2372.772414252373	0
8	1037	2399.341640771869	18.503744636894
8	1042	2403.964648935548	0
8	1053	2433.433079546767	0
8	1058	2455.706090615847	7.774309521327
8	1061	2461.366936170688	0.328742374061
8	1065	2467.308126790654	0
8	1071	2475.318419721545	0
8	1080	2497.177872175454	0
9	199	359.911755656068	47
9	200	360.23949193878	48
9	224	449.012858891274	49
9	227	451.125171486252	50
9	230	452.841496175242	51
9	231	454.278545694674	52
9	232	455.260062894592	53
9	235	461.824204046205	54
9	236	462.165158720511	55
9	237	466.539299621101	56
9	242	474.135180290485	57
9	252	489.122296614314	58
9	253	490.287563906137	59
9	254	491.617236320927	60
9	255	495.927932879377	61
9	270	529.270404657652	62
9	271	534.975945752984	63
9	274	541.497012741577	64
9	275	542.012581085599	65
9	276	542.405504314988	66
9	282	556.151367044233	67
9	286	570.144886819692	68
9	287	571.183574209151	69
9	288	575.863025403686	70
9	289	585.731450237317	71
9	295	598.046254858266	72
9	298	604.686497511491	73
9	305	608.530266258781	74
9	322	633.705138072152	75
9	328	640.956046218062	76
9	351	696.338853930776	77
9	358	705.914068110379	78
9	368	725.254820832542	79
9	369	725.677218698785	80
9	370	726.805011285282	81
9	375	730.500720786427	82
9	389	760.048977820798	83
9	390	766.507829733227	84
9	391	766.815956832557	85
9	408	804.81660010615	86
9	416	815.660407080713	87
9	421	828.781838245317	88
9	422	830.219753034754	89
9	423	831.082598840544	90
9	430	849.421819401981	91
9	431	850.594013644982	92
9	432	856.329024334323	93
9	456	912.719460692482	94
9	462	942.644321000545	95
9	463	953.564960099429	96
9	466	964.9533157444	97
9	470	981.071875210339	98
9	471	982.650714625814	99
9	472	982.828257681488	100
9	473	993.396546922483	101
9	474	996.366009518514	102
9	475	998.40659389355	103
9	476	1001.85613386836	104
9	480	1016.027999635376	105
9	481	1020.439758288415	106
9	482	1022.94765711248	107
9	483	1027.021616096328	108
9	497	1052.183217537046	109
9	498	1067.544492030813	110
9	503	1092.501069980526	111
9	509	1109.338431645081	112
9	510	1109.74619273345	113
9	525	1166.610855185467	114
9	526	1169.891474091991	115
9	527	1172.684389351976	116
9	528	1177.879173954437	117
9	533	1187.001817175362	118
9	534	1192.217899760442	119
9	540	1202.25389250108	120
9	543	1211.343339780842	121
9	566	1264.872528641259	122
9	569	1266.192248832246	123
9	570	1267.726427361587	124
9	571	1268.24844366611	125
9	587	1314.851827593542	126
9	588	1315.931271851977	127
9	589	1316.026195945484	128
9	600	1353.888694147281	129
9	611	1398.070735587535	130
9	615	1404.649507733019	131
9	622	1422.06057050294	132
9	633	1434.396973439946	133
9	641	1449.684075122955	134
9	668	1496.003915192332	135
9	669	1499.000162187865	136
9	670	1500.919850111611	137
9	671	1507.216224068396	138
9	677	1517.984952649404	139
9	678	1526.227203060804	140
9	681	1533.976455226238	141
9	682	1536.207359377084	142
9	686	1552.636284335262	143
9	687	1554.529098415635	144
9	688	1555.047254807734	145
9	689	1558.038268212348	146
9	694	1564.790835956056	147
9	697	1573.655782956693	148
9	698	1580.396698886068	149
9	701	1592.130478283624	150
9	713	1603.690461242775	151
9	714	1610.773891517318	152
9	715	1615.232918986076	153
9	721	1619.023587318756	154
9	724	1621.638649986424	155
9	728	1642.471073750405	156
9	731	1643.96331953984	157
9	732	1645.536727873237	158
9	738	1666.07268474027	159
9	741	1674.671403980424	160
9	745	1683.622222745783	161
9	746	1684.019880643364	162
9	769	1733.58035055151	163
9	772	1742.723120042625	164
9	777	1746.735923883635	165
9	778	1747.770455512514	166
9	784	1759.423678975837	167
9	785	1773.576265399944	168
9	786	1778.24101815904	169
9	787	1778.914448546964	170
9	788	1782.48733174654	171
9	789	1783.452393286404	172
9	790	1788.566797537917	173
9	796	1798.658312597448	174
9	800	1813.359972500605	175
9	821	1876.022934489402	176
9	849	1948.327380428857	177
9	856	1974.86780500025	178
9	857	1977.157317220192	179
9	860	1991.800022038923	180
9	861	1994.524631347239	181
9	862	2003.303970041539	182
9	867	2014.03790358595	183
9	868	2017.128920179163	184
9	869	2022.969343566213	185
9	872	2027.105992127327	186
9	873	2028.670695805002	187
9	874	2029.171972542817	188
9	875	2032.916727738918	189
9	880	2045.206571038463	190
9	883	2049.668526187945	191
9	886	2050.674732848709	192
9	890	2061.262726623092	193
9	891	2068.136400747767	194
9	977	2251.896772041547	195
9	978	2262.307458623473	196
9	979	2265.304952553623	197
9	982	2273.50341388686	198
9	983	2274.385732497952	199
9	984	2277.582755423948	200
9	985	2281.332715381022	201
9	986	2285.670709467658	202
9	989	2289.856853675037	203
9	992	2301.102804150181	204
9	993	2301.954491850737	205
9	1022	2370.302578768608	206
9	1050	2427.45839593541	207
9	1051	2429.689158849697	208
9	1063	2465.178976456723	209
9	1069	2472.025830528795	210
9	1073	2488.075286877731	211
9	1074	2489.066459568788	212
10	199	359.911755656068	24.150357275629
10	200	360.23949193878	20.497662438217
10	224	449.012858891274	95.593026190718
10	227	451.125171486252	97.096027008147
10	230	452.841496175242	96.260170762942
10	231	454.278545694674	91.756885558608
10	232	455.260062894592	87.269696770716
10	235	461.824204046205	91.60844737458
10	236	462.165158720511	84.112794307655
10	237	466.539299621101	74.168131671807
10	242	474.135180290485	67.188668110539
10	252	489.122296614314	45.110894687229
10	253	490.287563906137	39.306897378567
10	254	491.617236320927	39.886948474347
10	255	495.927932879377	38.170265682131
10	270	529.270404657652	54.74066304675
10	271	534.975945752984	59.431765140501
10	274	541.497012741577	63.23139691583
10	275	542.012581085599	54.915797834025
10	276	542.405504314988	44.25584654248
10	282	556.151367044233	52.14350606809
10	286	570.144886819692	48.532399045297
10	287	571.183574209151	43.260040993619
10	288	575.863025403686	38.417941224982
10	289	585.731450237317	41.870124817111
10	295	598.046254858266	38.004311584336
10	298	604.686497511491	17.995197433261
10	305	608.530266258781	6.325883589701
10	322	633.705138072152	21.738597927937
10	328	640.956046218062	22.490372245817
10	351	696.338853930776	61.818380313677
10	358	705.914068110379	66.065583567484
10	368	725.254820832542	82.596050326475
10	369	725.677218698785	66.082514865139
10	370	726.805011285282	57.434963104663
10	375	730.500720786427	56.67128466057
10	389	760.048977820798	69.138835392795
10	390	766.507829733227	66.970027708041
10	391	766.815956832557	65.537843882919
10	408	804.81660010615	84.148471124077
10	416	815.660407080713	90.905215065342
10	421	828.781838245317	101.81214938244
10	422	830.219753034754	99.85912293656
10	423	831.082598840544	97.554418888608
10	430	849.421819401981	114.31163684707
10	431	850.594013644982	102.63634785186
10	432	856.329024334323	106.82587165791
10	456	912.719460692482	127.10299582946
10	462	942.644321000545	148.4468034007
10	463	953.564960099429	156.94126069746
10	466	964.9533157444	168.22622667381
10	470	981.071875210339	169.90467107633
10	471	982.650714625814	167.2279275934
10	472	982.828257681488	167.21975731089
10	473	993.396546922483	177.46196151099
10	474	996.366009518514	170.83969570843
10	475	998.40659389355	162.73158469492
10	476	1001.85613386836	163.56221087271
10	480	1016.027999635376	157.62896326846
10	481	1020.439758288415	157.59002600147
10	482	1022.94765711248	155.1284676042
10	483	1027.021616096328	150.42570989217
10	497	1052.183217537046	162.05742686882
10	498	1067.544492030813	167.696406899
10	503	1092.501069980526	180.2999725454
10	509	1109.338431645081	184.59310276742
10	510	1109.74619273345	149.22908626415
10	525	1166.610855185467	164.09207360909
10	526	1169.891474091991	140.64888805348
10	527	1172.684389351976	139.3003796446
10	528	1177.879173954437	127.88579321413
10	533	1187.001817175362	104.01717811475
10	534	1192.217899760442	103.6005706069
10	540	1202.25389250108	99.128304878066
10	543	1211.343339780842	100.80200358188
10	566	1264.872528641259	117.82394143505
10	569	1266.192248832246	118.65429987571
10	570	1267.726427361587	102.82181976218
10	571	1268.24844366611	90.146938869933
10	587	1314.851827593542	119.77357179176
10	588	1315.931271851977	108.53011528528
10	589	1316.026195945484	101.13833117575
10	600	1353.888694147281	135.91394571516
10	611	1398.070735587535	162.69185741318
10	615	1404.649507733019	139.15611095377
10	622	1422.06057050294	148.46569972411
10	633	1434.396973439946	157.42754638704
10	641	1449.684075122955	157.37273433721
10	668	1496.003915192332	171.56929521004
10	669	1499.000162187865	154.88405813097
10	670	1500.919850111611	155.6063844845
10	671	1507.216224068396	152.61663703331
10	677	1517.984952649404	161.16439180556
10	678	1526.227203060804	126.00286930711
10	681	1533.976455226238	128.17240437504
10	682	1536.207359377084	117.62642499961
10	686	1552.636284335262	128.26446953719
10	687	1554.529098415635	128.44834416941
10	688	1555.047254807734	124.82368089081
10	689	1558.038268212348	125.86381265175
10	694	1564.790835956056	130.95057119
10	697	1573.655782956693	138.23908918613
10	698	1580.396698886068	142.15688967637
10	701	1592.130478283624	152.83068399832
10	713	1603.690461242775	151.03630635415
10	714	1610.773891517318	152.88995985124
10	715	1615.232918986076	151.95910631761
10	721	1619.023587318756	144.03776347766
10	724	1621.638649986424	133.15433881532
10	728	1642.471073750405	129.85019537919
10	731	1643.96331953984	129.83261191571
10	732	1645.536727873237	118.55779069462
10	738	1666.07268474027	105.12383645381
10	741	1674.671403980424	110.12990118682
10	745	1683.622222745783	94.547585104618
10	746	1684.019880643364	89.829934226079
10	769	1733.58035055151	133.12098680964
10	772	1742.723120042625	126.61902722762
10	777	1746.735923883635	128.65299590149
10	778	1747.770455512514	128.36146982383
10	784	1759.423678975837	115.95286941687
10	785	1773.576265399944	125.78129339561
10	786	1778.24101815904	123.46852758845
10	787	1778.914448546964	109.6117738356
10	788	1782.48733174654	102.07512911046
10	789	1783.452393286404	92.10396470483
10	790	1788.566797537917	96.510766187441
10	796	1798.658312597448	101.24878428302
10	800	1813.359972500605	100.84073670067
10	821	1876.022934489402	135.49938983434
10	849	1948.327380428857	195.63397972084
10	856	1974.86780500025	184.21442667065
10	857	1977.157317220192	184.2354638002
10	860	1991.800022038923	183.57846342146
10	861	1994.524631347239	177.72715140526
10	862	2003.303970041539	182.37721568884
10	867	2014.03790358595	192.82915785327
10	868	2017.128920179163	194.5533353503
10	869	2022.969343566213	199.66865661924
10	872	2027.105992127327	193.18672923824
10	873	2028.670695805002	189.28306625003
10	874	2029.171972542817	188.47430328771
10	875	2032.916727738918	184.71546540865
10	880	2045.206571038463	164.47265564277
10	883	2049.668526187945	166.60535422716
10	886	2050.674732848709	163.8698705355
10	890	2061.262726623092	160.33247037411
10	891	2068.136400747767	163.43115588442
10	977	2251.896772041547	312.4212772995
10	978	2262.307458623473	298.88196510054
10	979	2265.304952553623	301.2788416305
10	982	2273.50341388686	303.73240768378
10	983	2274.385732497952	296.80372911767
10	984	2277.582755423948	272.93110069665
10	985	2281.332715381022	267.51622200224
10	986	2285.670709467658	259.60506880588
10	989	2289.856853675037	255.5735681283
10	992	2301.102804150181	263.71155865419
10	993	2301.954491850737	254.23835327955
10	1022	2370.302578768608	315.96532841009
10	1050	2427.45839593541	343.0915850386
10	1051	2429.689158849697	334.66418718476
10	1063	2465.178976456723	332.34076371654
10	1069	2472.025830528795	296.2217956915
10	1073	2488.075286877731	297.79074744032
10	1074	2489.066459568788	287.52347851911
11	1081	2500	0.0848
12	1081	2500	0.048

