file 60200 1678560051                                           
version 2
run experiments_hard_game_mode1-419-20230311-19:40:51-6769
attr configname experiments_hard_game_mode1
attr datetime 20230311-19:40:51
attr experiment experiments_hard_game_mode1
attr inifile omnetpp.ini
attr iterationvars "$0=8, $1=4, $2=100"
attr iterationvarsf 8,4,100-
attr measurement "$0=8, $1=4, $2=100"
attr network Network
attr processid 6769
attr repetition 29
attr replication #29
attr resultdir results
attr runnumber 419
attr seedset 29
param *.boss.arrival_mean 20
param *.boss.service_mean 8
param *.minion.arrival_mean 10
param *.minion.service_mean 4
param *.player.recover_rate_x 100
param **.minion.arrival_distribution 0
param **.minion.service_distribution 0
param **.boss.arrival_distribution 0
param **.boss.service_distribution 0

vector 0 Network.player minion_defeated_stat:vector ETV
attr source signal_minion_defeated
vector 1 Network.player minion_jobs_queue_number_stat:vector ETV
attr source signal_minion_jobs_queue_number
vector 2 Network.player minion_response_time_stat:vector ETV
attr source signal_minion_response_time
vector 3 Network.player minion_waiting_time_stat:vector ETV
attr source signal_minion_waiting_time
vector 4 Network.player boss_jobs_number_stat:vector ETV
attr source signal_boss_jobs_number
vector 5 Network.player boss_jobs_queue_number_stat:vector ETV
attr source signal_boss_jobs_queue_number
vector 6 Network.player boss_waiting_time_stat:vector ETV
attr source signal_boss_waiting_time
vector 7 Network.player boss_defeated_stat:vector ETV
attr source signal_boss_defeated
vector 8 Network.player boss_response_time_stat:vector ETV
attr source signal_boss_response_time
vector 9 Network.player minion_jobs_number_stat:vector ETV
attr source signal_minion_jobs_number
vector 10 Network.player minion_recovered_stat:vector ETV
attr source signal_minion_recovered
vector 11 Network.player minion_throughput:vector ETV
attr source signal_minion_throughput
vector 12 Network.player boss_throughput:vector ETV
attr source signal_boss_throughput
0	2011 5777 145 1074 352.810457960821 2472.149794568349 211 34 244 29329 4859541
1	7788 10769 145 1074 352.810457960821 2472.149794568349 419 0 11 1141 5987
2	18557 8285 145 1074 352.810457960821 2472.149794568349 211 0.088401292238 129.14716631652 5438.8482539142 282061.71389243
3	26842 9285 145 1073 352.810457960821 2471.259471853805 251 0 116.96027800981 5469.0553022647 279229.76488631
4	36127 2590 149 1064 361.021825549164 2455.75371522284 101 1 6 165 373
5	38717 5192 149 1065 361.021825549164 2456.170032065836 202 0 5 128 288
6	43909 3110 149 1064 361.021825549164 2455.75371522284 101 0 48.218049466333 424.14543833688 11158.281978522
7	47019 2718 150 1065 363.588817060869 2456.170032065836 101 14 114 6464 499546
8	49737 3947 150 1065 363.588817060869 2456.170032065836 101 0.354490034924 65.482862102447 1175.0753676945 29216.653236395
9	53684 5347 156 1071 379.608095313354 2464.886615128397 208 1 12 777 4337
10	59031 1128 202 1031 545.373125084985 2367.255355255618 41 5 45 1025 31365
11	60159 20 1075 1075 2500 2500 1 0.0976 0.0976 0.0976 0.00952576
12	60179 20 1075 1075 2500 2500 1 0.0456 0.0456 0.0456 0.00207936

