version 2
run experiments_hard_game_mode1-845-20230311-19:42:21-9070
attr configname experiments_hard_game_mode1
attr datetime 20230311-19:42:21
attr experiment experiments_hard_game_mode1
attr inifile omnetpp.ini
attr iterationvars "$0=8.5, $1=7, $2=0"
attr iterationvarsf 8.5,7,0-
attr measurement "$0=8.5, $1=7, $2=0"
attr network Network
attr processid 9070
attr repetition 5
attr replication #5
attr resultdir results
attr runnumber 845
attr seedset 5
param *.boss.arrival_mean 20
param *.boss.service_mean 8.5
param *.minion.arrival_mean 10
param *.minion.service_mean 7
param *.player.recover_rate_x 0
param **.minion.arrival_distribution 0
param **.minion.service_distribution 0
param **.boss.arrival_distribution 0
param **.boss.service_distribution 0

vector 0 Network.player boss_defeated_stat:vector ETV
attr source signal_boss_defeated
vector 1 Network.player boss_jobs_queue_number_stat:vector ETV
attr source signal_boss_jobs_queue_number
vector 2 Network.player boss_response_time_stat:vector ETV
attr source signal_boss_response_time
vector 3 Network.player minion_jobs_number_stat:vector ETV
attr source signal_minion_jobs_number
vector 4 Network.player minion_jobs_queue_number_stat:vector ETV
attr source signal_minion_jobs_queue_number
vector 5 Network.player minion_waiting_time_stat:vector ETV
attr source signal_minion_waiting_time
vector 6 Network.player minion_defeated_stat:vector ETV
attr source signal_minion_defeated
vector 7 Network.player minion_response_time_stat:vector ETV
attr source signal_minion_response_time
vector 8 Network.player boss_jobs_number_stat:vector ETV
attr source signal_boss_jobs_number
vector 9 Network.player boss_waiting_time_stat:vector ETV
attr source signal_boss_waiting_time
vector 10 Network.player minion_recovered_stat:vector ETV
attr source signal_minion_recovered
vector 11 Network.player minion_throughput:vector ETV
attr source signal_minion_throughput
vector 12 Network.player boss_throughput:vector ETV
attr source signal_boss_throughput
0	132	354.012142312903	19
0	145	386.64041969547	20
0	146	386.661397023573	21
0	149	398.601815807848	22
0	161	420.245759904109	23
0	182	469.250838460137	24
0	187	487.630958732696	25
0	188	487.631665059038	26
0	189	490.668378295252	27
0	208	539.464835715781	28
0	209	547.034755506682	29
0	210	551.652067671102	30
0	219	584.260693674074	31
0	220	593.987355319773	32
0	225	609.839308274498	33
0	228	621.712690809613	34
0	233	628.350245166931	35
0	242	645.573233354859	36
0	252	665.399765194942	37
0	255	669.670414016835	38
0	256	672.556888980346	39
0	278	717.592612986738	40
0	289	755.953989675249	41
0	306	803.765874827103	42
0	316	831.22419086351	43
0	350	886.894655497665	44
0	353	888.332706090837	45
0	362	900.481930333197	46
0	368	907.592935320694	47
0	380	924.862540811536	48
0	385	949.089092347312	49
0	398	965.87967304499	50
0	406	983.125645659737	51
0	416	994.0205319366	52
0	430	1020.90323465902	53
0	449	1095.584568040901	54
0	450	1099.200438998679	55
0	460	1112.403391474645	56
0	484	1176.26164600465	57
0	493	1206.745594855364	58
0	516	1283.745384156634	59
0	536	1337.105270069169	60
0	552	1369.32602244427	61
0	572	1413.75209162543	62
0	584	1453.157055190779	63
0	592	1470.657513555367	64
0	593	1471.736631061266	65
0	597	1474.765881594154	66
0	605	1486.303918293157	67
0	611	1508.936110082895	68
0	626	1542.108745708414	69
0	629	1549.259194257812	70
0	636	1571.846227980433	71
0	667	1635.558909016871	72
0	676	1656.322839581076	73
0	685	1677.837021493693	74
0	690	1683.143918411106	75
0	691	1684.344095196688	76
0	695	1692.723611478719	77
0	706	1711.014854201432	78
0	711	1717.764010897116	79
0	720	1744.546340218132	80
0	721	1752.093590519234	81
0	746	1824.480301847344	82
0	749	1837.107137720597	83
0	756	1857.046037059533	84
0	759	1866.112685137009	85
0	762	1869.057512034129	86
0	765	1875.991660560474	87
0	766	1877.347474012004	88
0	767	1879.016157847285	89
0	773	1884.373850838077	90
0	784	1908.511465786115	91
0	796	1955.73703558199	92
0	802	1973.339272158328	93
0	806	1979.68566933538	94
0	811	1986.653472095958	95
0	824	2006.706381321368	96
0	825	2012.314844094243	97
0	842	2045.952593529838	98
0	856	2079.563206274482	99
0	857	2079.821560746272	100
0	868	2100.358640329106	101
0	875	2118.270015624338	102
0	876	2124.260243388873	103
0	880	2131.646377695241	104
0	890	2163.958664294244	105
0	901	2181.689839860934	106
0	910	2197.989152978736	107
0	911	2198.223554893546	108
0	948	2266.100259732842	109
0	963	2296.24683390051	110
0	970	2319.843589874787	111
0	996	2376.634599092126	112
0	999	2381.963381461174	113
0	1006	2394.781519157593	114
0	1007	2412.731520068679	115
0	1016	2450.154260941917	116
0	1017	2451.510739050944	117
0	1024	2465.831225783094	118
0	1029	2471.065624891207	119
0	1030	2484.569751151797	120
1	132	354.012142312903	0
1	140	381.910508285344	0
1	142	382.12216177113	1
1	144	385.458599038288	2
1	145	386.64041969547	2
1	146	386.661397023573	1
1	149	398.601815807848	0
1	152	401.932998597983	0
1	154	404.293112790177	1
1	161	420.245759904109	1
1	169	437.903864460807	1
1	171	439.767450543379	2
1	179	467.105152708054	3
1	182	469.250838460137	3
1	187	487.630958732696	2
1	188	487.631665059038	1
1	189	490.668378295252	0
1	197	507.778352471988	0
1	199	511.970843354015	1
1	201	523.641403692857	2
1	203	523.764599663184	3
1	205	526.525142992614	4
1	208	539.464835715781	4
1	209	547.034755506682	3
1	210	551.652067671102	2
1	212	556.097184880185	2
1	214	564.45633319999	3
1	219	584.260693674074	3
1	220	593.987355319773	2
1	225	609.839308274498	1
1	228	621.712690809613	0
1	232	627.778284939314	0
1	233	628.350245166931	0
1	239	638.222539276565	0
1	242	645.573233354859	0
1	249	662.431607004495	0
1	251	662.436923341715	1
1	252	665.399765194942	1
1	254	669.501349085891	1
1	255	669.670414016835	1
1	256	672.556888980346	0
1	275	712.041199677948	0
1	278	717.592612986738	0
1	286	741.260931673624	0
1	289	755.953989675249	0
1	303	799.551242766425	0
1	306	803.765874827103	0
1	313	822.860284331871	0
1	316	831.22419086351	0
1	345	877.543810870645	0
1	350	886.894655497665	0
1	352	887.337605029767	0
1	353	888.332706090837	0
1	355	888.487505027603	0
1	362	900.481930333197	0
1	367	907.588439234243	0
1	368	907.592935320694	0
1	371	909.614822051967	0
1	379	920.771602651114	1
1	380	924.862540811536	1
1	385	949.089092347312	0
1	397	964.27347470108	0
1	398	965.87967304499	0
1	405	981.828805080065	0
1	406	983.125645659737	0
1	413	991.993690733228	0
1	416	994.0205319366	0
1	425	1016.249624094874	0
1	430	1020.90323465902	0
1	444	1077.928705248913	0
1	446	1080.302015026252	1
1	449	1095.584568040901	1
1	450	1099.200438998679	0
1	459	1107.584578418003	0
1	460	1112.403391474645	0
1	475	1158.933809594803	0
1	484	1176.26164600465	0
1	492	1188.996723057024	0
1	493	1206.745594855364	0
1	515	1278.988197943606	0
1	516	1283.745384156634	0
1	535	1331.699076905576	0
1	536	1337.105270069169	0
1	547	1354.3265869964	0
1	552	1369.32602244427	0
1	571	1410.690821772367	0
1	572	1413.75209162543	0
1	581	1442.401810080516	0
1	584	1453.157055190779	0
1	587	1458.263650676793	0
1	589	1458.853799594753	1
1	592	1470.657513555367	1
1	593	1471.736631061266	0
1	596	1474.67750170795	0
1	597	1474.765881594154	0
1	600	1478.591938273987	0
1	605	1486.303918293157	0
1	608	1499.350124495382	0
1	611	1508.936110082895	0
1	625	1540.927398831871	0
1	626	1542.108745708414	0
1	628	1543.83572861612	0
1	629	1549.259194257812	0
1	635	1571.160236717777	0
1	636	1571.846227980433	0
1	662	1627.011532211296	0
1	667	1635.558909016871	0
1	669	1641.200728983196	0
1	673	1649.139788179428	1
1	675	1651.886764969815	2
1	676	1656.322839581076	2
1	685	1677.837021493693	1
1	687	1677.97722850772	1
1	690	1683.143918411106	1
1	691	1684.344095196688	0
1	694	1691.221218932796	0
1	695	1692.723611478719	0
1	697	1695.469903337416	0
1	703	1709.973952942435	1
1	706	1711.014854201432	1
1	711	1717.764010897116	0
1	715	1734.173751778239	0
1	719	1741.631715878164	1
1	720	1744.546340218132	1
1	721	1752.093590519234	0
1	731	1795.251777029999	0
1	733	1796.186514870931	1
1	739	1810.233699922377	2
1	745	1821.747407345427	3
1	746	1824.480301847344	3
1	749	1837.107137720597	2
1	753	1852.560548192826	2
1	755	1854.576513861016	3
1	756	1857.046037059533	3
1	759	1866.112685137009	2
1	761	1868.175832967458	2
1	762	1869.057512034129	2
1	764	1869.101112407136	2
1	765	1875.991660560474	2
1	766	1877.347474012004	1
1	767	1879.016157847285	0
1	770	1883.079443135498	0
1	773	1884.373850838077	0
1	783	1906.172223784969	0
1	784	1908.511465786115	0
1	793	1929.509174591028	0
1	796	1955.73703558199	0
1	799	1967.343964080476	0
1	802	1973.339272158328	0
1	805	1979.682068380707	0
1	806	1979.68566933538	0
1	808	1982.357432335051	0
1	811	1986.653472095958	0
1	821	2003.786686497585	0
1	823	2006.5504223079	1
1	824	2006.706381321368	1
1	825	2012.314844094243	0
1	841	2040.249635521158	0
1	842	2045.952593529838	0
1	845	2053.063007369747	0
1	855	2076.247451695774	1
1	856	2079.563206274482	1
1	857	2079.821560746272	0
1	859	2080.649378436169	0
1	861	2086.329528345313	1
1	868	2100.358640329106	1
1	874	2116.760152658708	1
1	875	2118.270015624338	1
1	876	2124.260243388873	0
1	879	2130.649701280081	0
1	880	2131.646377695241	0
1	885	2149.349687489204	0
1	890	2163.958664294244	0
1	896	2171.319197265902	0
1	901	2181.689839860934	0
1	903	2183.040962897326	0
1	905	2183.478361293144	1
1	910	2197.989152978736	1
1	911	2198.223554893546	0
1	945	2263.858396856056	0
1	948	2266.100259732842	0
1	962	2294.457992447564	0
1	963	2296.24683390051	0
1	969	2319.143568197383	0
1	970	2319.843589874787	0
1	991	2364.097716176362	0
1	995	2369.034416376807	1
1	996	2376.634599092126	1
1	998	2379.332298766566	1
1	999	2381.963381461174	1
1	1003	2382.99845866801	1
1	1006	2394.781519157593	1
1	1007	2412.731520068679	0
1	1011	2420.064793868789	0
1	1015	2435.541766541786	1
1	1016	2450.154260941917	1
1	1017	2451.510739050944	0
1	1023	2461.309526535168	0
1	1024	2465.831225783094	0
1	1026	2468.83020005602	0
1	1028	2471.034788360199	1
1	1029	2471.065624891207	1
1	1030	2484.569751151797	0
2	132	354.012142312903	4.512730352022
2	145	386.64041969547	4.729911410126
2	146	386.661397023573	4.539235252443
2	149	398.601815807848	13.14321676956
2	161	420.245759904109	18.312761306126
2	182	469.250838460137	64.95772566996
2	187	487.630958732696	49.727094271889
2	188	487.631665059038	47.864214515659
2	189	490.668378295252	23.563225587198
2	208	539.464835715781	31.686483243793
2	209	547.034755506682	35.063912152667
2	210	551.652067671102	28.010663978245
2	219	584.260693674074	60.49609401089
2	220	593.987355319773	67.462212327159
2	225	609.839308274498	53.742123394313
2	228	621.712690809613	57.256357609623
2	233	628.350245166931	0.571960227617
2	242	645.573233354859	7.350694078294
2	252	665.399765194942	2.968158190447
2	255	669.670414016835	7.23349067512
2	256	672.556888980346	3.055539894455
2	278	717.592612986738	5.55141330879
2	289	755.953989675249	14.693058001625
2	306	803.765874827103	4.214632060678
2	316	831.22419086351	8.363906531639
2	350	886.894655497665	9.35084462702
2	353	888.332706090837	0.99510106107
2	362	900.481930333197	11.994425305594
2	368	907.592935320694	0.004496086451
2	380	924.862540811536	15.247718759569
2	385	949.089092347312	28.317489696198
2	398	965.87967304499	1.60619834391
2	406	983.125645659737	1.296840579672
2	416	994.0205319366	2.026841203372
2	430	1020.90323465902	4.653610564146
2	449	1095.584568040901	17.655862791988
2	450	1099.200438998679	18.898423972427
2	460	1112.403391474645	4.818813056642
2	484	1176.26164600465	17.327836409847
2	493	1206.745594855364	17.74887179834
2	516	1283.745384156634	4.757186213028
2	536	1337.105270069169	5.406193163593
2	552	1369.32602244427	14.99943544787
2	572	1413.75209162543	3.061269853063
2	584	1453.157055190779	10.755245110263
2	592	1470.657513555367	12.393862878574
2	593	1471.736631061266	12.882831466513
2	597	1474.765881594154	0.088379886204
2	605	1486.303918293157	7.71198001917
2	611	1508.936110082895	9.585985587513
2	626	1542.108745708414	1.181346876543
2	629	1549.259194257812	5.423465641692
2	636	1571.846227980433	0.685991262656
2	667	1635.558909016871	8.547376805575
2	676	1656.322839581076	15.12211059788
2	685	1677.837021493693	28.697233314265
2	690	1683.143918411106	31.257153441291
2	691	1684.344095196688	6.366866688968
2	695	1692.723611478719	1.502392545923
2	706	1711.014854201432	15.544950864016
2	711	1717.764010897116	7.790057954681
2	720	1744.546340218132	10.372588439893
2	721	1752.093590519234	10.46187464107
2	746	1824.480301847344	29.228524817345
2	749	1837.107137720597	40.920622849666
2	756	1857.046037059533	46.812337137156
2	759	1866.112685137009	44.365277791582
2	762	1869.057512034129	16.496963841303
2	765	1875.991660560474	21.415146699458
2	766	1877.347474012004	9.171641044546
2	767	1879.016157847285	9.915045440149
2	773	1884.373850838077	1.294407702579
2	784	1908.511465786115	2.339242001146
2	796	1955.73703558199	26.227860990962
2	802	1973.339272158328	5.995308077852
2	806	1979.68566933538	0.003600954673
2	811	1986.653472095958	4.296039760907
2	824	2006.706381321368	2.919694823783
2	825	2012.314844094243	5.764421786343
2	842	2045.952593529838	5.70295800868
2	856	2079.563206274482	26.500198904735
2	857	2079.821560746272	3.574109050498
2	868	2100.358640329106	19.709261892937
2	875	2118.270015624338	31.940487279025
2	876	2124.260243388873	7.500090730165
2	880	2131.646377695241	0.99667641516
2	890	2163.958664294244	14.60897680504
2	901	2181.689839860934	10.370642595032
2	910	2197.989152978736	14.94819008141
2	911	2198.223554893546	14.745193600402
2	948	2266.100259732842	2.241862876786
2	963	2296.24683390051	1.788841452946
2	970	2319.843589874787	0.700021677404
2	996	2376.634599092126	12.536882915764
2	999	2381.963381461174	12.928965084367
2	1006	2394.781519157593	15.449220391027
2	1007	2412.731520068679	29.733061400669
2	1016	2450.154260941917	30.089467073128
2	1017	2451.510739050944	15.968972509158
2	1024	2465.831225783094	4.521699247926
2	1029	2471.065624891207	2.235424835187
2	1030	2484.569751151797	13.534962791598
3	134	354.172507827807	1
3	137	373.165573927013	1
3	148	393.279838510632	1
3	156	408.207277351423	1
3	158	411.99829745011	2
3	160	412.37183081957	3
3	163	436.073400872944	4
3	165	437.314233815506	5
3	167	437.327952946813	6
3	173	451.242256151972	7
3	175	459.810452974783	8
3	177	462.544540123058	9
3	181	468.979055047066	10
3	184	471.920162134502	11
3	186	475.095408618298	12
3	191	494.588354537745	13
3	194	497.713550616588	13
3	207	527.626775085374	13
3	216	571.143215401286	14
3	218	579.391432256081	15
3	222	605.943574795199	16
3	224	607.913223543641	17
3	227	609.957947543076	18
3	230	624.665666816139	19
3	235	630.706851864441	20
3	237	637.487093734645	21
3	241	643.417267897842	22
3	245	653.393714807935	22
3	247	656.310268947339	23
3	258	674.6047529137	24
3	263	695.335114389194	22
3	267	701.516242444663	21
3	270	704.925125838561	21
3	273	711.815483747498	21
3	277	715.664169776615	22
3	281	727.040126940911	22
3	283	735.618888755847	23
3	288	746.139589939481	23
3	291	762.644089716245	24
3	293	765.774707186922	25
3	295	768.538631314541	26
3	297	769.235612506848	27
3	300	787.248359323836	27
3	305	802.008149240264	27
3	308	815.757023724541	28
3	311	822.315232027055	28
3	315	828.136835226231	29
3	318	832.129773314188	30
3	320	833.062464632352	31
3	323	840.209054935251	31
3	327	845.043579502083	30
3	330	848.103789288935	30
3	334	853.51756743213	29
3	336	857.235620783026	30
3	342	871.716141047027	27
3	347	881.573981200952	27
3	349	883.796395950465	28
3	357	891.948409974863	29
3	359	892.451265341315	30
3	361	896.287023108023	31
3	365	907.496880138223	31
3	373	912.519557305623	31
3	375	912.719751269411	32
3	377	915.703469079402	33
3	382	931.627609079209	34
3	384	940.35611761368	35
3	388	952.926673196333	35
3	390	954.689615315032	36
3	393	958.18994317615	36
3	400	967.306304503991	35
3	402	971.293520383222	36
3	409	988.770386098451	35
3	411	991.89196686214	36
3	415	993.592636988663	37
3	418	995.06088645478	38
3	420	1008.314780315635	39
3	423	1012.966214610902	39
3	427	1018.219575777321	40
3	429	1018.378246406112	41
3	432	1033.460060157527	42
3	435	1037.687100701228	42
3	440	1053.982005230281	40
3	448	1087.119359711866	39
3	454	1102.540491660609	38
3	456	1104.720238786165	39
3	462	1113.692156924454	39
3	471	1148.073931961739	33
3	477	1158.994943503307	32
3	479	1159.869971217089	33
3	481	1170.270592856227	34
3	483	1172.886145916887	35
3	486	1178.431073673036	36
3	488	1180.180260533885	37
3	490	1187.386849011417	38
3	497	1213.938108252133	37
3	499	1220.894768537029	38
3	503	1246.89843674697	37
3	505	1247.276325723585	38
3	509	1266.056222790817	37
3	513	1278.370214318002	36
3	518	1284.448987743469	37
3	520	1294.136166031973	38
3	523	1301.96258254879	38
3	527	1317.004740683419	37
3	529	1321.089472312076	38
3	531	1327.240403897141	39
3	538	1339.31192988468	38
3	542	1344.089152158986	37
3	545	1354.139097917223	37
3	549	1357.590687385923	38
3	551	1362.401640317386	39
3	554	1370.548662839093	40
3	560	1393.477834516225	37
3	563	1394.357009853883	37
3	566	1399.467597341814	37
3	569	1409.444819982285	37
3	574	1413.916469106427	38
3	583	1442.842899766702	34
3	591	1460.245386861678	34
3	602	1482.431277285998	33
3	604	1482.922469037112	34
3	610	1504.007678257348	34
3	613	1516.603279450633	35
3	616	1520.830688733209	35
3	618	1521.897440116271	36
3	623	1534.041056993256	34
3	632	1567.933072131845	34
3	638	1575.426811134132	34
3	641	1577.614321941095	34
3	645	1588.382349111459	33
3	652	1604.98445020996	29
3	654	1608.10816906207	30
3	656	1611.611585584382	31
3	660	1620.970579796187	30
3	664	1629.016241169596	31
3	666	1629.509796788956	32
3	671	1645.107593448206	33
3	678	1656.998456245854	34
3	680	1667.385312246145	35
3	682	1670.941665386543	36
3	684	1677.340756018396	37
3	689	1679.151605878875	38
3	699	1698.499432454028	38
3	701	1702.537875751213	39
3	705	1710.023199632792	40
3	708	1711.831678986269	41
3	710	1715.794270075167	42
3	717	1740.402810295447	41
3	723	1754.371851842985	42
3	727	1757.712952114246	41
3	735	1803.563631578393	40
3	737	1804.702121163114	41
3	741	1813.945618333506	42
3	743	1815.189939142241	43
3	748	1830.000877789753	44
3	751	1844.087242559274	45
3	758	1865.352465476735	46
3	772	1883.609421275364	46
3	775	1885.977274496929	47
3	778	1886.339112843074	47
3	789	1925.322903074237	42
3	791	1926.617656675168	43
3	795	1946.452518246029	44
3	801	1968.617331088617	44
3	810	1983.774184273965	44
3	816	1991.012150132266	42
3	818	1995.96333466045	43
3	828	2021.788839862228	42
3	832	2027.965610252793	41
3	837	2036.670246191136	39
3	839	2038.612038391061	40
3	847	2053.451391923639	40
3	849	2059.720372977221	41
3	851	2065.213904978399	42
3	853	2070.960011779213	43
3	863	2088.416297189241	44
3	865	2094.55514914724	45
3	867	2099.423059657969	46
3	870	2109.526301819064	47
3	872	2113.901216392289	48
3	887	2152.7373224416	45
3	889	2158.324858173646	46
3	893	2170.032935115697	46
3	898	2175.059280819876	46
3	900	2175.89386075536	47
3	907	2194.513301538501	48
3	909	2197.181186761374	49
3	913	2201.862421686758	50
3	917	2205.989717082358	49
3	919	2210.635198036061	50
3	923	2215.605995918517	49
3	927	2220.983562150837	48
3	930	2237.146804838887	48
3	932	2242.672738216294	49
3	934	2243.211192938679	50
3	938	2254.082127145278	49
3	940	2255.276179260871	50
3	942	2257.380623580054	51
3	947	2265.712071714624	51
3	953	2278.530645851194	49
3	955	2279.373335041389	50
3	958	2282.299088262717	50
3	960	2288.557943251978	51
3	972	2321.438632138943	48
3	974	2332.743083346899	49
3	976	2334.166339972331	50
3	978	2334.24183420918	51
3	984	2350.681956625492	48
3	988	2362.032617962155	47
3	993	2366.417596998391	47
3	1001	2382.613350806866	48
3	1005	2383.497710697982	49
3	1009	2419.292970577924	50
3	1013	2432.429685492346	51
3	1019	2452.103637946343	52
4	134	354.172507827807	0
4	135	364.506343049045	0
4	137	373.165573927013	0
4	138	374.538739777874	0
4	148	393.279838510632	0
4	150	401.895031817764	0
4	156	408.207277351423	0
4	158	411.99829745011	1
4	160	412.37183081957	2
4	163	436.073400872944	3
4	165	437.314233815506	4
4	167	437.327952946813	5
4	173	451.242256151972	6
4	175	459.810452974783	7
4	177	462.544540123058	8
4	181	468.979055047066	9
4	184	471.920162134502	10
4	186	475.095408618298	11
4	191	494.588354537745	12
4	192	495.463653008622	12
4	194	497.713550616588	12
4	195	499.34623531127	12
4	207	527.626775085374	12
4	216	571.143215401286	13
4	218	579.391432256081	14
4	222	605.943574795199	15
4	224	607.913223543641	16
4	227	609.957947543076	17
4	230	624.665666816139	18
4	235	630.706851864441	19
4	237	637.487093734645	20
4	241	643.417267897842	21
4	243	647.892639962505	21
4	245	653.393714807935	21
4	247	656.310268947339	22
4	258	674.6047529137	23
4	259	678.665471696815	23
4	260	688.634973401903	22
4	261	693.479685121012	21
4	263	695.335114389194	21
4	264	696.874085170919	21
4	265	699.282018048247	20
4	267	701.516242444663	20
4	268	702.960257490447	20
4	270	704.925125838561	20
4	271	708.866311154128	20
4	273	711.815483747498	20
4	277	715.664169776615	21
4	279	726.339320729985	21
4	281	727.040126940911	21
4	283	735.618888755847	22
4	284	740.93824752883	22
4	288	746.139589939481	22
4	291	762.644089716245	23
4	293	765.774707186922	24
4	295	768.538631314541	25
4	297	769.235612506848	26
4	298	774.22389857297	26
4	300	787.248359323836	26
4	301	787.697872967746	26
4	305	802.008149240264	26
4	308	815.757023724541	27
4	309	820.872010235223	27
4	311	822.315232027055	27
4	315	828.136835226231	28
4	318	832.129773314188	29
4	320	833.062464632352	30
4	321	833.648863534975	30
4	323	840.209054935251	30
4	324	843.660764977407	30
4	325	843.747548243846	29
4	327	845.043579502083	29
4	328	845.600715652257	29
4	330	848.103789288935	29
4	331	850.690083851088	29
4	332	852.864063088703	28
4	334	853.51756743213	28
4	336	857.235620783026	29
4	337	862.985121714954	29
4	338	864.271199961449	28
4	339	864.894335467555	27
4	340	867.377995170053	26
4	342	871.716141047027	26
4	343	877.106048457774	26
4	347	881.573981200952	26
4	349	883.796395950465	27
4	357	891.948409974863	28
4	359	892.451265341315	29
4	361	896.287023108023	30
4	363	903.256211398146	30
4	365	907.496880138223	30
4	369	909.479651796247	30
4	373	912.519557305623	30
4	375	912.719751269411	31
4	377	915.703469079402	32
4	382	931.627609079209	33
4	384	940.35611761368	34
4	386	950.3333972079	34
4	388	952.926673196333	34
4	390	954.689615315032	35
4	391	955.835891374171	35
4	393	958.18994317615	35
4	394	959.42909247203	35
4	395	961.145035192887	34
4	400	967.306304503991	34
4	402	971.293520383222	35
4	403	976.044550098017	35
4	407	988.575218319804	34
4	409	988.770386098451	34
4	411	991.89196686214	35
4	415	993.592636988663	36
4	418	995.06088645478	37
4	420	1008.314780315635	38
4	421	1009.848014457819	38
4	423	1012.966214610902	38
4	427	1018.219575777321	39
4	429	1018.378246406112	40
4	432	1033.460060157527	41
4	433	1034.150145410326	41
4	435	1037.687100701228	41
4	436	1037.70640239902	41
4	437	1039.885654349877	40
4	438	1051.203209461459	39
4	440	1053.982005230281	39
4	441	1057.881606640085	39
4	442	1071.096377900173	38
4	448	1087.119359711866	38
4	451	1099.801624034437	38
4	452	1101.701830622986	37
4	454	1102.540491660609	37
4	456	1104.720238786165	38
4	457	1105.125467142601	38
4	462	1113.692156924454	38
4	463	1114.303696490461	38
4	464	1117.556535234036	37
4	465	1121.254167762759	36
4	466	1126.440977821622	35
4	467	1138.071903229444	34
4	468	1144.752565477619	33
4	469	1146.951864359379	32
4	471	1148.073931961739	32
4	472	1151.131816490375	32
4	473	1157.552316704236	31
4	477	1158.994943503307	31
4	479	1159.869971217089	32
4	481	1170.270592856227	33
4	483	1172.886145916887	34
4	486	1178.431073673036	35
4	488	1180.180260533885	36
4	490	1187.386849011417	37
4	494	1208.445344685411	37
4	495	1213.159198865411	36
4	497	1213.938108252133	36
4	499	1220.894768537029	37
4	500	1228.794784994763	37
4	501	1241.129569616145	36
4	503	1246.89843674697	36
4	505	1247.276325723585	37
4	506	1251.334792448042	37
4	507	1259.627199876541	36
4	509	1266.056222790817	36
4	510	1273.334682643223	36
4	511	1277.187987791157	35
4	513	1278.370214318002	35
4	518	1284.448987743469	36
4	520	1294.136166031973	37
4	521	1294.618280627407	37
4	523	1301.96258254879	37
4	524	1307.110703573631	37
4	525	1312.77212904892	36
4	527	1317.004740683419	36
4	529	1321.089472312076	37
4	531	1327.240403897141	38
4	532	1328.075422121183	38
4	533	1328.279963777863	37
4	538	1339.31192988468	37
4	539	1339.419304238305	37
4	540	1342.935321262483	36
4	542	1344.089152158986	36
4	543	1347.176281050127	36
4	545	1354.139097917223	36
4	549	1357.590687385923	37
4	551	1362.401640317386	38
4	554	1370.548662839093	39
4	555	1371.882150076617	39
4	556	1375.213803841264	38
4	557	1387.220675984233	37
4	558	1387.792443131433	36
4	560	1393.477834516225	36
4	561	1394.160950158934	36
4	563	1394.357009853883	36
4	564	1395.21398133528	36
4	566	1399.467597341814	36
4	567	1404.455295513133	36
4	569	1409.444819982285	36
4	574	1413.916469106427	37
4	575	1417.343013197715	37
4	576	1419.646757373708	36
4	577	1428.273162475551	35
4	578	1430.113745558506	34
4	579	1436.473953834558	33
4	583	1442.842899766702	33
4	585	1458.047699415246	33
4	591	1460.245386861678	33
4	594	1472.752035296502	33
4	598	1478.03367779484	32
4	602	1482.431277285998	32
4	604	1482.922469037112	33
4	606	1497.733209963644	33
4	610	1504.007678257348	33
4	613	1516.603279450633	34
4	614	1520.113587830495	34
4	616	1520.830688733209	34
4	618	1521.897440116271	35
4	619	1522.615726684822	35
4	620	1530.285608930905	34
4	621	1533.962602205335	33
4	623	1534.041056993256	33
4	630	1557.37973660538	33
4	632	1567.933072131845	33
4	633	1569.358335174691	33
4	638	1575.426811134132	33
4	639	1576.258764941297	33
4	641	1577.614321941095	33
4	642	1581.240930309035	33
4	643	1584.724469661509	32
4	645	1588.382349111459	32
4	646	1594.130030416404	32
4	647	1594.719614390052	31
4	648	1596.300782041936	30
4	649	1600.62247017559	29
4	650	1604.076520147787	28
4	652	1604.98445020996	28
4	654	1608.10816906207	29
4	656	1611.611585584382	30
4	657	1618.046638133013	30
4	658	1618.82207649855	29
4	660	1620.970579796187	29
4	664	1629.016241169596	30
4	666	1629.509796788956	31
4	671	1645.107593448206	32
4	678	1656.998456245854	33
4	680	1667.385312246145	34
4	682	1670.941665386543	35
4	684	1677.340756018396	36
4	689	1679.151605878875	37
4	692	1685.63134530527	37
4	699	1698.499432454028	37
4	701	1702.537875751213	38
4	705	1710.023199632792	39
4	708	1711.831678986269	40
4	710	1715.794270075167	41
4	712	1718.085161263476	41
4	713	1719.467888247753	40
4	717	1740.402810295447	40
4	723	1754.371851842985	41
4	724	1755.382195894577	41
4	725	1756.236516753854	40
4	727	1757.712952114246	40
4	728	1762.757765920027	40
4	729	1776.033175070956	39
4	735	1803.563631578393	39
4	737	1804.702121163114	40
4	741	1813.945618333506	41
4	743	1815.189939142241	42
4	748	1830.000877789753	43
4	751	1844.087242559274	44
4	758	1865.352465476735	45
4	768	1881.223781344159	45
4	772	1883.609421275364	45
4	775	1885.977274496929	46
4	776	1886.25913873424	46
4	778	1886.339112843074	46
4	779	1889.617086141074	46
4	780	1898.042356344318	45
4	781	1898.336920460892	44
4	785	1908.743521866644	43
4	786	1917.656870698132	42
4	787	1924.963167168037	41
4	789	1925.322903074237	41
4	791	1926.617656675168	42
4	795	1946.452518246029	43
4	797	1958.915793661483	43
4	801	1968.617331088617	43
4	803	1973.550981298008	43
4	810	1983.774184273965	43
4	812	1988.169806786087	43
4	813	1988.458843889885	42
4	814	1989.372614381848	41
4	816	1991.012150132266	41
4	818	1995.96333466045	42
4	819	2003.00376784412	42
4	826	2021.520700753027	41
4	828	2021.788839862228	41
4	829	2022.881994465372	41
4	830	2026.229954781407	40
4	832	2027.965610252793	40
4	833	2029.503436054227	40
4	834	2031.250867472094	39
4	835	2034.622893431523	38
4	837	2036.670246191136	38
4	839	2038.612038391061	39
4	843	2052.037629750285	39
4	847	2053.451391923639	39
4	849	2059.720372977221	40
4	851	2065.213904978399	41
4	853	2070.960011779213	42
4	863	2088.416297189241	43
4	865	2094.55514914724	44
4	867	2099.423059657969	45
4	870	2109.526301819064	46
4	872	2113.901216392289	47
4	877	2127.26962559501	47
4	881	2142.622352966876	46
4	882	2142.917915035405	45
4	883	2148.189344407075	44
4	887	2152.7373224416	44
4	889	2158.324858173646	45
4	891	2169.14331110126	45
4	893	2170.032935115697	45
4	894	2170.589174090452	45
4	898	2175.059280819876	45
4	900	2175.89386075536	46
4	907	2194.513301538501	47
4	909	2197.181186761374	48
4	913	2201.862421686758	49
4	914	2203.880672815235	49
4	915	2205.86256206466	48
4	917	2205.989717082358	48
4	919	2210.635198036061	49
4	920	2213.050963947668	49
4	921	2214.686000154153	48
4	923	2215.605995918517	48
4	924	2216.617121940203	48
4	925	2217.94160959447	47
4	927	2220.983562150837	47
4	928	2229.792502466768	47
4	930	2237.146804838887	47
4	932	2242.672738216294	48
4	934	2243.211192938679	49
4	935	2249.133022622074	49
4	936	2251.668524339948	48
4	938	2254.082127145278	48
4	940	2255.276179260871	49
4	942	2257.380623580054	50
4	943	2257.602435271071	50
4	947	2265.712071714624	50
4	949	2273.976226977254	50
4	950	2276.469192796013	49
4	951	2278.179882596914	48
4	953	2278.530645851194	48
4	955	2279.373335041389	49
4	956	2281.165568963932	49
4	958	2282.299088262717	49
4	960	2288.557943251978	50
4	964	2306.048228159758	50
4	965	2307.268106930788	49
4	966	2315.337751447562	48
4	967	2315.845516098269	47
4	972	2321.438632138943	47
4	974	2332.743083346899	48
4	976	2334.166339972331	49
4	978	2334.24183420918	50
4	979	2335.207962241235	50
4	980	2345.863384357931	49
4	981	2349.508733944708	48
4	982	2349.758871312485	47
4	984	2350.681956625492	47
4	985	2353.72087218673	47
4	986	2353.809385998568	46
4	988	2362.032617962155	46
4	989	2363.124665733798	46
4	993	2366.417596998391	46
4	1001	2382.613350806866	47
4	1005	2383.497710697982	48
4	1009	2419.292970577924	49
4	1013	2432.429685492346	50
4	1019	2452.103637946343	51
4	1020	2455.554380724444	51
4	1021	2460.029883299732	50
4	1031	2497.276649321526	49
5	134	354.172507827807	0
5	137	373.165573927013	0
5	149	398.601815807848	5.321977297216
5	189	490.668378295252	82.461100943829
5	192	495.463653008622	83.465355558512
5	195	499.34623531127	86.9744044917
5	228	621.712690809613	185.63928993667
5	233	628.350245166931	191.03601135143
5	242	645.573233354859	208.24528040805
5	243	647.892639962505	196.65038381053
5	256	672.556888980346	212.74643600556
5	259	678.665471696815	216.12093157376
5	260	688.634973401903	219.65591835484
5	261	693.479685121012	221.55952298651
5	264	696.874085170919	221.77867655262
5	265	699.282018048247	204.6936635105
5	268	702.960257490447	205.24670687386
5	271	708.866311154128	201.08795868214
5	278	717.592612986738	189.96583790136
5	279	726.339320729985	155.1961053287
5	284	740.93824752883	161.54681527275
5	289	755.953989675249	150.01041488005
5	298	774.22389857297	166.31067502933
5	301	787.697872967746	177.73992542467
5	306	803.765874827103	179.10020801096
5	309	820.872010235223	193.09372529591
5	316	831.22419086351	200.51733899907
5	321	833.648863534975	196.16176980033
5	324	843.660764977407	205.43822570084
5	325	843.747548243846	200.330280346
5	328	845.600715652257	192.20700084432
5	331	850.690083851088	194.37981490375
5	332	852.864063088703	190.43245608421
5	337	862.985121714954	188.38036880125
5	338	864.271199961449	168.93608557225
5	339	864.894335467555	163.37809302289
5	340	867.377995170053	162.45286933149
5	343	877.106048457774	165.29056471028
5	350	886.894655497665	174.85345581972
5	353	888.332706090837	172.66853631422
5	362	900.481930333197	173.44180339229
5	363	903.256211398146	167.6373226423
5	368	907.592935320694	166.33200364707
5	369	909.479651796247	163.34006185677
5	385	949.089092347312	186.44500263107
5	386	950.3333972079	184.55869002098
5	391	955.835891374171	187.29726005963
5	394	959.42909247203	190.19347996518
5	395	961.145035192887	173.89667586905
5	398	965.87967304499	166.32843027857
5	403	976.044550098017	174.03640085775
5	406	983.125645659737	167.3686219352
5	407	988.575218319804	166.25998629275
5	416	994.0205319366	171.16024760473
5	421	1009.848014457819	181.71117923159
5	430	1020.90323465902	188.77346134483
5	433	1034.150145410326	201.08768077797
5	436	1037.70640239902	197.49734746377
5	437	1039.885654349877	194.84207484779
5	438	1051.203209461459	203.09942017252
5	441	1057.881606640085	204.36403920795
5	442	1071.096377900173	213.86075711715
5	450	1099.200438998679	227.48429795165
5	451	1099.801624034437	222.25781316379
5	452	1101.701830622986	220.12784942203
5	457	1105.125467142601	221.32907119214
5	460	1112.403391474645	225.06578644488
5	463	1114.303696490461	225.81619146286
5	464	1117.556535234036	225.60812525917
5	465	1121.254167762759	228.80290242144
5	466	1126.440977821622	230.1539547136
5	467	1138.071903229444	230.57502309122
5	468	1144.752565477619	237.16412624338
5	469	1146.951864359379	237.33704230741
5	472	1151.131816490375	238.61225918475
5	473	1157.552316704236	244.83256543482
5	484	1176.26164600465	260.55817692525
5	493	1206.745594855364	275.11798577615
5	494	1208.445344685411	268.08922707173
5	495	1213.159198865411	260.23252566908
5	500	1228.794784994763	274.10516967973
5	501	1241.129569616145	282.93962643999
5	506	1251.334792448042	287.06131774696
5	507	1259.627199876541	292.32089537255
5	510	1273.334682643223	302.04116226
5	511	1277.187987791157	295.35918271109
5	516	1283.745384156634	294.97499805818
5	521	1294.618280627407	302.72631376527
5	524	1307.110703573631	315.1170128404
5	525	1312.77212904892	319.17949206026
5	532	1328.075422121183	333.0145356664
5	533	1328.279963777863	319.96518346223
5	536	1337.105270069169	324.13905545827
5	539	1339.419304238305	323.16968014343
5	540	1342.935321262483	324.71574548516
5	543	1347.176281050127	328.79803464401
5	552	1369.32602244427	335.86596228674
5	555	1371.882150076617	334.19504937539
5	556	1375.213803841264	321.23179861098
5	557	1387.220675984233	309.29197073532
5	558	1387.792443131433	300.67308341957
5	561	1394.160950158934	291.62045849832
5	564	1395.21398133528	290.49374254911
5	567	1404.455295513133	296.87071709513
5	572	1413.75209162543	300.05993470098
5	575	1417.343013197715	269.26908123598
5	576	1419.646757373708	260.71294777891
5	577	1428.273162475551	269.27821897224
5	578	1430.113745558506	270.24377434142
5	579	1436.473953834558	266.20336097833
5	584	1453.157055190779	280.27090927389
5	585	1458.047699415246	279.61662574221
5	593	1471.736631061266	291.55637052738
5	594	1472.752035296502	285.36518628508
5	597	1474.765881594154	285.76915853713
5	598	1478.03367779484	264.09556954271
5	605	1486.303918293157	265.40914975613
5	606	1497.733209963644	250.83477321667
5	611	1508.936110082895	261.65978435931
5	614	1520.113587830495	254.05736503968
5	619	1522.615726684822	244.24551236682
5	620	1530.285608930905	251.2974109873
5	621	1533.962602205335	249.51361446187
5	626	1542.108745708414	247.97257967644
5	629	1549.259194257812	247.29661170902
5	630	1557.37973660538	240.37499592196
5	633	1569.358335174691	248.26886286262
5	636	1571.846227980433	244.60582408329
5	639	1576.258764941297	244.55968803572
5	642	1581.240930309035	241.92900042435
5	643	1584.724469661509	240.63531750252
5	646	1594.130030416404	239.99093249918
5	647	1594.719614390052	240.39302739365
5	648	1596.300782041936	238.71009465601
5	649	1600.62247017559	238.2208298582
5	650	1604.076520147787	233.52785730869
5	657	1618.046638133013	224.56880361679
5	658	1618.82207649855	224.46506664467
5	667	1635.558909016871	236.09131167506
5	691	1684.344095196688	274.8992752144
5	692	1685.63134530527	274.9405235329
5	695	1692.723611478719	278.80714237229
5	711	1717.764010897116	275.3622008166
5	712	1718.085161263476	275.24226149677
5	713	1719.467888247753	261.20423757096
5	721	1752.093590519234	291.84820365756
5	724	1755.382195894577	280.70469418663
5	725	1756.236516753854	277.64457847987
5	728	1762.757765920027	280.32648863403
5	729	1776.033175070956	293.11070603384
5	767	1879.016157847285	379.6660333519
5	768	1881.223781344159	377.21610308681
5	773	1884.373850838077	367.77057138744
5	776	1886.25913873424	365.42845000103
5	779	1889.617086141074	367.7196460248
5	780	1898.042356344318	364.00129935106
5	781	1898.336920460892	357.40952162902
5	784	1908.511465786115	364.67573716999
5	785	1908.743521866644	340.8104497348
5	786	1917.656870698132	346.49663398035
5	787	1924.963167168037	349.53635603391
5	796	1955.73703558199	378.12271364089
5	797	1958.915793661483	370.53344455002
5	802	1973.339272158328	368.35482194837
5	803	1973.550981298008	365.44281223594
5	806	1979.68566933538	368.074083751
5	811	1986.653472095958	365.68289229977
5	812	1988.169806786087	361.15827457479
5	813	1988.458843889885	359.44260272029
5	814	1989.372614381848	359.86281759289
5	819	2003.00376784412	361.80303886092
5	825	2012.314844094243	367.20725064604
5	826	2021.520700753027	364.52224450717
5	829	2022.881994465372	355.49668221923
5	830	2026.229954781407	355.28828939486
5	833	2029.503436054227	352.16268003583
5	834	2031.250867472094	352.09926159322
5	835	2034.622893431523	343.40167449873
5	842	2045.952593529838	350.48269019242
5	843	2052.037629750285	353.53819729626
5	857	2079.821560746272	377.28368499506
5	876	2124.260243388873	414.23704375608
5	877	2127.26962559501	415.43794660874
5	880	2131.646377695241	415.85210762007
5	881	2142.622352966876	408.44860118864
5	882	2142.917915035405	402.51510473996
5	883	2148.189344407075	393.81749256409
5	890	2163.958664294244	406.24571218
5	891	2169.14331110126	373.89153407126
5	894	2170.589174090452	367.02554251206
5	901	2181.689839860934	376.98771869782
5	911	2198.223554893546	384.27793656004
5	914	2203.880672815235	388.69073367299
5	915	2205.86256206466	375.86168427491
5	920	2213.050963947668	368.96372138839
5	921	2214.686000154153	349.33353467742
5	924	2216.617121940203	333.5376788047
5	925	2217.94160959447	334.33218831911
5	928	2229.792502466768	343.81522796984
5	935	2249.133022622074	362.793909779
5	936	2251.668524339948	345.49630055498
5	943	2257.602435271071	332.27953219683
5	948	2266.100259732842	339.48260305767
5	949	2273.976226977254	344.46705238623
5	950	2276.469192796013	330.01667454998
5	951	2278.179882596914	310.83591851644
5	956	2281.165568963932	312.54823787532
5	963	2296.24683390051	316.5647655198
5	964	2306.048228159758	323.69079582471
5	965	2307.268106930788	323.49392265682
5	966	2315.337751447562	324.3256013153
5	967	2315.845516098269	319.88218143782
5	970	2319.843589874787	316.0569033772
5	979	2335.207962241235	313.41912237901
5	980	2345.863384357931	317.89777410514
5	981	2349.508733944708	312.83848775357
5	982	2349.758871312485	311.14683292142
5	985	2353.72087218673	313.47123666557
5	986	2353.809385998568	300.74637862882
5	989	2363.124665733798	309.67327381016
5	1007	2412.731520068679	353.01114709146
5	1017	2451.510739050944	386.29683407254
5	1020	2455.554380724444	384.59436894523
5	1021	2460.029883299732	379.38050486356
5	1024	2465.831225783094	377.41492859385
5	1030	2484.569751151797	390.01460200456
5	1031	2497.276649321526	397.85358966356
6	135	364.506343049045	26
6	138	374.538739777874	27
6	150	401.895031817764	28
6	192	495.463653008622	29
6	195	499.34623531127	30
6	243	647.892639962505	31
6	259	678.665471696815	32
6	260	688.634973401903	33
6	261	693.479685121012	34
6	264	696.874085170919	35
6	265	699.282018048247	36
6	268	702.960257490447	37
6	271	708.866311154128	38
6	279	726.339320729985	39
6	284	740.93824752883	40
6	298	774.22389857297	41
6	301	787.697872967746	42
6	309	820.872010235223	43
6	321	833.648863534975	44
6	324	843.660764977407	45
6	325	843.747548243846	46
6	328	845.600715652257	47
6	331	850.690083851088	48
6	332	852.864063088703	49
6	337	862.985121714954	50
6	338	864.271199961449	51
6	339	864.894335467555	52
6	340	867.377995170053	53
6	343	877.106048457774	54
6	363	903.256211398146	55
6	369	909.479651796247	56
6	386	950.3333972079	57
6	391	955.835891374171	58
6	394	959.42909247203	59
6	395	961.145035192887	60
6	403	976.044550098017	61
6	407	988.575218319804	62
6	421	1009.848014457819	63
6	433	1034.150145410326	64
6	436	1037.70640239902	65
6	437	1039.885654349877	66
6	438	1051.203209461459	67
6	441	1057.881606640085	68
6	442	1071.096377900173	69
6	451	1099.801624034437	70
6	452	1101.701830622986	71
6	457	1105.125467142601	72
6	463	1114.303696490461	73
6	464	1117.556535234036	74
6	465	1121.254167762759	75
6	466	1126.440977821622	76
6	467	1138.071903229444	77
6	468	1144.752565477619	78
6	469	1146.951864359379	79
6	472	1151.131816490375	80
6	473	1157.552316704236	81
6	494	1208.445344685411	82
6	495	1213.159198865411	83
6	500	1228.794784994763	84
6	501	1241.129569616145	85
6	506	1251.334792448042	86
6	507	1259.627199876541	87
6	510	1273.334682643223	88
6	511	1277.187987791157	89
6	521	1294.618280627407	90
6	524	1307.110703573631	91
6	525	1312.77212904892	92
6	532	1328.075422121183	93
6	533	1328.279963777863	94
6	539	1339.419304238305	95
6	540	1342.935321262483	96
6	543	1347.176281050127	97
6	555	1371.882150076617	98
6	556	1375.213803841264	99
6	557	1387.220675984233	100
6	558	1387.792443131433	101
6	561	1394.160950158934	102
6	564	1395.21398133528	103
6	567	1404.455295513133	104
6	575	1417.343013197715	105
6	576	1419.646757373708	106
6	577	1428.273162475551	107
6	578	1430.113745558506	108
6	579	1436.473953834558	109
6	585	1458.047699415246	110
6	594	1472.752035296502	111
6	598	1478.03367779484	112
6	606	1497.733209963644	113
6	614	1520.113587830495	114
6	619	1522.615726684822	115
6	620	1530.285608930905	116
6	621	1533.962602205335	117
6	630	1557.37973660538	118
6	633	1569.358335174691	119
6	639	1576.258764941297	120
6	642	1581.240930309035	121
6	643	1584.724469661509	122
6	646	1594.130030416404	123
6	647	1594.719614390052	124
6	648	1596.300782041936	125
6	649	1600.62247017559	126
6	650	1604.076520147787	127
6	657	1618.046638133013	128
6	658	1618.82207649855	129
6	692	1685.63134530527	130
6	712	1718.085161263476	131
6	713	1719.467888247753	132
6	724	1755.382195894577	133
6	725	1756.236516753854	134
6	728	1762.757765920027	135
6	729	1776.033175070956	136
6	768	1881.223781344159	137
6	776	1886.25913873424	138
6	779	1889.617086141074	139
6	780	1898.042356344318	140
6	781	1898.336920460892	141
6	785	1908.743521866644	142
6	786	1917.656870698132	143
6	787	1924.963167168037	144
6	797	1958.915793661483	145
6	803	1973.550981298008	146
6	812	1988.169806786087	147
6	813	1988.458843889885	148
6	814	1989.372614381848	149
6	819	2003.00376784412	150
6	826	2021.520700753027	151
6	829	2022.881994465372	152
6	830	2026.229954781407	153
6	833	2029.503436054227	154
6	834	2031.250867472094	155
6	835	2034.622893431523	156
6	843	2052.037629750285	157
6	877	2127.26962559501	158
6	881	2142.622352966876	159
6	882	2142.917915035405	160
6	883	2148.189344407075	161
6	891	2169.14331110126	162
6	894	2170.589174090452	163
6	914	2203.880672815235	164
6	915	2205.86256206466	165
6	920	2213.050963947668	166
6	921	2214.686000154153	167
6	924	2216.617121940203	168
6	925	2217.94160959447	169
6	928	2229.792502466768	170
6	935	2249.133022622074	171
6	936	2251.668524339948	172
6	943	2257.602435271071	173
6	949	2273.976226977254	174
6	950	2276.469192796013	175
6	951	2278.179882596914	176
6	956	2281.165568963932	177
6	964	2306.048228159758	178
6	965	2307.268106930788	179
6	966	2315.337751447562	180
6	967	2315.845516098269	181
6	979	2335.207962241235	182
6	980	2345.863384357931	183
6	981	2349.508733944708	184
6	982	2349.758871312485	185
6	985	2353.72087218673	186
6	986	2353.809385998568	187
6	989	2363.124665733798	188
6	1020	2455.554380724444	189
6	1021	2460.029883299732	190
6	1031	2497.276649321526	191
7	135	364.506343049045	10.333835221238
7	138	374.538739777874	1.373165850861
7	150	401.895031817764	8.615193307132
7	192	495.463653008622	87.256375657199
7	195	499.34623531127	87.34793786116
7	243	647.892639962505	210.56468701569
7	259	678.665471696815	218.85501872203
7	260	688.634973401903	226.09043327884
7	261	693.479685121012	224.50063007395
7	264	696.874085170919	224.95392303642
7	265	699.282018048247	224.18660942995
7	268	702.960257490447	208.3719029527
7	271	708.866311154128	211.15276053754
7	279	726.339320729985	198.71254564461
7	284	740.93824752883	169.79503212754
7	298	774.22389857297	168.28032377777
7	301	787.697872967746	179.7846494241
7	309	820.872010235223	196.20634341908
7	321	833.648863534975	202.94201167053
7	324	843.660764977407	206.17367124276
7	325	843.747548243846	205.52500896728
7	328	845.600715652257	202.18344775441
7	331	850.690083851088	197.29636904315
7	332	852.864063088703	196.55379414136
7	337	862.985121714954	200.55351471046
7	338	864.271199961449	189.66644704775
7	339	864.894335467555	169.55922107836
7	340	867.377995170053	165.86175272539
7	343	877.106048457774	172.18092261921
7	363	903.256211398146	176.21608445723
7	369	909.479651796247	168.21872012262
7	386	950.3333972079	187.68930749166
7	391	955.835891374171	190.06118418725
7	394	959.42909247203	190.89046115749
7	395	961.145035192887	191.90942268604
7	403	976.044550098017	176.49330733159
7	407	988.575218319804	172.81819459526
7	421	1009.848014457819	186.98773012595
7	433	1034.150145410326	202.02037209614
7	436	1037.70640239902	204.64393776667
7	437	1039.885654349877	199.67659941463
7	438	1051.203209461459	206.15962995938
7	441	1057.881606640085	209.77781735115
7	442	1071.096377900173	217.57881046804
7	451	1099.801624034437	228.08548298741
7	452	1101.701830622986	224.15801975234
7	457	1105.125467142601	223.55148594165
7	463	1114.303696490461	226.96609146069
7	464	1117.556535234036	229.06903020643
7	465	1121.254167762759	229.3057577879
7	466	1126.440977821622	233.98971248031
7	467	1138.071903229444	241.78488012142
7	468	1144.752565477619	237.2556853394
7	469	1146.951864359379	239.36342512514
7	472	1151.131816490375	241.51699443841
7	473	1157.552316704236	245.03275939861
7	494	1208.445344685411	276.8177356062
7	495	1213.159198865411	272.80308125173
7	500	1228.794784994763	275.86811179843
7	501	1241.129569616145	286.43995430111
7	506	1251.334792448042	293.14484927189
7	507	1259.627199876541	295.35372517546
7	510	1273.334682643223	306.02837813923
7	511	1277.187987791157	305.89446740793
7	521	1294.618280627407	305.84789452896
7	524	1307.110703573631	315.21873671149
7	525	1312.77212904892	320.77843831569
7	532	1328.075422121183	334.48278513252
7	533	1328.279963777863	333.21907732308
7	539	1339.419304238305	326.4530896274
7	540	1342.935321262483	326.68569716761
7	543	1347.176281050127	328.95670527281
7	555	1371.882150076617	338.42208991909
7	556	1375.213803841264	337.52670314004
7	557	1387.220675984233	333.23867075395
7	558	1387.792443131433	309.86373788252
7	561	1394.160950158934	307.04159044707
7	564	1395.21398133528	292.67348967467
7	567	1404.455295513133	299.73505672697
7	575	1417.343013197715	303.65085627326
7	576	1419.646757373708	271.57282541197
7	577	1428.273162475551	269.33935288075
7	578	1430.113745558506	271.1188020552
7	579	1436.473953834558	276.60398261747
7	585	1458.047699415246	285.16155349836
7	594	1472.752035296502	292.57177476262
7	598	1478.03367779484	289.03695473782
7	606	1497.733209963644	276.83844142662
7	614	1520.113587830495	272.83726210691
7	619	1522.615726684822	256.559503894
7	620	1530.285608930905	251.9153946129
7	621	1533.962602205335	254.97440426173
7	630	1557.37973660538	255.41715405659
7	633	1569.358335174691	252.35359449127
7	639	1576.258764941297	249.01836104416
7	642	1581.240930309035	249.54185340346
7	643	1584.724469661509	245.41253977683
7	646	1594.130030416404	250.04087825742
7	647	1594.719614390052	240.58051647283
7	648	1596.300782041936	241.97419504554
7	649	1600.62247017559	243.03178278967
7	650	1604.076520147787	241.6748798304
7	657	1618.046638133013	247.49797529392
7	658	1618.82207649855	225.34424198233
7	692	1685.63134530527	276.18652532299
7	712	1718.085161263476	275.68335118296
7	713	1719.467888247753	276.62498848105
7	724	1755.382195894577	295.1368090329
7	725	1756.236516753854	281.5590150459
7	728	1762.757765920027	284.16582764604
7	729	1776.033175070956	293.60189778496
7	768	1881.223781344159	381.87365684878
7	776	1886.25913873424	369.65585928361
7	779	1889.617086141074	368.78639740786
7	780	1898.042356344318	376.14491622805
7	781	1898.336920460892	364.29586346764
7	785	1908.743521866644	364.90779325052
7	786	1917.656870698132	349.72379856629
7	787	1924.963167168037	353.80293045026
7	797	1958.915793661483	381.30147172039
7	803	1973.550981298008	368.56653108805
7	812	1988.169806786087	367.1992269899
7	813	1988.458843889885	361.44731167859
7	814	1989.372614381848	360.35637321225
7	819	2003.00376784412	373.49397105516
7	826	2021.520700753027	376.41310730482
7	829	2022.881994465372	365.88353821952
7	830	2026.229954781407	358.84464253526
7	833	2029.503436054227	358.56177066768
7	834	2031.250867472094	353.9101114537
7	835	2034.622893431523	355.47128755265
7	843	2052.037629750285	356.56772641287
7	877	2127.26962559501	417.24642596222
7	881	2142.622352966876	426.82808289171
7	882	2142.917915035405	408.74416325717
7	883	2148.189344407075	407.78653411163
7	891	2169.14331110126	411.43035898701
7	894	2170.589174090452	375.33739706045
7	914	2203.880672815235	389.93505448173
7	915	2205.86256206466	390.67262292242
7	920	2213.050963947668	383.05008615792
7	921	2214.686000154153	370.59875759488
7	924	2216.617121940203	351.26465646347
7	925	2217.94160959447	334.86216645897
7	928	2229.792502466768	346.1830811914
7	935	2249.133022622074	363.15574812515
7	936	2251.668524339948	365.32941149687
7	943	2257.602435271071	351.4302114861
7	949	2273.976226977254	347.35857030209
7	950	2276.469192796013	346.96001820498
7	951	2278.179882596914	331.72736435089
7	956	2281.165568963932	313.82160488346
7	964	2306.048228159758	326.36615977905
7	965	2307.268106930788	324.91067459574
7	966	2315.337751447562	331.5635671736
7	967	2315.845516098269	324.833365966
7	979	2335.207962241235	331.42127574365
7	980	2345.863384357931	324.0745444957
7	981	2349.508733944708	321.54312369192
7	982	2349.758871312485	313.08862512135
7	985	2353.72087218673	315.10883379567
7	986	2353.809385998568	313.55975047741
7	989	2363.124665733798	310.06165836405
7	1020	2455.554380724444	390.34047574605
7	1021	2460.029883299732	389.06987152052
7	1031	2497.276649321526	402.72150017429
8	140	381.910508285344	1
8	142	382.12216177113	2
8	144	385.458599038288	3
8	152	401.932998597983	1
8	154	404.293112790177	2
8	169	437.903864460807	2
8	171	439.767450543379	3
8	179	467.105152708054	4
8	197	507.778352471988	1
8	199	511.970843354015	2
8	201	523.641403692857	3
8	203	523.764599663184	4
8	205	526.525142992614	5
8	212	556.097184880185	3
8	214	564.45633319999	4
8	232	627.778284939314	1
8	239	638.222539276565	1
8	249	662.431607004495	1
8	251	662.436923341715	2
8	254	669.501349085891	2
8	275	712.041199677948	1
8	286	741.260931673624	1
8	303	799.551242766425	1
8	313	822.860284331871	1
8	345	877.543810870645	1
8	352	887.337605029767	1
8	355	888.487505027603	1
8	367	907.588439234243	1
8	371	909.614822051967	1
8	379	920.771602651114	2
8	397	964.27347470108	1
8	405	981.828805080065	1
8	413	991.993690733228	1
8	425	1016.249624094874	1
8	444	1077.928705248913	1
8	446	1080.302015026252	2
8	459	1107.584578418003	1
8	475	1158.933809594803	1
8	492	1188.996723057024	1
8	515	1278.988197943606	1
8	535	1331.699076905576	1
8	547	1354.3265869964	1
8	571	1410.690821772367	1
8	581	1442.401810080516	1
8	587	1458.263650676793	1
8	589	1458.853799594753	2
8	596	1474.67750170795	1
8	600	1478.591938273987	1
8	608	1499.350124495382	1
8	625	1540.927398831871	1
8	628	1543.83572861612	1
8	635	1571.160236717777	1
8	662	1627.011532211296	1
8	669	1641.200728983196	1
8	673	1649.139788179428	2
8	675	1651.886764969815	3
8	687	1677.97722850772	2
8	694	1691.221218932796	1
8	697	1695.469903337416	1
8	703	1709.973952942435	2
8	715	1734.173751778239	1
8	719	1741.631715878164	2
8	731	1795.251777029999	1
8	733	1796.186514870931	2
8	739	1810.233699922377	3
8	745	1821.747407345427	4
8	753	1852.560548192826	3
8	755	1854.576513861016	4
8	761	1868.175832967458	3
8	764	1869.101112407136	3
8	770	1883.079443135498	1
8	783	1906.172223784969	1
8	793	1929.509174591028	1
8	799	1967.343964080476	1
8	805	1979.682068380707	1
8	808	1982.357432335051	1
8	821	2003.786686497585	1
8	823	2006.5504223079	2
8	841	2040.249635521158	1
8	845	2053.063007369747	1
8	855	2076.247451695774	2
8	859	2080.649378436169	1
8	861	2086.329528345313	2
8	874	2116.760152658708	2
8	879	2130.649701280081	1
8	885	2149.349687489204	1
8	896	2171.319197265902	1
8	903	2183.040962897326	1
8	905	2183.478361293144	2
8	945	2263.858396856056	1
8	962	2294.457992447564	1
8	969	2319.143568197383	1
8	991	2364.097716176362	1
8	995	2369.034416376807	2
8	998	2379.332298766566	2
8	1003	2382.99845866801	2
8	1011	2420.064793868789	1
8	1015	2435.541766541786	2
8	1023	2461.309526535168	1
8	1026	2468.83020005602	1
8	1028	2471.034788360199	2
9	140	381.910508285344	0
9	145	386.64041969547	4.51825792434
9	146	386.661397023573	1.202797985285
9	152	401.932998597983	0
9	161	420.245759904109	15.952647113932
9	182	469.250838460137	31.34697399933
9	187	487.630958732696	47.863508189317
9	188	487.631665059038	20.526512350984
9	197	507.778352471988	0
9	208	539.464835715781	27.493992361766
9	209	547.034755506682	23.393351813825
9	210	551.652067671102	27.887468007918
9	219	584.260693674074	57.73555068146
9	220	593.987355319773	37.890170439588
9	225	609.839308274498	45.382975074508
9	232	627.778284939314	0
9	239	638.222539276565	0
9	249	662.431607004495	0
9	252	665.399765194942	2.962841853227
9	255	669.670414016835	0.169064930944
9	275	712.041199677948	0
9	286	741.260931673624	0
9	303	799.551242766425	0
9	313	822.860284331871	0
9	345	877.543810870645	0
9	352	887.337605029767	0
9	355	888.487505027603	0
9	367	907.588439234243	0
9	371	909.614822051967	0
9	380	924.862540811536	4.090938160422
9	397	964.27347470108	0
9	405	981.828805080065	0
9	413	991.993690733228	0
9	425	1016.249624094874	0
9	444	1077.928705248913	0
9	449	1095.584568040901	15.282553014649
9	459	1107.584578418003	0
9	475	1158.933809594803	0
9	492	1188.996723057024	0
9	515	1278.988197943606	0
9	535	1331.699076905576	0
9	547	1354.3265869964	0
9	571	1410.690821772367	0
9	581	1442.401810080516	0
9	587	1458.263650676793	0
9	592	1470.657513555367	11.803713960614
9	596	1474.67750170795	0
9	600	1478.591938273987	0
9	608	1499.350124495382	0
9	625	1540.927398831871	0
9	628	1543.83572861612	0
9	635	1571.160236717777	0
9	662	1627.011532211296	0
9	669	1641.200728983196	0
9	676	1656.322839581076	7.183051401648
9	685	1677.837021493693	25.950256523878
9	690	1683.143918411106	5.166689903386
9	694	1691.221218932796	0
9	697	1695.469903337416	0
9	706	1711.014854201432	1.040901258997
9	715	1734.173751778239	0
9	720	1744.546340218132	2.914624339968
9	731	1795.251777029999	0
9	746	1824.480301847344	28.293786976413
9	749	1837.107137720597	26.87343779822
9	756	1857.046037059533	35.298629714106
9	759	1866.112685137009	13.552136944183
9	762	1869.057512034129	14.480998173113
9	765	1875.991660560474	7.815827593016
9	766	1877.347474012004	8.246361604868
9	770	1883.079443135498	0
9	783	1906.172223784969	0
9	793	1929.509174591028	0
9	799	1967.343964080476	0
9	805	1979.682068380707	0
9	808	1982.357432335051	0
9	821	2003.786686497585	0
9	824	2006.706381321368	0.155959013468
9	841	2040.249635521158	0
9	845	2053.063007369747	0
9	856	2079.563206274482	3.315754578708
9	859	2080.649378436169	0
9	868	2100.358640329106	14.029111983793
9	875	2118.270015624338	1.50986296563
9	879	2130.649701280081	0
9	885	2149.349687489204	0
9	896	2171.319197265902	0
9	903	2183.040962897326	0
9	910	2197.989152978736	14.510791685592
9	945	2263.858396856056	0
9	962	2294.457992447564	0
9	969	2319.143568197383	0
9	991	2364.097716176362	0
9	996	2376.634599092126	7.600182715319
9	999	2381.963381461174	2.631082694608
9	1006	2394.781519157593	11.783060489583
9	1011	2420.064793868789	0
9	1016	2450.154260941917	14.612494400131
9	1023	2461.309526535168	0
9	1026	2468.83020005602	0
9	1029	2471.065624891207	0.030836531008
10	197	507.778352471988	8
10	232	627.778284939314	9
10	239	638.222539276565	10
10	249	662.431607004495	11
10	275	712.041199677948	12
10	286	741.260931673624	13
10	303	799.551242766425	14
10	313	822.860284331871	15
10	345	877.543810870645	16
10	352	887.337605029767	17
10	355	888.487505027603	18
10	367	907.588439234243	19
10	371	909.614822051967	20
10	397	964.27347470108	21
10	405	981.828805080065	22
10	413	991.993690733228	23
10	425	1016.249624094874	24
10	444	1077.928705248913	25
10	459	1107.584578418003	26
10	475	1158.933809594803	27
10	492	1188.996723057024	28
10	515	1278.988197943606	29
10	535	1331.699076905576	30
10	547	1354.3265869964	31
10	571	1410.690821772367	32
10	581	1442.401810080516	33
10	587	1458.263650676793	34
10	596	1474.67750170795	35
10	600	1478.591938273987	36
10	608	1499.350124495382	37
10	625	1540.927398831871	38
10	628	1543.83572861612	39
10	635	1571.160236717777	40
10	662	1627.011532211296	41
10	669	1641.200728983196	42
10	694	1691.221218932796	43
10	697	1695.469903337416	44
10	715	1734.173751778239	45
10	731	1795.251777029999	46
10	770	1883.079443135498	47
10	783	1906.172223784969	48
10	793	1929.509174591028	49
10	799	1967.343964080476	50
10	805	1979.682068380707	51
10	808	1982.357432335051	52
10	821	2003.786686497585	53
10	841	2040.249635521158	54
10	845	2053.063007369747	55
10	859	2080.649378436169	56
10	879	2130.649701280081	57
10	885	2149.349687489204	58
10	896	2171.319197265902	59
10	903	2183.040962897326	60
10	945	2263.858396856056	61
10	962	2294.457992447564	62
10	969	2319.143568197383	63
10	991	2364.097716176362	64
10	1011	2420.064793868789	65
10	1023	2461.309526535168	66
10	1026	2468.83020005602	67
11	1032	2500	0.0764
12	1032	2500	0.048

