file 59290 1678560157                                           
version 2
run experiments_hard_game_mode1-921-20230311-19:42:37-9455
attr configname experiments_hard_game_mode1
attr datetime 20230311-19:42:37
attr experiment experiments_hard_game_mode1
attr inifile omnetpp.ini
attr iterationvars "$0=9, $1=3, $2=0"
attr iterationvarsf 9,3,0-
attr measurement "$0=9, $1=3, $2=0"
attr network Network
attr processid 9455
attr repetition 21
attr replication #21
attr resultdir results
attr runnumber 921
attr seedset 21
param *.boss.arrival_mean 20
param *.boss.service_mean 9
param *.minion.arrival_mean 10
param *.minion.service_mean 3
param *.player.recover_rate_x 0
param **.minion.arrival_distribution 0
param **.minion.service_distribution 0
param **.boss.arrival_distribution 0
param **.boss.service_distribution 0

vector 0 Network.player boss_defeated_stat:vector ETV
attr source signal_boss_defeated
vector 1 Network.player boss_jobs_queue_number_stat:vector ETV
attr source signal_boss_jobs_queue_number
vector 2 Network.player boss_response_time_stat:vector ETV
attr source signal_boss_response_time
vector 3 Network.player minion_waiting_time_stat:vector ETV
attr source signal_minion_waiting_time
vector 4 Network.player minion_defeated_stat:vector ETV
attr source signal_minion_defeated
vector 5 Network.player minion_jobs_queue_number_stat:vector ETV
attr source signal_minion_jobs_queue_number
vector 6 Network.player minion_response_time_stat:vector ETV
attr source signal_minion_response_time
vector 7 Network.player minion_jobs_number_stat:vector ETV
attr source signal_minion_jobs_number
vector 8 Network.player boss_jobs_number_stat:vector ETV
attr source signal_boss_jobs_number
vector 9 Network.player boss_waiting_time_stat:vector ETV
attr source signal_boss_waiting_time
vector 10 Network.player minion_recovered_stat:vector ETV
attr source signal_minion_recovered
vector 11 Network.player minion_throughput:vector ETV
attr source signal_minion_throughput
vector 12 Network.player boss_throughput:vector ETV
attr source signal_boss_throughput
0	2003 2540 151 1088 352.639959751195 2456.336294181918 95 15 109 5890 436620
1	4543 4877 151 1097 352.639959751195 2490.842751616098 190 0 4 120 244
2	9420 3703 151 1088 352.639959751195 2456.336294181918 95 0.095594780148 45.243000903298 1259.0771122657 32264.310763066
3	13123 8439 151 1094 352.639959751195 2489.019590075643 240 0 86.704290580748 4099.8153780361 198979.71506011
4	21562 6074 152 1095 353.558932560254 2489.096011024566 222 35 256 32301 5611531
5	27636 11382 152 1099 353.558932560254 2491.481527160442 443 0 14 955 5575
6	39018 8659 152 1095 353.558932560254 2489.096011024566 222 0.00251240124 87.76866271036 4446.3518882275 216663.22217187
7	47677 5685 155 1099 363.579054885799 2491.481527160442 221 1 15 698 3962
8	53362 2442 185 1097 437.655607876823 2490.842751616098 95 1 5 155 337
9	55804 2951 185 1097 437.655607876823 2490.842751616098 95 0 38.103817557026 485.50748600659 11085.958816423
10	58755 494 270 937 707.079421658916 2055.107241010381 18 8 25 297 5385
11	59249 20 1100 1100 2500 2500 1 0.1024 0.1024 0.1024 0.01048576
12	59269 20 1100 1100 2500 2500 1 0.0436 0.0436 0.0436 0.00190096

