file 59089 1678560162                                           
version 2
run experiments_hard_game_mode1-944-20230311-19:42:42-9572
attr configname experiments_hard_game_mode1
attr datetime 20230311-19:42:42
attr experiment experiments_hard_game_mode1
attr inifile omnetpp.ini
attr iterationvars "$0=9, $1=3, $2=100"
attr iterationvarsf 9,3,100-
attr measurement "$0=9, $1=3, $2=100"
attr network Network
attr processid 9572
attr repetition 14
attr replication #14
attr resultdir results
attr runnumber 944
attr seedset 14
param *.boss.arrival_mean 20
param *.boss.service_mean 9
param *.minion.arrival_mean 10
param *.minion.service_mean 3
param *.player.recover_rate_x 100
param **.minion.arrival_distribution 0
param **.minion.service_distribution 0
param **.boss.arrival_distribution 0
param **.boss.service_distribution 0

vector 0 Network.player minion_jobs_number_stat:vector ETV
attr source signal_minion_jobs_number
vector 1 Network.player minion_jobs_queue_number_stat:vector ETV
attr source signal_minion_jobs_queue_number
vector 2 Network.player boss_defeated_stat:vector ETV
attr source signal_boss_defeated
vector 3 Network.player boss_jobs_queue_number_stat:vector ETV
attr source signal_boss_jobs_queue_number
vector 4 Network.player boss_response_time_stat:vector ETV
attr source signal_boss_response_time
vector 5 Network.player minion_waiting_time_stat:vector ETV
attr source signal_minion_waiting_time
vector 6 Network.player boss_jobs_number_stat:vector ETV
attr source signal_boss_jobs_number
vector 7 Network.player minion_recovered_stat:vector ETV
attr source signal_minion_recovered
vector 8 Network.player boss_waiting_time_stat:vector ETV
attr source signal_boss_waiting_time
vector 9 Network.player minion_defeated_stat:vector ETV
attr source signal_minion_defeated
vector 10 Network.player minion_response_time_stat:vector ETV
attr source signal_minion_response_time
vector 11 Network.player minion_throughput:vector ETV
attr source signal_minion_throughput
vector 12 Network.player boss_throughput:vector ETV
attr source signal_boss_throughput
0	2011 5307 151 1063 355.033945535691 2493.000563500548 206 1 15 782 5078
1	7318 10618 151 1065 355.033945535691 2498.099266572706 412 0 14 1152 7440
2	17936 2679 152 1052 356.071291742075 2468.954069279452 100 15 114 6450 499350
3	20615 5104 152 1052 356.071291742075 2468.954069279452 199 0 3 94 134
4	25719 3908 152 1052 356.071291742075 2468.954069279452 100 0.326897352355 32.757239972266 1211.3940229311 21690.874289761
5	29627 8858 152 1064 356.071291742075 2496.070619428416 245 0 100.8012001515 5481.8829940893 273684.56510674
6	38485 2540 154 1051 357.206506079018 2464.141668652333 99 1 4 146 260
7	41025 1039 154 1051 357.206506079018 2464.141668652333 39 4 42 897 25571
8	42064 3043 154 1051 357.206506079018 2464.141668652333 99 0 30.14561540203 325.58982462424 4524.0001525322
9	45107 5653 160 1065 365.903585835471 2498.099266572706 206 36 241 28531 4680011
10	50760 8288 160 1065 365.903585835471 2498.099266572706 206 0.025693142964 101.7852662213 5108.821737329 253914.61066906
11	59048 20 1066 1066 2500 2500 1 0.0964 0.0964 0.0964 0.00929296
12	59068 20 1066 1066 2500 2500 1 0.0456 0.0456 0.0456 0.00207936

