file 55725 1678560088                                           
version 2
run experiments_hard_game_mode1-599-20230311-19:41:28-7695
attr configname experiments_hard_game_mode1
attr datetime 20230311-19:41:28
attr experiment experiments_hard_game_mode1
attr inifile omnetpp.ini
attr iterationvars "$0=8, $1=7, $2=100"
attr iterationvarsf 8,7,100-
attr measurement "$0=8, $1=7, $2=100"
attr network Network
attr processid 7695
attr repetition 29
attr replication #29
attr resultdir results
attr runnumber 599
attr seedset 29
param *.boss.arrival_mean 20
param *.boss.service_mean 8
param *.minion.arrival_mean 10
param *.minion.service_mean 7
param *.player.recover_rate_x 100
param **.minion.arrival_distribution 0
param **.minion.service_distribution 0
param **.boss.arrival_distribution 0
param **.boss.service_distribution 0

vector 0 Network.player boss_jobs_number_stat:vector ETV
attr source signal_boss_jobs_number
vector 1 Network.player boss_jobs_queue_number_stat:vector ETV
attr source signal_boss_jobs_queue_number
vector 2 Network.player minion_recovered_stat:vector ETV
attr source signal_minion_recovered
vector 3 Network.player boss_waiting_time_stat:vector ETV
attr source signal_boss_waiting_time
vector 4 Network.player boss_defeated_stat:vector ETV
attr source signal_boss_defeated
vector 5 Network.player boss_response_time_stat:vector ETV
attr source signal_boss_response_time
vector 6 Network.player minion_waiting_time_stat:vector ETV
attr source signal_minion_waiting_time
vector 7 Network.player minion_defeated_stat:vector ETV
attr source signal_minion_defeated
vector 8 Network.player minion_jobs_queue_number_stat:vector ETV
attr source signal_minion_jobs_queue_number
vector 9 Network.player minion_response_time_stat:vector ETV
attr source signal_minion_response_time
vector 10 Network.player minion_jobs_number_stat:vector ETV
attr source signal_minion_jobs_number
vector 11 Network.player minion_throughput:vector ETV
attr source signal_minion_throughput
vector 12 Network.player boss_throughput:vector ETV
attr source signal_boss_throughput
0	2011 2583 135 999 361.021825549164 2455.75371522284 101 1 6 165 373
1	4594 5176 135 1000 361.021825549164 2456.170032065836 202 0 5 128 288
2	9770 1641 135 999 361.021825549164 2455.75371522284 62 5 66 2201 97991
3	11411 3101 135 999 361.021825549164 2455.75371522284 101 0 48.218049466333 424.14543833688 11158.281978522
4	14512 2709 136 1000 363.588817060869 2456.170032065836 101 14 114 6464 499546
5	17221 3938 136 1000 363.588817060869 2456.170032065836 101 0.354490034924 65.482862102447 1175.0753676945 29216.653236395
6	21159 8656 136 1009 363.588817060869 2494.519121377911 219 42.076197879689 505.50089858218 61896.218186085 21053947.866915
7	29815 4252 137 1009 369.589864821019 2494.519121377911 157 23 179 15857 1924035
8	34067 9687 137 1009 369.589864821019 2494.519121377911 365 5 66 13251 572679
9	43754 6197 137 1009 369.589864821019 2494.519121377911 157 55.791237059071 517.41303626376 45002.618279613 15430961.348237
10	49951 5733 143 1007 379.608095313354 2464.886615128397 208 6 67 7828 346098
11	55684 20 1010 1010 2500 2500 1 0.0716 0.0716 0.0716 0.00512656
12	55704 20 1010 1010 2500 2500 1 0.0456 0.0456 0.0456 0.00207936

