version 2
run experiments_hard_game_mode1-858-20230311-19:42:23-9135
attr configname experiments_hard_game_mode1
attr datetime 20230311-19:42:23
attr experiment experiments_hard_game_mode1
attr inifile omnetpp.ini
attr iterationvars "$0=8.5, $1=7, $2=0"
attr iterationvarsf 8.5,7,0-
attr measurement "$0=8.5, $1=7, $2=0"
attr network Network
attr processid 9135
attr repetition 18
attr replication #18
attr resultdir results
attr runnumber 858
attr seedset 18
param *.boss.arrival_mean 20
param *.boss.service_mean 8.5
param *.minion.arrival_mean 10
param *.minion.service_mean 7
param *.player.recover_rate_x 0
param **.minion.arrival_distribution 0
param **.minion.service_distribution 0
param **.boss.arrival_distribution 0
param **.boss.service_distribution 0

vector 0 Network.player boss_jobs_number_stat:vector ETV
attr source signal_boss_jobs_number
vector 1 Network.player boss_jobs_queue_number_stat:vector ETV
attr source signal_boss_jobs_queue_number
vector 2 Network.player minion_recovered_stat:vector ETV
attr source signal_minion_recovered
vector 3 Network.player boss_waiting_time_stat:vector ETV
attr source signal_boss_waiting_time
vector 4 Network.player minion_jobs_number_stat:vector ETV
attr source signal_minion_jobs_number
vector 5 Network.player minion_jobs_queue_number_stat:vector ETV
attr source signal_minion_jobs_queue_number
vector 6 Network.player boss_defeated_stat:vector ETV
attr source signal_boss_defeated
vector 7 Network.player boss_response_time_stat:vector ETV
attr source signal_boss_response_time
vector 8 Network.player minion_waiting_time_stat:vector ETV
attr source signal_minion_waiting_time
vector 9 Network.player minion_defeated_stat:vector ETV
attr source signal_minion_defeated
vector 10 Network.player minion_response_time_stat:vector ETV
attr source signal_minion_response_time
vector 11 Network.player minion_throughput:vector ETV
attr source signal_minion_throughput
vector 12 Network.player boss_throughput:vector ETV
attr source signal_boss_throughput
0	138	352.65760743913	1
0	143	359.293699558628	1
0	146	361.689670555923	1
0	170	423.510220605586	1
0	185	464.310329824607	1
0	197	490.311357624162	1
0	204	503.252965294132	1
0	208	507.787385408353	2
0	212	509.460907223688	3
0	219	515.59083765368	3
0	221	518.812306809382	4
0	228	528.789657893763	4
0	230	536.621619676878	5
0	234	539.876371230947	6
0	236	540.011977590143	7
0	251	576.409290106954	3
0	266	601.646983798841	1
0	280	620.5673933378	1
0	282	621.913209437982	2
0	296	646.35204339536	1
0	300	657.379640067769	1
0	326	733.174320689637	1
0	337	765.857088538859	1
0	366	831.36383180455	1
0	368	831.962629369746	2
0	375	850.840600045191	2
0	381	865.76178541671	3
0	394	901.223484359462	1
0	410	932.184322298713	1
0	413	937.929585530627	1
0	432	971.342649776712	1
0	442	983.072545625181	1
0	446	991.427067730116	1
0	456	1015.605515033844	1
0	463	1025.81114179477	1
0	494	1109.798972014767	1
0	507	1149.457133924026	1
0	529	1196.526696454582	1
0	531	1196.569454728748	2
0	534	1210.285144495441	2
0	536	1213.98675580795	3
0	543	1231.630065478987	3
0	548	1241.308179746611	3
0	556	1263.189796643971	4
0	569	1281.513172219529	2
0	573	1292.096612948606	1
0	579	1294.89263798076	2
0	581	1295.723033753267	3
0	583	1296.428746356222	4
0	585	1297.941004178685	5
0	596	1322.14802534089	3
0	598	1323.120498050406	4
0	609	1338.292960251381	4
0	627	1384.918681491055	1
0	635	1412.519964056525	1
0	643	1429.644800299848	1
0	645	1432.943823798201	2
0	653	1454.825693868242	3
0	655	1456.237201907714	4
0	659	1463.501273298819	5
0	667	1476.895200702336	4
0	671	1478.65248867971	5
0	678	1493.942844496456	5
0	684	1513.068384497825	4
0	690	1530.316331484607	5
0	733	1626.275814319071	1
0	743	1648.090529582688	1
0	745	1648.406833864499	2
0	750	1660.09057612624	2
0	755	1673.738745992098	2
0	757	1676.701949053993	3
0	759	1677.810560318481	4
0	762	1682.363952277894	4
0	769	1701.700788650236	2
0	771	1706.668184001908	3
0	785	1748.582026119455	1
0	803	1779.095334613409	1
0	814	1801.263659048677	1
0	825	1825.874136888878	1
0	830	1830.294960282079	1
0	838	1845.141402175686	1
0	847	1885.574877957284	1
0	878	1962.87460879635	1
0	896	2024.60862566707	1
0	898	2030.819784934859	2
0	907	2055.285658945094	1
0	919	2081.351597619549	1
0	928	2096.782173260599	1
0	934	2106.087901989699	1
0	957	2154.144294006872	1
0	966	2167.364661838233	1
0	972	2176.992351096176	1
0	982	2206.891406240519	1
0	993	2247.512079356014	1
0	1009	2306.924212961346	1
0	1018	2348.186366084548	1
0	1028	2370.15674638938	1
0	1057	2425.111267728735	1
0	1068	2451.626198357569	1
0	1079	2469.476608553846	1
0	1090	2490.238705866935	1
0	1092	2494.252370332495	2
0	1094	2494.636027121347	3
1	138	352.65760743913	0
1	141	356.640784262016	0
1	143	359.293699558628	0
1	144	359.769118779632	0
1	146	361.689670555923	0
1	149	384.739882903076	0
1	170	423.510220605586	0
1	173	429.869718926065	0
1	185	464.310329824607	0
1	186	473.188795067943	0
1	197	490.311357624162	0
1	200	498.382497647972	0
1	204	503.252965294132	0
1	208	507.787385408353	1
1	212	509.460907223688	2
1	213	512.722859614605	2
1	219	515.59083765368	2
1	221	518.812306809382	3
1	222	518.930854739097	3
1	228	528.789657893763	3
1	230	536.621619676878	4
1	234	539.876371230947	5
1	236	540.011977590143	6
1	237	541.727820967848	6
1	242	553.120460605613	5
1	245	562.543786091326	4
1	248	570.58898486129	3
1	249	572.834070165723	2
1	251	576.409290106954	2
1	252	579.243566445863	2
1	253	581.755245282388	1
1	256	585.308918901615	0
1	266	601.646983798841	0
1	269	603.813478243928	0
1	280	620.5673933378	0
1	282	621.913209437982	1
1	283	624.81017913465	1
1	284	625.525398702644	0
1	296	646.35204339536	0
1	297	654.422667903858	0
1	300	657.379640067769	0
1	303	659.108040455256	0
1	326	733.174320689637	0
1	327	738.517861010916	0
1	337	765.857088538859	0
1	340	776.828889394623	0
1	366	831.36383180455	0
1	368	831.962629369746	1
1	369	832.477183263086	1
1	375	850.840600045191	1
1	381	865.76178541671	2
1	384	890.623061065868	2
1	387	894.500834048344	1
1	388	895.814219000124	0
1	394	901.223484359462	0
1	395	908.696457220023	0
1	410	932.184322298713	0
1	411	934.304109996419	0
1	413	937.929585530627	0
1	414	939.646889792143	0
1	432	971.342649776712	0
1	435	974.116690144494	0
1	442	983.072545625181	0
1	443	989.901145715883	0
1	446	991.427067730116	0
1	451	1003.111117765823	0
1	456	1015.605515033844	0
1	457	1017.146703979065	0
1	463	1025.81114179477	0
1	470	1059.270690058096	0
1	494	1109.798972014767	0
1	499	1115.706810812165	0
1	507	1149.457133924026	0
1	514	1162.250108198688	0
1	529	1196.526696454582	0
1	531	1196.569454728748	1
1	532	1204.301548245882	1
1	534	1210.285144495441	1
1	536	1213.98675580795	2
1	537	1214.398799197567	2
1	543	1231.630065478987	2
1	546	1240.380276853454	2
1	548	1241.308179746611	2
1	556	1263.189796643971	3
1	557	1265.585317714716	3
1	562	1270.019277781817	2
1	563	1270.708164457577	1
1	569	1281.513172219529	1
1	570	1288.602601435042	1
1	571	1290.606943569443	0
1	573	1292.096612948606	0
1	579	1294.89263798076	1
1	581	1295.723033753267	2
1	583	1296.428746356222	3
1	585	1297.941004178685	4
1	586	1301.675066214135	4
1	591	1310.983035164864	3
1	594	1315.268341770763	2
1	596	1322.14802534089	2
1	598	1323.120498050406	3
1	601	1328.922056505392	3
1	609	1338.292960251381	3
1	622	1370.821375850159	3
1	623	1379.466350701622	2
1	624	1382.798165443485	1
1	625	1383.086026682189	0
1	627	1384.918681491055	0
1	628	1396.196452980874	0
1	635	1412.519964056525	0
1	636	1415.37377540495	0
1	643	1429.644800299848	0
1	645	1432.943823798201	1
1	653	1454.825693868242	2
1	655	1456.237201907714	3
1	659	1463.501273298819	4
1	662	1465.130842866936	4
1	663	1465.887656377213	3
1	667	1476.895200702336	3
1	671	1478.65248867971	4
1	672	1480.365219800514	4
1	678	1493.942844496456	4
1	679	1498.058875353787	4
1	680	1506.192555145244	3
1	684	1513.068384497825	3
1	690	1530.316331484607	4
1	691	1532.499346159614	4
1	694	1537.526142635727	3
1	697	1548.605650319169	2
1	700	1558.573961933134	1
1	701	1558.791487091634	0
1	733	1626.275814319071	0
1	736	1634.300783270127	0
1	743	1648.090529582688	0
1	745	1648.406833864499	1
1	748	1660.066966754811	1
1	750	1660.09057612624	1
1	751	1662.302192414199	1
1	755	1673.738745992098	1
1	757	1676.701949053993	2
1	759	1677.810560318481	3
1	760	1681.204782012494	3
1	762	1682.363952277894	3
1	763	1684.15607471197	3
1	764	1686.775526309249	2
1	767	1700.841746226315	1
1	769	1701.700788650236	1
1	771	1706.668184001908	2
1	774	1723.613082053276	2
1	777	1731.026097082508	1
1	778	1735.476063643153	0
1	785	1748.582026119455	0
1	786	1754.239986542404	0
1	803	1779.095334613409	0
1	808	1783.65500629502	0
1	814	1801.263659048677	0
1	815	1804.833065182885	0
1	825	1825.874136888878	0
1	826	1827.748795394971	0
1	830	1830.294960282079	0
1	833	1836.800507037347	0
1	838	1845.141402175686	0
1	843	1881.221395171083	0
1	847	1885.574877957284	0
1	848	1885.69069063858	0
1	878	1962.87460879635	0
1	879	1966.06933298691	0
1	896	2024.60862566707	0
1	898	2030.819784934859	1
1	899	2036.516116901463	1
1	902	2038.192859243463	0
1	907	2055.285658945094	0
1	910	2063.263836048759	0
1	919	2081.351597619549	0
1	920	2081.449870864068	0
1	928	2096.782173260599	0
1	931	2103.416006085664	0
1	934	2106.087901989699	0
1	937	2119.838367542373	0
1	957	2154.144294006872	0
1	960	2157.611015544926	0
1	966	2167.364661838233	0
1	969	2173.322615529092	0
1	972	2176.992351096176	0
1	975	2181.645291304582	0
1	982	2206.891406240519	0
1	985	2212.257910944938	0
1	993	2247.512079356014	0
1	994	2252.900943247556	0
1	1009	2306.924212961346	0
1	1010	2319.773034873332	0
1	1018	2348.186366084548	0
1	1019	2350.96035192835	0
1	1028	2370.15674638938	0
1	1031	2372.990400666358	0
1	1057	2425.111267728735	0
1	1060	2434.566212148321	0
1	1068	2451.626198357569	0
1	1069	2452.601129510318	0
1	1079	2469.476608553846	0
1	1080	2480.027336128466	0
1	1090	2490.238705866935	0
1	1092	2494.252370332495	1
1	1094	2494.636027121347	2
2	138	352.65760743913	8
2	143	359.293699558628	9
2	146	361.689670555923	10
2	170	423.510220605586	11
2	185	464.310329824607	12
2	197	490.311357624162	13
2	204	503.252965294132	14
2	266	601.646983798841	15
2	280	620.5673933378	16
2	296	646.35204339536	17
2	300	657.379640067769	18
2	326	733.174320689637	19
2	337	765.857088538859	20
2	366	831.36383180455	21
2	394	901.223484359462	22
2	410	932.184322298713	23
2	413	937.929585530627	24
2	432	971.342649776712	25
2	442	983.072545625181	26
2	446	991.427067730116	27
2	456	1015.605515033844	28
2	463	1025.81114179477	29
2	494	1109.798972014767	30
2	507	1149.457133924026	31
2	529	1196.526696454582	32
2	573	1292.096612948606	33
2	627	1384.918681491055	34
2	635	1412.519964056525	35
2	643	1429.644800299848	36
2	733	1626.275814319071	37
2	743	1648.090529582688	38
2	785	1748.582026119455	39
2	803	1779.095334613409	40
2	814	1801.263659048677	41
2	825	1825.874136888878	42
2	830	1830.294960282079	43
2	838	1845.141402175686	44
2	847	1885.574877957284	45
2	878	1962.87460879635	46
2	896	2024.60862566707	47
2	907	2055.285658945094	48
2	919	2081.351597619549	49
2	928	2096.782173260599	50
2	934	2106.087901989699	51
2	957	2154.144294006872	52
2	966	2167.364661838233	53
2	972	2176.992351096176	54
2	982	2206.891406240519	55
2	993	2247.512079356014	56
2	1009	2306.924212961346	57
2	1018	2348.186366084548	58
2	1028	2370.15674638938	59
2	1057	2425.111267728735	60
2	1068	2451.626198357569	61
2	1079	2469.476608553846	62
2	1090	2490.238705866935	63
3	138	352.65760743913	0
3	143	359.293699558628	0
3	146	361.689670555923	0
3	170	423.510220605586	0
3	185	464.310329824607	0
3	197	490.311357624162	0
3	204	503.252965294132	0
3	213	512.722859614605	4.935474206252
3	222	518.930854739097	9.469947515409
3	237	541.727820967848	26.136983314168
3	242	553.120460605613	34.308153796231
3	245	562.543786091326	33.754128197563
3	248	570.58898486129	33.967365184412
3	249	572.834070165723	32.957698934776
3	252	579.243566445863	39.23158885572
3	253	581.755245282388	5.345955175434
3	266	601.646983798841	0
3	280	620.5673933378	0
3	283	624.81017913465	2.896969696668
3	296	646.35204339536	0
3	300	657.379640067769	0
3	326	733.174320689637	0
3	337	765.857088538859	0
3	366	831.36383180455	0
3	369	832.477183263086	0.51455389334
3	384	890.623061065868	39.782461020677
3	387	894.500834048344	28.739048631634
3	394	901.223484359462	0
3	410	932.184322298713	0
3	413	937.929585530627	0
3	432	971.342649776712	0
3	442	983.072545625181	0
3	446	991.427067730116	0
3	456	1015.605515033844	0
3	463	1025.81114179477	0
3	494	1109.798972014767	0
3	507	1149.457133924026	0
3	529	1196.526696454582	0
3	532	1204.301548245882	7.732093517134
3	537	1214.398799197567	4.113654702126
3	546	1240.380276853454	26.393521045504
3	557	1265.585317714716	33.955252235729
3	562	1270.019277781817	28.711098035206
3	563	1270.708164457577	7.518367813606
3	570	1288.602601435042	7.089429215513
3	573	1292.096612948606	0
3	586	1301.675066214135	6.782428233375
3	591	1310.983035164864	15.260001411597
3	594	1315.268341770763	18.839595414541
3	601	1328.922056505392	30.981052326707
3	622	1370.821375850159	48.673350509269
3	623	1379.466350701622	56.345852651216
3	624	1382.798165443485	44.505205192104
3	627	1384.918681491055	0
3	635	1412.519964056525	0
3	643	1429.644800299848	0
3	662	1465.130842866936	32.187019068735
3	663	1465.887656377213	11.061962508971
3	672	1480.365219800514	24.1280178928
3	679	1498.058875353787	34.557602054968
3	680	1506.192555145244	29.297354442908
3	691	1532.499346159614	53.846857479904
3	694	1537.526142635727	43.583298139271
3	697	1548.605650319169	35.537265821344
3	700	1558.573961933134	28.257630448527
3	733	1626.275814319071	0
3	743	1648.090529582688	0
3	748	1660.066966754811	11.660132890312
3	751	1662.302192414199	2.211616287959
3	760	1681.204782012494	7.466036020396
3	763	1684.15607471197	7.454125657977
3	764	1686.775526309249	8.964965990768
3	767	1700.841746226315	18.477793948421
3	774	1723.613082053276	21.91229340304
3	777	1731.026097082508	24.3579130806
3	785	1748.582026119455	0
3	803	1779.095334613409	0
3	814	1801.263659048677	0
3	825	1825.874136888878	0
3	830	1830.294960282079	0
3	838	1845.141402175686	0
3	847	1885.574877957284	0
3	878	1962.87460879635	0
3	896	2024.60862566707	0
3	899	2036.516116901463	5.696331966604
3	907	2055.285658945094	0
3	919	2081.351597619549	0
3	928	2096.782173260599	0
3	934	2106.087901989699	0
3	957	2154.144294006872	0
3	966	2167.364661838233	0
3	972	2176.992351096176	0
3	982	2206.891406240519	0
3	993	2247.512079356014	0
3	1009	2306.924212961346	0
3	1018	2348.186366084548	0
3	1028	2370.15674638938	0
3	1057	2425.111267728735	0
3	1068	2451.626198357569	0
3	1079	2469.476608553846	0
3	1090	2490.238705866935	0
4	140	355.05946736505	9
4	148	370.780850023652	10
4	151	386.01824043156	11
4	155	397.684376195028	10
4	158	407.278190585379	10
4	161	407.91544005567	10
4	166	417.79778371846	8
4	168	419.657785982005	9
4	172	424.276063284641	10
4	177	445.699346670034	9
4	179	447.543103794211	10
4	183	460.516704985146	9
4	188	474.19422053615	10
4	192	481.095683169202	9
4	194	486.127831312219	10
4	199	490.485140357307	10
4	202	501.288951545055	11
4	206	505.002956299096	12
4	210	508.839663443019	13
4	215	513.738271046524	14
4	217	514.458292495847	15
4	224	525.229499277953	16
4	226	525.730885217399	17
4	232	537.391873471516	18
4	239	543.219500807899	19
4	241	548.535664666951	20
4	244	560.623706455632	21
4	247	568.939460714816	22
4	255	584.468749162211	23
4	264	599.791279867924	18
4	268	602.50064407349	19
4	272	605.718975695784	19
4	276	616.248476632966	18
4	278	619.18447714698	19
4	288	639.624648878793	18
4	290	641.806301898067	19
4	292	644.169706261645	20
4	302	658.230766056464	18
4	305	659.622136286692	19
4	307	665.804613480816	20
4	309	682.178400840308	21
4	313	700.87674194091	20
4	315	701.285677243009	21
4	319	717.967404583469	20
4	321	722.446726874082	21
4	329	739.610347347772	19
4	334	750.885863105092	17
4	339	769.247020053464	17
4	344	786.806884617963	16
4	346	796.034432044079	17
4	348	801.770196139294	18
4	350	802.643361737249	19
4	352	803.466342464771	20
4	358	821.989938605393	17
4	360	822.971999659924	18
4	362	825.692127493628	19
4	371	837.481048809211	18
4	373	837.528711359265	19
4	377	853.367451096851	20
4	379	864.80791871467	21
4	383	868.699468202168	22
4	386	892.215476562267	23
4	390	896.95419122637	24
4	397	908.783784786466	23
4	400	921.983408396422	23
4	402	923.077491675642	24
4	404	926.313872219769	25
4	406	928.366526091904	26
4	408	931.138786419577	27
4	419	951.775819964726	25
4	422	954.938401825785	25
4	426	960.15791517345	24
4	428	961.941637758824	25
4	434	973.955373969978	24
4	437	974.438970779056	25
4	440	976.208487875792	25
4	448	994.275476802733	25
4	450	998.967850855492	26
4	459	1021.422423220967	24
4	461	1025.61861987627	25
4	465	1034.732109192486	26
4	467	1038.782605635946	27
4	469	1043.159900290471	28
4	473	1064.460086608793	28
4	475	1065.265403748812	29
4	479	1093.886914810011	28
4	483	1095.796884728062	27
4	487	1100.441881947243	26
4	489	1102.411024622887	27
4	496	1110.248847979331	25
4	498	1115.662036455481	26
4	501	1127.991864436109	27
4	509	1150.403494908239	24
4	511	1157.698185414769	25
4	513	1160.726672716901	26
4	520	1179.987550244786	23
4	525	1190.406193379886	21
4	527	1192.060187505366	22
4	539	1214.542207979603	23
4	541	1230.587609546064	24
4	545	1239.074375508244	25
4	550	1257.072305290322	26
4	552	1258.154433461831	27
4	554	1258.463916101759	28
4	559	1268.084140595639	29
4	561	1269.559912571375	30
4	565	1279.343956200392	31
4	567	1281.438934440836	32
4	575	1293.39115214529	33
4	577	1294.09831111435	34
4	588	1306.377084729727	35
4	590	1308.790255576544	36
4	593	1312.306243155178	37
4	600	1325.552127347144	38
4	603	1329.476278199886	39
4	605	1331.977731951153	40
4	607	1335.18914020612	41
4	611	1345.473493177319	42
4	613	1353.837422051082	43
4	615	1355.903882210185	44
4	617	1356.72186603143	45
4	619	1361.4761275669	46
4	621	1367.411236736202	47
4	630	1399.696189430956	48
4	638	1417.078528100198	46
4	640	1420.290782061921	47
4	647	1438.259455455825	47
4	649	1444.792201787484	48
4	651	1449.871614903672	49
4	657	1460.060926220485	50
4	661	1464.592283923065	51
4	665	1476.202711998038	52
4	669	1478.069516448218	53
4	674	1485.640289736562	54
4	676	1487.04370975529	55
4	682	1512.283199849435	56
4	686	1514.492181875754	57
4	688	1525.749158143837	58
4	693	1532.577202008577	59
4	696	1538.005236612714	60
4	699	1551.435827516609	61
4	703	1561.172855466474	62
4	705	1562.687982903677	63
4	708	1576.644626109085	63
4	710	1577.971520441329	64
4	712	1578.224976662378	65
4	714	1580.245655261544	66
4	719	1584.930820075336	64
4	724	1598.806839497624	62
4	727	1609.425566048026	62
4	731	1624.066798678646	61
4	735	1627.508938156312	62
4	740	1644.804533826314	61
4	747	1656.941765470321	61
4	753	1667.440571028196	62
4	766	1696.918963719115	63
4	773	1719.112607261954	64
4	776	1730.314919826024	65
4	781	1747.308895643383	65
4	783	1748.047353153453	66
4	788	1758.501417219979	67
4	790	1759.620362943869	68
4	792	1761.129210365635	69
4	794	1763.813737269511	70
4	796	1770.185782847709	71
4	801	1778.687776808715	69
4	805	1781.263490443706	70
4	807	1783.647511303199	71
4	811	1791.920343721064	71
4	818	1809.927053426328	70
4	822	1824.121326190655	69
4	828	1828.799173711548	69
4	832	1836.776512552437	70
4	840	1863.001971466587	68
4	842	1877.221133022566	69
4	850	1886.960024108163	68
4	852	1894.963428843149	69
4	854	1898.466332015644	70
4	857	1905.001104474535	70
4	859	1918.282732109325	71
4	863	1930.581653249306	70
4	865	1935.826789934323	71
4	867	1942.879357732617	72
4	870	1951.691519557266	72
4	872	1951.845844740435	73
4	875	1955.941756291918	73
4	883	1981.415149903608	71
4	887	1991.932271441198	70
4	901	2036.820239663622	64
4	909	2055.395634036457	62
4	912	2066.336908056797	63
4	914	2068.572735745909	64
4	917	2073.629401755589	64
4	922	2090.373689927269	65
4	924	2091.510531786147	66
4	926	2094.509784816636	67
4	930	2103.10888607586	68
4	936	2109.544519618569	68
4	941	2121.370922174609	67
4	943	2121.865282291356	68
4	948	2140.760935507749	66
4	951	2148.408502014201	66
4	953	2150.88545136286	67
4	955	2153.152701023359	68
4	959	2156.826185249186	69
4	962	2158.885137271309	70
4	968	2167.645034195839	69
4	974	2180.820140528645	69
4	978	2190.617248134383	69
4	984	2208.631005398133	68
4	987	2213.327587140208	69
4	990	2229.887447686045	69
4	998	2260.949383513056	67
4	1006	2299.27861517504	62
4	1014	2325.819276184382	60
4	1021	2354.169776292782	59
4	1024	2363.140470416597	59
4	1030	2372.742441384221	58
4	1034	2376.357023247149	58
4	1040	2387.929246926715	55
4	1042	2388.368622764903	56
4	1046	2399.324458944691	55
4	1051	2416.76104363929	53
4	1054	2420.683923370384	53
4	1059	2433.483901769592	53
4	1062	2436.064121627286	54
4	1066	2449.110225251561	53
4	1071	2452.839439866003	54
4	1085	2485.429838161415	46
5	140	355.05946736505	8
5	148	370.780850023652	9
5	151	386.01824043156	10
5	152	389.981545244896	10
5	153	391.195453985977	9
5	155	397.684376195028	9
5	156	401.35094149015	9
5	158	407.278190585379	9
5	159	407.569350241935	9
5	161	407.91544005567	9
5	162	408.352417772065	9
5	163	412.395383568025	8
5	164	414.521794060332	7
5	166	417.79778371846	7
5	168	419.657785982005	8
5	172	424.276063284641	9
5	174	430.667140809448	9
5	175	434.779288883288	8
5	177	445.699346670034	8
5	179	447.543103794211	9
5	180	449.410809008715	9
5	181	451.188349238902	8
5	183	460.516704985146	8
5	188	474.19422053615	9
5	189	474.539651769247	9
5	190	475.315960755818	8
5	192	481.095683169202	8
5	194	486.127831312219	9
5	195	486.424953552526	9
5	199	490.485140357307	9
5	202	501.288951545055	10
5	206	505.002956299096	11
5	210	508.839663443019	12
5	215	513.738271046524	13
5	217	514.458292495847	14
5	224	525.229499277953	15
5	226	525.730885217399	16
5	232	537.391873471516	17
5	239	543.219500807899	18
5	241	548.535664666951	19
5	244	560.623706455632	20
5	247	568.939460714816	21
5	255	584.468749162211	22
5	257	586.190087714463	22
5	258	586.500877577672	21
5	259	588.526132254097	20
5	260	593.003816712912	19
5	261	593.246274593243	18
5	262	596.56907707933	17
5	264	599.791279867924	17
5	268	602.50064407349	18
5	270	604.816123854936	18
5	272	605.718975695784	18
5	273	610.618150603024	18
5	274	610.813019846039	17
5	276	616.248476632966	17
5	278	619.18447714698	18
5	285	633.946971572643	18
5	286	636.829082992571	17
5	288	639.624648878793	17
5	290	641.806301898067	18
5	292	644.169706261645	19
5	293	644.309491867659	19
5	294	645.813427861504	18
5	298	656.612997147027	17
5	302	658.230766056464	17
5	305	659.622136286692	18
5	307	665.804613480816	19
5	309	682.178400840308	20
5	310	685.475393409647	20
5	311	686.035576685924	19
5	313	700.87674194091	19
5	315	701.285677243009	20
5	316	706.619721034414	20
5	317	711.897739085882	19
5	319	717.967404583469	19
5	321	722.446726874082	20
5	322	723.896876847381	20
5	323	727.086322256058	19
5	324	727.332118040329	18
5	329	739.610347347772	18
5	330	746.279707157969	18
5	331	746.678896272516	17
5	332	748.852845823443	16
5	334	750.885863105092	16
5	335	758.93466877326	16
5	339	769.247020053464	16
5	341	777.227238697455	16
5	342	784.31656915598	15
5	344	786.806884617963	15
5	346	796.034432044079	16
5	348	801.770196139294	17
5	350	802.643361737249	18
5	352	803.466342464771	19
5	353	803.470643803732	19
5	354	805.798687680199	18
5	355	813.716413176853	17
5	356	820.179195408898	16
5	358	821.989938605393	16
5	360	822.971999659924	17
5	362	825.692127493628	18
5	363	827.008093129456	18
5	364	827.914407196896	17
5	371	837.481048809211	17
5	373	837.528711359265	18
5	377	853.367451096851	19
5	379	864.80791871467	20
5	383	868.699468202168	21
5	386	892.215476562267	22
5	390	896.95419122637	23
5	391	897.489762904279	23
5	392	899.507137808614	22
5	397	908.783784786466	22
5	398	910.308297970407	22
5	400	921.983408396422	22
5	402	923.077491675642	23
5	404	926.313872219769	24
5	406	928.366526091904	25
5	408	931.138786419577	26
5	415	940.903828088034	26
5	416	948.318499721634	25
5	417	948.912924073559	24
5	419	951.775819964726	24
5	420	954.280465883643	24
5	422	954.938401825785	24
5	423	957.37182188243	24
5	424	958.630118876287	23
5	426	960.15791517345	23
5	428	961.941637758824	24
5	429	967.878807916493	24
5	430	968.27356822266	23
5	434	973.955373969978	23
5	437	974.438970779056	24
5	438	975.130086366842	24
5	440	976.208487875792	24
5	444	990.780412464064	24
5	448	994.275476802733	24
5	450	998.967850855492	25
5	452	1003.412266483535	25
5	453	1005.243989599822	24
5	454	1007.931849880596	23
5	459	1021.422423220967	23
5	461	1025.61861987627	24
5	465	1034.732109192486	25
5	467	1038.782605635946	26
5	469	1043.159900290471	27
5	471	1062.511289063208	27
5	473	1064.460086608793	27
5	475	1065.265403748812	28
5	476	1082.847590865592	28
5	477	1089.400886321685	27
5	479	1093.886914810011	27
5	480	1094.594625373624	27
5	481	1095.156709797064	26
5	483	1095.796884728062	26
5	484	1095.980277600323	26
5	485	1098.142380429681	25
5	487	1100.441881947243	25
5	489	1102.411024622887	26
5	490	1103.207842565931	26
5	491	1104.11420824736	25
5	492	1104.173788746068	24
5	496	1110.248847979331	24
5	498	1115.662036455481	25
5	501	1127.991864436109	26
5	502	1131.420008815622	26
5	503	1135.280751955959	25
5	504	1141.406698447788	24
5	505	1147.537062828678	23
5	509	1150.403494908239	23
5	511	1157.698185414769	24
5	513	1160.726672716901	25
5	515	1164.476686185618	25
5	516	1167.003235195123	24
5	517	1173.091188923145	23
5	518	1173.459039386565	22
5	520	1179.987550244786	22
5	521	1180.225954816216	22
5	522	1180.325906807524	21
5	523	1186.497839626096	20
5	525	1190.406193379886	20
5	527	1192.060187505366	21
5	539	1214.542207979603	22
5	541	1230.587609546064	23
5	545	1239.074375508244	24
5	550	1257.072305290322	25
5	552	1258.154433461831	26
5	554	1258.463916101759	27
5	559	1268.084140595639	28
5	561	1269.559912571375	29
5	565	1279.343956200392	30
5	567	1281.438934440836	31
5	575	1293.39115214529	32
5	577	1294.09831111435	33
5	588	1306.377084729727	34
5	590	1308.790255576544	35
5	593	1312.306243155178	36
5	600	1325.552127347144	37
5	603	1329.476278199886	38
5	605	1331.977731951153	39
5	607	1335.18914020612	40
5	611	1345.473493177319	41
5	613	1353.837422051082	42
5	615	1355.903882210185	43
5	617	1356.72186603143	44
5	619	1361.4761275669	45
5	621	1367.411236736202	46
5	630	1399.696189430956	47
5	631	1403.946893072718	47
5	632	1403.98589174112	46
5	633	1411.780773478975	45
5	638	1417.078528100198	45
5	640	1420.290782061921	46
5	641	1426.207028983534	46
5	647	1438.259455455825	46
5	649	1444.792201787484	47
5	651	1449.871614903672	48
5	657	1460.060926220485	49
5	661	1464.592283923065	50
5	665	1476.202711998038	51
5	669	1478.069516448218	52
5	674	1485.640289736562	53
5	676	1487.04370975529	54
5	682	1512.283199849435	55
5	686	1514.492181875754	56
5	688	1525.749158143837	57
5	693	1532.577202008577	58
5	696	1538.005236612714	59
5	699	1551.435827516609	60
5	703	1561.172855466474	61
5	705	1562.687982903677	62
5	706	1570.032182871467	62
5	708	1576.644626109085	62
5	710	1577.971520441329	63
5	712	1578.224976662378	64
5	714	1580.245655261544	65
5	715	1581.057675065271	65
5	716	1581.612679873922	64
5	717	1581.89472274573	63
5	719	1584.930820075336	63
5	720	1589.541519626757	63
5	721	1590.09177861237	62
5	722	1595.219785399024	61
5	724	1598.806839497624	61
5	725	1606.815332741422	61
5	727	1609.425566048026	61
5	728	1622.027532798978	61
5	729	1623.262926492284	60
5	731	1624.066798678646	60
5	735	1627.508938156312	61
5	737	1636.358630636098	61
5	738	1643.612230506817	60
5	740	1644.804533826314	60
5	741	1646.483238281921	60
5	747	1656.941765470321	60
5	753	1667.440571028196	61
5	766	1696.918963719115	62
5	773	1719.112607261954	63
5	776	1730.314919826024	64
5	779	1736.674950907617	64
5	781	1747.308895643383	64
5	783	1748.047353153453	65
5	788	1758.501417219979	66
5	790	1759.620362943869	67
5	792	1761.129210365635	68
5	794	1763.813737269511	69
5	796	1770.185782847709	70
5	797	1770.283967736516	70
5	798	1775.176507144038	69
5	799	1778.003213270608	68
5	801	1778.687776808715	68
5	805	1781.263490443706	69
5	807	1783.647511303199	70
5	809	1786.341917722936	70
5	811	1791.920343721064	70
5	812	1794.178588777974	70
5	816	1807.45312393166	69
5	818	1809.927053426328	69
5	819	1810.127458719601	69
5	820	1814.756914457117	68
5	822	1824.121326190655	68
5	823	1825.680813834641	68
5	828	1828.799173711548	68
5	832	1836.776512552437	69
5	834	1838.53090055895	69
5	835	1839.635528463619	68
5	836	1840.78445095281	67
5	840	1863.001971466587	67
5	842	1877.221133022566	68
5	844	1881.418946225205	68
5	845	1885.397755341087	67
5	850	1886.960024108163	67
5	852	1894.963428843149	68
5	854	1898.466332015644	69
5	855	1900.602139244907	69
5	857	1905.001104474535	69
5	859	1918.282732109325	70
5	860	1919.451135954941	70
5	861	1925.392926443942	69
5	863	1930.581653249306	69
5	865	1935.826789934323	70
5	867	1942.879357732617	71
5	868	1946.826282867244	71
5	870	1951.691519557266	71
5	872	1951.845844740435	72
5	873	1953.488079302445	72
5	875	1955.941756291918	72
5	876	1960.913071142522	72
5	880	1967.686543946152	71
5	881	1980.22596309334	70
5	883	1981.415149903608	70
5	884	1984.017957136904	70
5	885	1991.47035387886	69
5	887	1991.932271441198	69
5	888	1994.541933324085	69
5	889	1994.916617368179	68
5	890	2000.260626078898	67
5	891	2014.08908687504	66
5	892	2016.201545633027	65
5	893	2017.138321410261	64
5	894	2020.782819192817	63
5	901	2036.820239663622	63
5	903	2044.854665704342	63
5	904	2045.070049035034	62
5	905	2047.332336887782	61
5	909	2055.395634036457	61
5	912	2066.336908056797	62
5	914	2068.572735745909	63
5	915	2069.239774214875	63
5	917	2073.629401755589	63
5	922	2090.373689927269	64
5	924	2091.510531786147	65
5	926	2094.509784816636	66
5	930	2103.10888607586	67
5	932	2105.157435539639	67
5	936	2109.544519618569	67
5	938	2120.148646139238	67
5	939	2120.341285670509	66
5	941	2121.370922174609	66
5	943	2121.865282291356	67
5	944	2125.350178222776	67
5	945	2128.996981019109	66
5	946	2138.742212686768	65
5	948	2140.760935507749	65
5	949	2148.154640731688	65
5	951	2148.408502014201	65
5	953	2150.88545136286	66
5	955	2153.152701023359	67
5	959	2156.826185249186	68
5	962	2158.885137271309	69
5	963	2161.343586148702	69
5	964	2165.705358234212	68
5	968	2167.645034195839	68
5	970	2176.76495043036	68
5	974	2180.820140528645	68
5	976	2185.504677430902	68
5	978	2190.617248134383	68
5	979	2190.67250208823	68
5	980	2203.31437001318	67
5	984	2208.631005398133	67
5	987	2213.327587140208	68
5	988	2229.536125168113	68
5	990	2229.887447686045	68
5	991	2236.036024062152	68
5	995	2257.541314364086	67
5	996	2259.198214731472	66
5	998	2260.949383513056	66
5	999	2264.752017506113	66
5	1000	2266.271220066518	65
5	1001	2267.821748129395	64
5	1002	2268.253057779691	63
5	1003	2291.970377970077	62
5	1004	2297.412196758532	61
5	1006	2299.27861517504	61
5	1007	2301.332809592192	61
5	1011	2321.391397247409	60
5	1012	2321.395562199417	59
5	1014	2325.819276184382	59
5	1015	2338.697912238229	59
5	1016	2344.522365240144	58
5	1021	2354.169776292782	58
5	1022	2360.12735124167	58
5	1024	2363.140470416597	58
5	1025	2366.722515096091	58
5	1026	2367.693880895688	57
5	1030	2372.742441384221	57
5	1032	2374.458473240625	57
5	1034	2376.357023247149	57
5	1035	2379.432545526393	57
5	1036	2380.128840521339	56
5	1037	2385.822931171092	55
5	1038	2387.588697034285	54
5	1040	2387.929246926715	54
5	1042	2388.368622764903	55
5	1043	2388.574502479055	55
5	1044	2391.245921332072	54
5	1046	2399.324458944691	54
5	1047	2406.709220466888	54
5	1048	2408.037706131859	53
5	1049	2410.346051501216	52
5	1051	2416.76104363929	52
5	1052	2417.079589397398	52
5	1054	2420.683923370384	52
5	1055	2424.561380890133	52
5	1059	2433.483901769592	52
5	1062	2436.064121627286	53
5	1063	2438.647152402176	53
5	1064	2442.280650922675	52
5	1066	2449.110225251561	52
5	1071	2452.839439866003	53
5	1072	2454.179940129002	53
5	1073	2456.503313194449	52
5	1074	2461.364697212796	51
5	1075	2462.375641214012	50
5	1076	2467.846209183173	49
5	1077	2469.176393478867	48
5	1081	2481.437724489014	47
5	1082	2484.555465329778	46
5	1083	2485.040341288794	45
5	1085	2485.429838161415	45
5	1086	2486.797431988517	45
5	1087	2487.075498696327	44
5	1088	2489.562643053751	43
6	141	356.640784262016	17
6	144	359.769118779632	18
6	149	384.739882903076	19
6	173	429.869718926065	20
6	186	473.188795067943	21
6	200	498.382497647972	22
6	213	512.722859614605	23
6	222	518.930854739097	24
6	237	541.727820967848	25
6	242	553.120460605613	26
6	245	562.543786091326	27
6	248	570.58898486129	28
6	249	572.834070165723	29
6	252	579.243566445863	30
6	253	581.755245282388	31
6	256	585.308918901615	32
6	269	603.813478243928	33
6	283	624.81017913465	34
6	284	625.525398702644	35
6	297	654.422667903858	36
6	303	659.108040455256	37
6	327	738.517861010916	38
6	340	776.828889394623	39
6	369	832.477183263086	40
6	384	890.623061065868	41
6	387	894.500834048344	42
6	388	895.814219000124	43
6	395	908.696457220023	44
6	411	934.304109996419	45
6	414	939.646889792143	46
6	435	974.116690144494	47
6	443	989.901145715883	48
6	451	1003.111117765823	49
6	457	1017.146703979065	50
6	470	1059.270690058096	51
6	499	1115.706810812165	52
6	514	1162.250108198688	53
6	532	1204.301548245882	54
6	537	1214.398799197567	55
6	546	1240.380276853454	56
6	557	1265.585317714716	57
6	562	1270.019277781817	58
6	563	1270.708164457577	59
6	570	1288.602601435042	60
6	571	1290.606943569443	61
6	586	1301.675066214135	62
6	591	1310.983035164864	63
6	594	1315.268341770763	64
6	601	1328.922056505392	65
6	622	1370.821375850159	66
6	623	1379.466350701622	67
6	624	1382.798165443485	68
6	625	1383.086026682189	69
6	628	1396.196452980874	70
6	636	1415.37377540495	71
6	662	1465.130842866936	72
6	663	1465.887656377213	73
6	672	1480.365219800514	74
6	679	1498.058875353787	75
6	680	1506.192555145244	76
6	691	1532.499346159614	77
6	694	1537.526142635727	78
6	697	1548.605650319169	79
6	700	1558.573961933134	80
6	701	1558.791487091634	81
6	736	1634.300783270127	82
6	748	1660.066966754811	83
6	751	1662.302192414199	84
6	760	1681.204782012494	85
6	763	1684.15607471197	86
6	764	1686.775526309249	87
6	767	1700.841746226315	88
6	774	1723.613082053276	89
6	777	1731.026097082508	90
6	778	1735.476063643153	91
6	786	1754.239986542404	92
6	808	1783.65500629502	93
6	815	1804.833065182885	94
6	826	1827.748795394971	95
6	833	1836.800507037347	96
6	843	1881.221395171083	97
6	848	1885.69069063858	98
6	879	1966.06933298691	99
6	899	2036.516116901463	100
6	902	2038.192859243463	101
6	910	2063.263836048759	102
6	920	2081.449870864068	103
6	931	2103.416006085664	104
6	937	2119.838367542373	105
6	960	2157.611015544926	106
6	969	2173.322615529092	107
6	975	2181.645291304582	108
6	985	2212.257910944938	109
6	994	2252.900943247556	110
6	1010	2319.773034873332	111
6	1019	2350.96035192835	112
6	1031	2372.990400666358	113
6	1060	2434.566212148321	114
6	1069	2452.601129510318	115
6	1080	2480.027336128466	116
7	141	356.640784262016	3.983176822886
7	144	359.769118779632	0.475419221004
7	149	384.739882903076	23.050212347153
7	173	429.869718926065	6.359498320479
7	186	473.188795067943	8.878465243336
7	200	498.382497647972	8.07114002381
7	213	512.722859614605	9.469894320473
7	222	518.930854739097	11.143469330744
7	237	541.727820967848	32.26691374416
7	242	553.120460605613	37.529622951933
7	245	562.543786091326	43.731479281944
7	248	570.58898486129	41.799326967527
7	249	572.834070165723	36.212450488845
7	252	579.243566445863	39.367195214916
7	253	581.755245282388	41.743267692245
7	256	585.308918901615	8.899628794661
7	269	603.813478243928	2.166494445087
7	283	624.81017913465	4.24278579685
7	284	625.525398702644	3.612189264662
7	297	654.422667903858	8.070624508498
7	303	659.108040455256	1.728400387487
7	327	738.517861010916	5.343540321279
7	340	776.828889394623	10.971800855764
7	369	832.477183263086	1.113351458536
7	384	890.623061065868	58.660431696122
7	387	894.500834048344	43.660234003153
7	388	895.814219000124	30.052433583414
7	395	908.696457220023	7.472972860561
7	411	934.304109996419	2.119787697706
7	414	939.646889792143	1.717304261516
7	435	974.116690144494	2.774040367782
7	443	989.901145715883	6.828600090702
7	451	1003.111117765823	11.684050035707
7	457	1017.146703979065	1.541188945221
7	470	1059.270690058096	33.459548263326
7	499	1115.706810812165	5.907838797398
7	514	1162.250108198688	12.792974274662
7	532	1204.301548245882	7.7748517913
7	537	1214.398799197567	17.829344468819
7	546	1240.380276853454	30.095132358013
7	557	1265.585317714716	51.598561906766
7	562	1270.019277781817	38.38921230283
7	563	1270.708164457577	29.399984710966
7	570	1288.602601435042	25.412804791071
7	571	1290.606943569443	9.093771349914
7	586	1301.675066214135	9.578453265529
7	591	1310.983035164864	16.090397184104
7	594	1315.268341770763	19.545308017496
7	601	1328.922056505392	32.49331014917
7	622	1370.821375850159	72.880371671474
7	623	1379.466350701622	57.318325360732
7	624	1382.798165443485	59.677667393079
7	625	1383.086026682189	44.793066430808
7	628	1396.196452980874	11.277771489819
7	636	1415.37377540495	2.853811348425
7	662	1465.130842866936	35.486042567088
7	663	1465.887656377213	32.943832579012
7	672	1480.365219800514	25.539525932272
7	679	1498.058875353787	41.821673446073
7	680	1506.192555145244	42.691281846425
7	691	1532.499346159614	55.604145457278
7	694	1537.526142635727	58.873653956017
7	697	1548.605650319169	54.662805822713
7	700	1558.573961933134	45.505577435309
7	701	1558.791487091634	28.475155607027
7	736	1634.300783270127	8.024968951056
7	748	1660.066966754811	11.976437172123
7	751	1662.302192414199	13.8953585497
7	760	1681.204782012494	21.114205886254
7	763	1684.15607471197	10.417328719872
7	764	1686.775526309249	10.073577255256
7	767	1700.841746226315	23.031185907834
7	774	1723.613082053276	41.249129775382
7	777	1731.026097082508	29.325308432272
7	778	1735.476063643153	28.807879641245
7	786	1754.239986542404	5.657960422949
7	808	1783.65500629502	4.559671681611
7	815	1804.833065182885	3.569406134208
7	826	1827.748795394971	1.874658506093
7	833	1836.800507037347	6.505546755268
7	843	1881.221395171083	36.079992995397
7	848	1885.69069063858	0.115812681296
7	879	1966.06933298691	3.19472419056
7	899	2036.516116901463	11.907491234393
7	902	2038.192859243463	7.373074308604
7	910	2063.263836048759	7.978177103665
7	920	2081.449870864068	0.098273244519
7	931	2103.416006085664	6.633832825065
7	937	2119.838367542373	13.750465552674
7	960	2157.611015544926	3.466721538054
7	969	2173.322615529092	5.957953690859
7	975	2181.645291304582	4.652940208406
7	985	2212.257910944938	5.366504704419
7	994	2252.900943247556	5.388863891542
7	1010	2319.773034873332	12.848821911986
7	1019	2350.96035192835	2.773985843802
7	1031	2372.990400666358	2.833654276978
7	1060	2434.566212148321	9.454944419586
7	1069	2452.601129510318	0.974931152749
7	1080	2480.027336128466	10.55072757462
8	141	356.640784262016	34.593843060152
8	144	359.769118779632	37.498934724296
8	149	384.739882903076	59.10280946804
8	152	389.981545244896	62.533834959467
8	153	391.195453985977	57.388707975863
8	156	401.35094149015	57.485894636819
8	159	407.569350241935	61.274894268769
8	162	408.352417772065	55.694810332935
8	163	412.395383568025	57.335916202975
8	164	414.521794060332	55.228094501704
8	173	429.869718926065	68.180048370142
8	174	430.667140809448	59.886290785796
8	175	434.779288883288	48.761048451728
8	180	449.410809008715	51.726432813687
8	181	451.188349238902	43.910158653523
8	186	473.188795067943	65.273355012273
8	189	474.539651769247	56.741868050787
8	190	475.315960755818	55.658174773813
8	195	486.424953552526	62.91473294694
8	200	498.382497647972	74.106434363331
8	256	585.308918901615	139.60957223158
8	257	586.190087714463	138.64698392025
8	258	586.500877577672	125.98417259253
8	259	588.526132254097	124.21580242949
8	260	593.003816712912	118.80959617676
8	261	593.246274593243	112.15059142404
8	262	596.56907707933	110.44124576711
8	269	603.813478243928	113.50212061977
8	270	604.816123854936	114.33098349763
8	273	610.618150603024	109.32919905797
8	274	610.813019846039	107.56005455191
8	284	625.525398702644	120.52244240355
8	285	633.946971572643	125.10730812962
8	286	636.829082992571	123.09081194605
8	293	644.309491867659	129.85119937181
8	294	645.813427861504	120.58392858355
8	297	654.422667903858	128.69178268646
8	298	656.612997147027	119.22112367551
8	303	659.108040455256	115.88853964736
8	310	685.475393409647	136.9397287427
8	311	686.035576685924	125.41187023029
8	316	706.619721034414	137.6802603196
8	317	711.897739085882	127.42898992367
8	322	723.896876847381	124.10559697946
8	323	727.086322256058	125.43933845722
8	324	727.332118040329	124.83147396684
8	327	738.517861010916	132.79888531513
8	330	746.279707157969	130.031230525
8	331	746.678896272516	127.49441912554
8	332	748.852845823443	128.28545248564
8	335	758.93466877326	119.31001989447
8	340	776.828889394623	135.02258749656
8	341	777.227238697455	133.05753243581
8	342	784.31656915598	137.96452576062
8	353	803.470643803732	146.09100373596
8	354	805.798687680199	147.56792162374
8	355	813.716413176853	154.09427689016
8	356	820.179195408898	154.37458192808
8	363	827.008093129456	144.82969228915
8	364	827.914407196896	127.03766525599
8	388	895.814219000124	194.52854175711
8	391	897.489762904279	179.52235832081
8	392	899.507137808614	177.06041093453
8	395	908.696457220023	175.52213653039
8	398	910.308297970407	170.69795062264
8	411	934.304109996419	183.41824689133
8	414	939.646889792143	173.78980125328
8	415	940.903828088034	171.65680803457
8	416	948.318499721634	161.51161510367
8	417	948.912924073559	152.87849202948
8	420	954.280465883643	152.51026974435
8	423	957.37182188243	154.72846014518
8	424	958.630118876287	155.16377641152
8	429	967.878807916493	145.8888693111
8	430	968.27356822266	145.30156856274
8	435	974.116690144494	148.42456265087
8	438	975.130086366842	143.76625456229
8	443	989.901145715883	152.42009690667
8	444	990.780412464064	153.2517011048
8	451	1003.111117765823	149.74366666897
8	452	1003.412266483535	138.60434776887
8	453	1005.243989599822	136.54452139765
8	454	1007.931849880596	115.71637331833
8	457	1017.146703979065	120.19251275269
8	470	1059.270690058096	158.04720569863
8	471	1062.511289063208	153.72750427674
8	476	1082.847590865592	160.86418246917
8	477	1089.400886321685	166.32339464604
8	480	1094.594625373624	168.28075315385
8	481	1095.156709797064	166.79018370516
8	484	1095.980277600323	164.84149118075
8	485	1098.142380429681	165.95805813097
8	490	1103.207842565931	165.2782570353
8	491	1104.11420824736	152.33838828263
8	492	1104.173788746068	149.23538692028
8	499	1115.706810812165	155.54889563872
8	502	1131.420008815622	169.4783710568
8	503	1135.280751955959	163.93810217925
8	504	1141.406698447788	167.45132447781
8	505	1147.537062828678	173.09809204962
8	514	1162.250108198688	186.0416203229
8	515	1164.476686185618	181.40414056044
8	516	1167.003235195123	175.57616746501
8	517	1173.091188923145	178.81571212041
8	518	1173.459039386565	174.49118853107
8	521	1180.225954816216	164.62043978237
8	522	1180.325906807524	158.90348358656
8	523	1186.497839626096	160.87921974983
8	571	1290.606943569443	264.79580177467
8	625	1383.086026682189	348.3539174897
8	628	1396.196452980874	357.41384734493
8	631	1403.946893072718	360.78699278225
8	632	1403.98589174112	339.52580513233
8	633	1411.780773478975	346.51536973016
8	636	1415.37377540495	321.48686059494
8	641	1426.207028983534	330.41014425547
8	701	1558.791487091634	458.34960514439
8	706	1570.032182871467	467.62115824858
8	715	1581.057675065271	471.2587030505
8	716	1581.612679873922	471.36383189459
8	717	1581.89472274573	466.23268629025
8	720	1589.541519626757	461.54965519065
8	721	1590.09177861237	440.63464468834
8	722	1595.219785399024	444.81629049078
8	725	1606.815332741422	449.11714732665
8	728	1622.027532798978	461.30086008208
8	729	1623.262926492284	443.2753762475
8	736	1634.300783270127	443.89458989024
8	737	1636.358630636098	444.29844313073
8	738	1643.612230506817	447.08553405224
8	741	1646.483238281921	431.94103030232
8	778	1735.476063643153	504.88845409709
8	779	1736.674950907617	497.60057539937
8	786	1754.239986542404	497.16768125208
8	797	1770.283967736516	512.12953427468
8	798	1775.176507144038	516.71259104228
8	799	1778.003213270608	509.91907267497
8	808	1783.65500629502	514.09509372364
8	809	1786.341917722936	506.99796152254
8	812	1794.178588777974	512.73965433714
8	815	1804.833065182885	512.73645223428
8	816	1807.45312393166	514.06197178637
8	819	1810.127458719601	516.02914760525
8	820	1814.756914457117	508.37982972739
8	823	1825.680813834641	516.8905582581
8	826	1827.748795394971	515.44255223979
8	833	1836.800507037347	511.2483796902
8	834	1838.53090055895	509.05462235906
8	835	1839.635528463619	507.65779651247
8	836	1840.78445095281	505.59531074669
8	843	1881.221395171083	535.74790199376
8	844	1881.418946225205	527.58152417412
8	845	1885.397755341087	529.4938731309
8	848	1885.69069063858	528.96882460715
8	855	1900.602139244907	539.12601167801
8	860	1919.451135954941	552.03989921874
8	861	1925.392926443942	540.47424495289
8	868	1946.826282867244	547.13009343629
8	873	1953.488079302445	540.96811524592
8	876	1960.913071142522	543.83454304232
8	879	1966.06933298691	545.77855092499
8	880	1967.686543946152	538.0417436463
8	881	1980.22596309334	541.96650763751
8	884	1984.017957136904	539.22575534942
8	885	1991.47035387886	541.59873897519
8	888	1994.541933324085	534.4810071036
8	889	1994.916617368179	530.32433344511
8	890	2000.260626078898	524.05791408086
8	891	2014.08908687504	536.01957042682
8	892	2016.201545633027	530.56125589647
8	893	2017.138321410261	530.09461165497
8	894	2020.782819192817	508.49961934338
8	902	2038.192859243463	523.70067736771
8	903	2044.854665704342	519.1055075605
8	904	2045.070049035034	512.49284702646
8	905	2047.332336887782	509.32710027507
8	910	2063.263836048759	511.82800853215
8	915	2069.239774214875	508.0669187484
8	920	2081.449870864068	518.76188796039
8	931	2103.416006085664	526.77137997658
8	932	2105.157435539639	527.18591509831
8	937	2119.838367542373	541.61339087999
8	938	2120.148646139238	539.90299087769
8	939	2120.341285670509	535.41046559517
8	944	2125.350178222776	526.54333872515
8	945	2128.996981019109	519.57141497108
8	946	2138.742212686768	514.67541400812
8	949	2148.154640731688	521.87882641262
8	960	2157.611015544926	530.10207738861
8	963	2161.343586148702	516.53905232239
8	964	2165.705358234212	517.61482865152
8	969	2173.322615529092	516.38085005877
8	970	2176.76495043036	509.32437940216
8	975	2181.645291304582	484.72632758547
8	976	2185.504677430902	466.39207016895
8	979	2190.67250208823	460.35758226221
8	980	2203.31437001318	456.0054743698
8	985	2212.257910944938	464.21055779148
8	988	2229.536125168113	480.95409904866
8	991	2236.036024062152	477.53460684217
8	994	2252.900943247556	493.28058030369
8	995	2257.541314364086	496.41210399845
8	996	2259.198214731472	495.38447746196
8	999	2264.752017506113	494.5662346584
8	1000	2266.271220066518	487.5834432578
8	1001	2267.821748129395	488.72641351599
8	1002	2268.253057779691	486.98956733598
8	1003	2291.970377970077	508.32286666688
8	1004	2297.412196758532	505.49185303747
8	1007	2301.332809592192	500.06915054351
8	1010	2319.773034873332	509.845981447
8	1011	2321.391397247409	497.27007105675
8	1012	2321.395562199417	495.52142531054
8	1015	2338.697912238229	509.89873852668
8	1016	2344.522365240144	514.22740495806
8	1019	2350.96035192835	514.18383937591
8	1022	2360.12735124167	514.98594906598
8	1025	2366.722515096091	503.7205436295
8	1026	2367.693880895688	490.47274787312
8	1031	2372.990400666358	487.41552270907
8	1032	2374.458473240625	487.49844913246
8	1035	2379.432545526393	484.46911668324
8	1036	2380.128840521339	481.66250850569
8	1037	2385.822931171092	480.82182669656
8	1038	2387.588697034285	469.30596492496
8	1043	2388.574502479055	457.99284922975
8	1044	2391.245921332072	455.41913139775
8	1047	2406.709220466888	463.82986273427
8	1048	2408.037706131859	456.34618657459
8	1049	2410.346051501216	458.50020676078
8	1052	2417.079589397398	461.13783310548
8	1055	2424.561380890133	461.68677209378
8	1060	2434.566212148321	453.15106224471
8	1063	2438.647152402176	446.71488096098
8	1064	2442.280650922675	417.6720252556
8	1069	2452.601129510318	415.7808898467
8	1072	2454.179940129002	398.89428118391
8	1073	2456.503313194449	401.10767915799
8	1074	2461.364697212796	395.027789156
8	1075	2462.375641214012	393.8029054681
8	1076	2467.846209183173	394.21680742758
8	1077	2469.176393478867	387.82479585932
8	1080	2480.027336128466	389.6536462012
8	1081	2481.437724489014	389.92719270287
8	1082	2484.555465329778	390.04568051314
8	1083	2485.040341288794	388.25816802819
8	1086	2486.797431988517	383.68854591266
8	1087	2487.075498696327	380.98759670663
8	1088	2489.562643053751	380.01812343518
9	152	389.981545244896	25
9	153	391.195453985977	26
9	156	401.35094149015	27
9	159	407.569350241935	28
9	162	408.352417772065	29
9	163	412.395383568025	30
9	164	414.521794060332	31
9	174	430.667140809448	32
9	175	434.779288883288	33
9	180	449.410809008715	34
9	181	451.188349238902	35
9	189	474.539651769247	36
9	190	475.315960755818	37
9	195	486.424953552526	38
9	257	586.190087714463	39
9	258	586.500877577672	40
9	259	588.526132254097	41
9	260	593.003816712912	42
9	261	593.246274593243	43
9	262	596.56907707933	44
9	270	604.816123854936	45
9	273	610.618150603024	46
9	274	610.813019846039	47
9	285	633.946971572643	48
9	286	636.829082992571	49
9	293	644.309491867659	50
9	294	645.813427861504	51
9	298	656.612997147027	52
9	310	685.475393409647	53
9	311	686.035576685924	54
9	316	706.619721034414	55
9	317	711.897739085882	56
9	322	723.896876847381	57
9	323	727.086322256058	58
9	324	727.332118040329	59
9	330	746.279707157969	60
9	331	746.678896272516	61
9	332	748.852845823443	62
9	335	758.93466877326	63
9	341	777.227238697455	64
9	342	784.31656915598	65
9	353	803.470643803732	66
9	354	805.798687680199	67
9	355	813.716413176853	68
9	356	820.179195408898	69
9	363	827.008093129456	70
9	364	827.914407196896	71
9	391	897.489762904279	72
9	392	899.507137808614	73
9	398	910.308297970407	74
9	415	940.903828088034	75
9	416	948.318499721634	76
9	417	948.912924073559	77
9	420	954.280465883643	78
9	423	957.37182188243	79
9	424	958.630118876287	80
9	429	967.878807916493	81
9	430	968.27356822266	82
9	438	975.130086366842	83
9	444	990.780412464064	84
9	452	1003.412266483535	85
9	453	1005.243989599822	86
9	454	1007.931849880596	87
9	471	1062.511289063208	88
9	476	1082.847590865592	89
9	477	1089.400886321685	90
9	480	1094.594625373624	91
9	481	1095.156709797064	92
9	484	1095.980277600323	93
9	485	1098.142380429681	94
9	490	1103.207842565931	95
9	491	1104.11420824736	96
9	492	1104.173788746068	97
9	502	1131.420008815622	98
9	503	1135.280751955959	99
9	504	1141.406698447788	100
9	505	1147.537062828678	101
9	515	1164.476686185618	102
9	516	1167.003235195123	103
9	517	1173.091188923145	104
9	518	1173.459039386565	105
9	521	1180.225954816216	106
9	522	1180.325906807524	107
9	523	1186.497839626096	108
9	631	1403.946893072718	109
9	632	1403.98589174112	110
9	633	1411.780773478975	111
9	641	1426.207028983534	112
9	706	1570.032182871467	113
9	715	1581.057675065271	114
9	716	1581.612679873922	115
9	717	1581.89472274573	116
9	720	1589.541519626757	117
9	721	1590.09177861237	118
9	722	1595.219785399024	119
9	725	1606.815332741422	120
9	728	1622.027532798978	121
9	729	1623.262926492284	122
9	737	1636.358630636098	123
9	738	1643.612230506817	124
9	741	1646.483238281921	125
9	779	1736.674950907617	126
9	797	1770.283967736516	127
9	798	1775.176507144038	128
9	799	1778.003213270608	129
9	809	1786.341917722936	130
9	812	1794.178588777974	131
9	816	1807.45312393166	132
9	819	1810.127458719601	133
9	820	1814.756914457117	134
9	823	1825.680813834641	135
9	834	1838.53090055895	136
9	835	1839.635528463619	137
9	836	1840.78445095281	138
9	844	1881.418946225205	139
9	845	1885.397755341087	140
9	855	1900.602139244907	141
9	860	1919.451135954941	142
9	861	1925.392926443942	143
9	868	1946.826282867244	144
9	873	1953.488079302445	145
9	876	1960.913071142522	146
9	880	1967.686543946152	147
9	881	1980.22596309334	148
9	884	1984.017957136904	149
9	885	1991.47035387886	150
9	888	1994.541933324085	151
9	889	1994.916617368179	152
9	890	2000.260626078898	153
9	891	2014.08908687504	154
9	892	2016.201545633027	155
9	893	2017.138321410261	156
9	894	2020.782819192817	157
9	903	2044.854665704342	158
9	904	2045.070049035034	159
9	905	2047.332336887782	160
9	915	2069.239774214875	161
9	932	2105.157435539639	162
9	938	2120.148646139238	163
9	939	2120.341285670509	164
9	944	2125.350178222776	165
9	945	2128.996981019109	166
9	946	2138.742212686768	167
9	949	2148.154640731688	168
9	963	2161.343586148702	169
9	964	2165.705358234212	170
9	970	2176.76495043036	171
9	976	2185.504677430902	172
9	979	2190.67250208823	173
9	980	2203.31437001318	174
9	988	2229.536125168113	175
9	991	2236.036024062152	176
9	995	2257.541314364086	177
9	996	2259.198214731472	178
9	999	2264.752017506113	179
9	1000	2266.271220066518	180
9	1001	2267.821748129395	181
9	1002	2268.253057779691	182
9	1003	2291.970377970077	183
9	1004	2297.412196758532	184
9	1007	2301.332809592192	185
9	1011	2321.391397247409	186
9	1012	2321.395562199417	187
9	1015	2338.697912238229	188
9	1016	2344.522365240144	189
9	1022	2360.12735124167	190
9	1025	2366.722515096091	191
9	1026	2367.693880895688	192
9	1032	2374.458473240625	193
9	1035	2379.432545526393	194
9	1036	2380.128840521339	195
9	1037	2385.822931171092	196
9	1038	2387.588697034285	197
9	1043	2388.574502479055	198
9	1044	2391.245921332072	199
9	1047	2406.709220466888	200
9	1048	2408.037706131859	201
9	1049	2410.346051501216	202
9	1052	2417.079589397398	203
9	1055	2424.561380890133	204
9	1063	2438.647152402176	205
9	1064	2442.280650922675	206
9	1072	2454.179940129002	207
9	1073	2456.503313194449	208
9	1074	2461.364697212796	209
9	1075	2462.375641214012	210
9	1076	2467.846209183173	211
9	1077	2469.176393478867	212
9	1081	2481.437724489014	213
9	1082	2484.555465329778	214
9	1083	2485.040341288794	215
9	1086	2486.797431988517	216
9	1087	2487.075498696327	217
9	1088	2489.562643053751	218
10	152	389.981545244896	64.34447180986
10	153	391.195453985977	63.747743700548
10	156	401.35094149015	67.544195480036
10	159	407.569350241935	63.704303388604
10	162	408.352417772065	62.057961798899
10	163	412.395383568025	59.737776128895
10	164	414.521794060332	59.462326695282
10	174	430.667140809448	68.977470253525
10	175	434.779288883288	63.998438859636
10	180	449.410809008715	63.392568577155
10	181	451.188349238902	53.503973043874
10	189	474.539651769247	66.624211713577
10	190	475.315960755818	57.518177037358
10	195	486.424953552526	66.767167570521
10	257	586.190087714463	140.49074104443
10	258	586.500877577672	138.95777378346
10	259	588.526132254097	128.00942726895
10	260	593.003816712912	128.6934868883
10	261	593.246274593243	119.05205405709
10	262	596.56907707933	115.47339391013
10	270	604.816123854936	114.50476623077
10	273	610.618150603024	120.13301024572
10	274	610.813019846039	109.52406830098
10	285	633.946971572643	128.94401527355
10	286	636.829082992571	127.98941954955
10	293	644.309491867659	130.57122082114
10	294	645.813427861504	131.35513536566
10	298	656.612997147027	130.88211192963
10	310	685.475393409647	142.25589260175
10	311	686.035576685924	137.49991201897
10	316	706.619721034414	145.99601457878
10	317	711.897739085882	142.95827837107
10	322	723.896876847381	139.42812768517
10	323	727.086322256058	127.29504238813
10	324	727.332118040329	125.68513424149
10	330	746.279707157969	140.56073146219
10	331	746.678896272516	130.43041963955
10	332	748.852845823443	129.66836867646
10	335	758.93466877326	138.36727543546
10	341	777.227238697455	135.42093679939
10	342	784.31656915598	140.14686289433
10	353	803.470643803732	157.11860040837
10	354	805.798687680199	148.41904761243
10	355	813.716413176853	155.48564712039
10	356	820.179195408898	160.55705912221
10	363	827.008093129456	161.20347964864
10	364	827.914407196896	145.73600635659
10	391	897.489762904279	196.20408566127
10	392	899.507137808614	181.53973322514
10	398	910.308297970407	177.13397728077
10	415	940.903828088034	175.04673954917
10	416	948.318499721634	179.07147966817
10	417	948.912924073559	162.1060394556
10	420	954.280465883643	158.24603383956
10	423	957.37182188243	155.60162574314
10	424	958.630118876287	155.98675713904
10	429	967.878807916493	164.41246545172
10	430	968.27356822266	146.28362961727
10	438	975.130086366842	149.43795887321
10	444	990.780412464064	153.29936365485
10	452	1003.412266483535	150.04481538668
10	453	1005.243989599822	140.43607088515
10	454	1007.931849880596	139.23238167843
10	471	1062.511289063208	161.28780470375
10	476	1082.847590865592	174.06380607913
10	477	1089.400886321685	167.41747792526
10	480	1094.594625373624	171.51713369798
10	481	1095.156709797064	168.8428375773
10	484	1095.980277600323	167.61375150842
10	485	1098.142380429681	167.0035940101
10	490	1103.207842565931	171.02352026722
10	491	1104.11420824736	166.18462271673
10	492	1104.173788746068	152.39796878134
10	502	1131.420008815622	171.26209364217
10	503	1135.280751955959	173.33911419713
10	504	1141.406698447788	170.06404867108
10	505	1147.537062828678	173.5816888587
10	515	1164.476686185618	188.26819830983
10	516	1167.003235195123	183.93068956994
10	517	1173.091188923145	181.66412119303
10	518	1173.459039386565	179.18356258383
10	521	1180.225954816216	181.25810396072
10	522	1180.325906807524	164.72039177368
10	523	1186.497839626096	165.07541640513
10	631	1403.946893072718	365.16428743677
10	632	1403.98589174112	360.82599145065
10	633	1411.780773478975	347.32068687018
10	641	1426.207028983534	332.32011417352
10	706	1570.032182871467	469.59030092422
10	715	1581.057675065271	478.64665044238
10	716	1581.612679873922	471.81370785915
10	717	1581.89472274573	471.6458747664
10	720	1589.541519626757	473.87948317128
10	721	1590.09177861237	462.09991417626
10	722	1595.219785399024	445.762651475
10	725	1606.815332741422	456.41183783318
10	728	1622.027532798978	464.32934738421
10	729	1623.262926492284	462.53625377538
10	737	1636.358630636098	445.95243725621
10	738	1643.612230506817	451.55204300145
10	741	1646.483238281921	449.95654182734
10	779	1736.674950907617	506.08734136155
10	797	1770.283967736516	513.21166244619
10	798	1775.176507144038	517.02207368221
10	799	1778.003213270608	519.53929716885
10	809	1786.341917722936	516.78200515156
10	812	1794.178588777974	514.83463257758
10	816	1807.45312393166	515.35651098305
10	819	1810.127458719601	516.73630657431
10	820	1814.756914457117	520.65860334277
10	823	1825.680813834641	519.30372910491
10	834	1838.53090055895	512.97877321181
10	835	1839.635528463619	510.15925026373
10	836	1840.78445095281	508.80671900166
10	844	1881.418946225205	535.94545304789
10	845	1885.397755341087	531.56033329001
10	855	1900.602139244907	543.88027321348
10	860	1919.451135954941	557.97500838804
10	861	1925.392926443942	557.98168970774
10	868	1946.826282867244	561.90760137619
10	873	1953.488079302445	553.79188987149
10	876	1960.913071142522	548.393107086
10	880	1967.686543946152	547.39576188423
10	881	1980.22596309334	550.58116279349
10	884	1984.017957136904	545.75850168108
10	885	1991.47035387886	546.67815209138
10	888	1994.541933324085	544.67031842041
10	889	1994.916617368179	534.85569114769
10	890	2000.260626078898	535.66834215583
10	891	2014.08908687504	537.886374877
10	892	2016.201545633027	538.13202918481
10	893	2017.138321410261	531.4980316737
10	894	2020.782819192817	533.73910943753
10	903	2044.854665704342	530.36248382859
10	904	2045.070049035034	519.3208908912
10	905	2047.332336887782	514.75513487921
10	915	2069.239774214875	517.80394669827
10	932	2105.157435539639	528.51280943055
10	938	2120.148646139238	541.92366947686
10	939	2120.341285670509	540.09563040897
10	944	2125.350178222776	540.41935814744
10	945	2128.996981019109	530.19014152148
10	946	2138.742212686768	529.31664663874
10	949	2148.154640731688	524.08784205304
10	963	2161.343586148702	533.83464799239
10	964	2165.705358234212	520.9008244079
10	970	2176.76495043036	519.82318496004
10	976	2185.504677430902	488.58571371179
10	979	2190.67250208823	471.55989482628
10	980	2203.31437001318	472.99945018716
10	988	2229.536125168113	481.48877201466
10	991	2236.036024062152	487.4539979427
10	995	2257.541314364086	497.92095142022
10	996	2259.198214731472	498.06900436584
10	999	2264.752017506113	500.9382802366
10	1000	2266.271220066518	496.08543721881
10	1001	2267.821748129395	489.13397132068
10	1002	2268.253057779691	489.15772316628
10	1003	2291.970377970077	510.70688752637
10	1004	2297.412196758532	513.76468545533
10	1007	2301.332809592192	509.41246587113
10	1011	2321.391397247409	511.46434382108
10	1012	2321.395562199417	497.27423600876
10	1015	2338.697912238229	512.82377534935
10	1016	2344.522365240144	515.7231915286
10	1022	2360.12735124167	523.35083868923
10	1025	2366.722515096091	521.5811129204
10	1026	2367.693880895688	504.6919094291
10	1032	2374.458473240625	488.88359528334
10	1035	2379.432545526393	492.47252141823
10	1036	2380.128840521339	485.16541167819
10	1037	2385.822931171092	487.35659915545
10	1038	2387.588697034285	482.58759255975
10	1043	2388.574502479055	470.29177036973
10	1044	2391.245921332072	460.66426808277
10	1047	2406.709220466888	470.88243053256
10	1048	2408.037706131859	465.15834839924
10	1049	2410.346051501216	458.65453194395
10	1052	2417.079589397398	465.23374465696
10	1055	2424.561380890133	468.61962459822
10	1063	2438.647152402176	457.23200249857
10	1064	2442.280650922675	450.34837948148
10	1072	2454.179940129002	417.35970046538
10	1073	2456.503313194449	401.21765424936
10	1074	2461.364697212796	405.96906317634
10	1075	2462.375641214012	396.03873315722
10	1076	2467.846209183173	399.27347343726
10	1077	2469.176393478867	395.54699172328
10	1081	2481.437724489014	391.06403456175
10	1082	2484.555465329778	393.04493354363
10	1083	2485.040341288794	390.53055647216
10	1086	2486.797431988517	390.01525872792
10	1087	2487.075498696327	383.96661262047
10	1088	2489.562643053751	383.47474106405
11	1095	2500	0.0872
12	1095	2500	0.0464

