file 65433 1678560321                                           
version 2
run experiments_hard_game_mode1-1608-20230311-19:45:21-13115
attr configname experiments_hard_game_mode1
attr datetime 20230311-19:45:21
attr experiment experiments_hard_game_mode1
attr inifile omnetpp.ini
attr iterationvars "$0=10, $1=4, $2=100"
attr iterationvarsf 10,4,100-
attr measurement "$0=10, $1=4, $2=100"
attr network Network
attr processid 13115
attr repetition 18
attr replication #18
attr resultdir results
attr runnumber 1608
attr seedset 18
param *.boss.arrival_mean 20
param *.boss.service_mean 10
param *.minion.arrival_mean 10
param *.minion.service_mean 4
param *.player.recover_rate_x 100
param **.minion.arrival_distribution 0
param **.minion.service_distribution 0
param **.boss.arrival_distribution 0
param **.boss.service_distribution 0

vector 0 Network.player boss_jobs_number_stat:vector ETV
attr source signal_boss_jobs_number
vector 1 Network.player boss_jobs_queue_number_stat:vector ETV
attr source signal_boss_jobs_queue_number
vector 2 Network.player minion_recovered_stat:vector ETV
attr source signal_minion_recovered
vector 3 Network.player boss_waiting_time_stat:vector ETV
attr source signal_boss_waiting_time
vector 4 Network.player minion_jobs_number_stat:vector ETV
attr source signal_minion_jobs_number
vector 5 Network.player minion_jobs_queue_number_stat:vector ETV
attr source signal_minion_jobs_queue_number
vector 6 Network.player boss_defeated_stat:vector ETV
attr source signal_boss_defeated
vector 7 Network.player boss_response_time_stat:vector ETV
attr source signal_boss_response_time
vector 8 Network.player minion_waiting_time_stat:vector ETV
attr source signal_minion_waiting_time
vector 9 Network.player minion_defeated_stat:vector ETV
attr source signal_minion_defeated
vector 10 Network.player minion_response_time_stat:vector ETV
attr source signal_minion_response_time
vector 11 Network.player minion_throughput:vector ETV
attr source signal_minion_throughput
vector 12 Network.player boss_throughput:vector ETV
attr source signal_boss_throughput
0	2019 2643 139 1137 352.65760743913 2494.636027121347 103 1 7 249 895
1	4662 5209 139 1137 352.65760743913 2494.636027121347 203 0 6 289 995
2	9871 950 139 1052 352.65760743913 2247.512079356014 36 5 40 810 22110
3	10821 3299 139 1133 352.65760743913 2490.238705866935 101 0 86.876768836975 1640.8009857231 76476.141563331
4	14120 5998 141 1130 355.05946736505 2485.429838161415 229 1 53 4377 156135
5	20118 12196 141 1131 355.05946736505 2487.407046783045 465 0 52 8317 295311
6	32314 2683 142 1128 357.343697818995 2481.88922922987 100 17 116 6650 525550
7	34997 3914 142 1128 357.343697818995 2481.88922922987 100 0.115615581787 101.88570405992 2709.6158829372 134888.75421049
8	38911 10435 142 1130 357.343697818995 2485.429838161415 271 0 445.24722111388 38577.735251248 11141451.173864
9	49346 6480 146 1131 361.406144094749 2487.407046783045 236 26 261 33866 5955106
10	55826 9566 146 1131 361.406144094749 2487.407046783045 236 0.22557731781 450.69650078785 33876.841171006 9808907.5632287
11	65392 20 1138 1138 2500 2500 1 0.1044 0.1044 0.1044 0.01089936
12	65412 20 1138 1138 2500 2500 1 0.0464 0.0464 0.0464 0.00215296

