version 2
run experiments_hard_game_mode1-992-20230311-19:42:52-9812
attr configname experiments_hard_game_mode1
attr datetime 20230311-19:42:52
attr experiment experiments_hard_game_mode1
attr inifile omnetpp.ini
attr iterationvars "$0=9, $1=4, $2=100"
attr iterationvarsf 9,4,100-
attr measurement "$0=9, $1=4, $2=100"
attr network Network
attr processid 9812
attr repetition 2
attr replication #2
attr resultdir results
attr runnumber 992
attr seedset 2
param *.boss.arrival_mean 20
param *.boss.service_mean 9
param *.minion.arrival_mean 10
param *.minion.service_mean 4
param *.player.recover_rate_x 100
param **.minion.arrival_distribution 0
param **.minion.service_distribution 0
param **.boss.arrival_distribution 0
param **.boss.service_distribution 0

vector 0 Network.player minion_defeated_stat:vector ETV
attr source signal_minion_defeated
vector 1 Network.player minion_jobs_queue_number_stat:vector ETV
attr source signal_minion_jobs_queue_number
vector 2 Network.player minion_response_time_stat:vector ETV
attr source signal_minion_response_time
vector 3 Network.player minion_waiting_time_stat:vector ETV
attr source signal_minion_waiting_time
vector 4 Network.player minion_jobs_number_stat:vector ETV
attr source signal_minion_jobs_number
vector 5 Network.player boss_jobs_number_stat:vector ETV
attr source signal_boss_jobs_number
vector 6 Network.player boss_jobs_queue_number_stat:vector ETV
attr source signal_boss_jobs_queue_number
vector 7 Network.player minion_recovered_stat:vector ETV
attr source signal_minion_recovered
vector 8 Network.player boss_waiting_time_stat:vector ETV
attr source signal_boss_waiting_time
vector 9 Network.player boss_defeated_stat:vector ETV
attr source signal_boss_defeated
vector 10 Network.player boss_response_time_stat:vector ETV
attr source signal_boss_response_time
vector 11 Network.player minion_throughput:vector ETV
attr source signal_minion_throughput
vector 12 Network.player boss_throughput:vector ETV
attr source signal_boss_throughput
0	157	350.647204582635	23
0	158	357.855593856805	24
0	164	375.301378188347	25
0	165	375.459454455681	26
0	174	389.215559683787	27
0	179	394.019567128389	28
0	182	398.856157798466	29
0	183	402.257793578742	30
0	184	402.839863139939	31
0	211	461.586448861177	32
0	214	465.983686611211	33
0	215	467.823584447166	34
0	225	480.950396297024	35
0	226	484.171681382106	36
0	227	489.020069814905	37
0	228	500.500481323836	38
0	229	502.454632506535	39
0	238	524.467882446766	40
0	251	552.693617113376	41
0	257	555.57300179136	42
0	258	561.365993924312	43
0	259	572.654751291111	44
0	260	574.536105827221	45
0	261	581.049361033048	46
0	262	592.7724310853	47
0	292	671.837063879263	48
0	300	681.621782271477	49
0	301	683.489592086779	50
0	304	684.233157834363	51
0	305	684.563711452894	52
0	308	687.508637665395	53
0	311	691.581957680876	54
0	312	691.862229601843	55
0	332	725.644024344647	56
0	333	726.584214992657	57
0	336	734.472506505352	58
0	377	825.322924349793	59
0	388	840.599979929012	60
0	389	841.714159309788	61
0	390	845.757087107097	62
0	394	855.11077784645	63
0	395	861.436462954475	64
0	396	870.906121619384	65
0	397	871.097424281196	66
0	398	877.336636306023	67
0	418	904.496863491495	68
0	419	904.723366504054	69
0	422	906.825466769444	70
0	423	908.52957882765	71
0	424	908.839312197248	72
0	427	911.330325924187	73
0	452	953.124871129629	74
0	453	956.896824424076	75
0	464	975.576922838492	76
0	470	983.073769634331	77
0	471	985.361422208114	78
0	474	994.528912428711	79
0	479	1002.702378348059	80
0	487	1021.403497485114	81
0	490	1036.4013969768	82
0	491	1036.81504889007	83
0	492	1037.644910497975	84
0	509	1082.138553526144	85
0	510	1084.134017399421	86
0	511	1088.997243279864	87
0	512	1090.363484835675	88
0	517	1100.735238604389	89
0	518	1102.258830996486	90
0	519	1102.419848015088	91
0	522	1111.714361254015	92
0	609	1275.466335581764	93
0	612	1279.5313764717	94
0	613	1280.277244901441	95
0	614	1282.754584533399	96
0	615	1285.027492679881	97
0	616	1286.339997182287	98
0	617	1288.930599374014	99
0	618	1289.148675127141	100
0	630	1311.517542247979	101
0	631	1311.674880154667	102
0	632	1316.154808000469	103
0	633	1316.89786871726	104
0	634	1320.585131273866	105
0	635	1321.680816899223	106
0	636	1328.01098615505	107
0	639	1328.792420536904	108
0	645	1337.867889943138	109
0	646	1338.577732541711	110
0	647	1339.127230564261	111
0	648	1341.658791859428	112
0	649	1342.256221203245	113
0	650	1342.546871987385	114
0	651	1344.287994508052	115
0	654	1348.325708737339	116
0	659	1361.622114597386	117
0	660	1364.272574505385	118
0	674	1378.786490557825	119
0	675	1385.247438097681	120
0	676	1385.389043938046	121
0	679	1386.630251208336	122
0	680	1392.672447064216	123
0	683	1402.281017419261	124
0	684	1404.871380052133	125
0	685	1404.963909891655	126
0	686	1405.259442117244	127
0	696	1420.675163864555	128
0	699	1421.565905117091	129
0	700	1428.089410141112	130
0	701	1429.768509570395	131
0	702	1429.786806738663	132
0	703	1432.135562664062	133
0	704	1433.117515994382	134
0	705	1435.875249216924	135
0	706	1438.994698497327	136
0	711	1444.225593602347	137
0	715	1449.98781792141	138
0	716	1451.529028565557	139
0	717	1452.493525332162	140
0	722	1459.728558190472	141
0	723	1462.912545059291	142
0	724	1463.889195290135	143
0	725	1464.03905633478	144
0	726	1469.513557409128	145
0	727	1470.571019529652	146
0	728	1474.960353582231	147
0	734	1485.62231267603	148
0	735	1488.541117858095	149
0	739	1491.533994492441	150
0	740	1494.465822943555	151
0	744	1503.435439322793	152
0	747	1506.162975597199	153
0	748	1506.19568918102	154
0	751	1508.089478788714	155
0	752	1510.338282981243	156
0	753	1511.982587712573	157
0	756	1517.291156225897	158
0	759	1520.264213528657	159
0	760	1522.093655703872	160
0	768	1530.747544646082	161
0	769	1533.997218343991	162
0	770	1534.576987315643	163
0	771	1536.018747661539	164
0	772	1536.653737648465	165
0	773	1537.655322743692	166
0	797	1601.051314817611	167
0	798	1602.070071564682	168
0	799	1605.324783864087	169
0	800	1605.922354654956	170
0	805	1619.102314209569	171
0	806	1621.993517480941	172
0	807	1625.810863718355	173
0	808	1630.853501834245	174
0	809	1633.562037634301	175
0	817	1658.289975961081	176
0	818	1659.099188517852	177
0	821	1665.302438366715	178
0	822	1665.765476015103	179
0	831	1686.082757422963	180
0	832	1689.185183208922	181
0	833	1689.34692702355	182
0	836	1690.712942493892	183
0	837	1692.034953498149	184
0	840	1699.316390039445	185
0	843	1707.086490186198	186
0	895	1826.212613424696	187
0	896	1826.859110547799	188
0	899	1830.858796608397	189
0	907	1839.026795806645	190
0	908	1839.148113655819	191
0	909	1841.92156581472	192
0	910	1849.165278326468	193
0	911	1849.514240742595	194
0	912	1851.264896778031	195
0	913	1857.532676069211	196
0	914	1861.122167345221	197
0	917	1866.798033095558	198
0	918	1866.827282806523	199
0	919	1867.502384903042	200
0	920	1868.719111855002	201
0	927	1884.667124198884	202
0	941	1955.175553124902	203
0	942	1966.387467635275	204
0	945	1976.4267851005	205
0	962	2042.603482649437	206
0	965	2045.518250435282	207
0	966	2061.276470012736	208
0	967	2061.849825824437	209
0	972	2071.072167272662	210
0	973	2071.549748633956	211
0	974	2071.835492992524	212
0	975	2079.207059413135	213
0	981	2088.690152057998	214
0	987	2099.295674087724	215
0	993	2120.530102546254	216
0	999	2146.795919469388	217
0	1040	2223.631819336369	218
0	1041	2227.062260876009	219
0	1042	2232.243773006099	220
0	1043	2233.750424265197	221
0	1044	2240.364195691819	222
0	1053	2277.655232549799	223
0	1054	2280.372925430503	224
0	1065	2304.817093712246	225
0	1066	2307.270151812246	226
0	1087	2332.727459025921	227
0	1130	2404.856288293624	228
1	157	350.647204582635	11
1	158	357.855593856805	10
1	160	361.253872248248	10
1	164	375.301378188347	10
1	165	375.459454455681	9
1	167	382.033569988247	9
1	169	386.094833956454	10
1	171	386.647961139654	11
1	173	389.11721552314	12
1	174	389.215559683787	12
1	176	392.226410515015	12
1	178	392.907147651836	13
1	179	394.019567128389	13
1	181	396.36227194133	13
1	182	398.856157798466	13
1	183	402.257793578742	12
1	184	402.839863139939	11
1	196	437.031828547986	11
1	199	448.318011895377	12
1	201	449.686015902366	13
1	203	453.261598126964	14
1	205	457.149607354789	15
1	207	459.167132141822	16
1	209	459.902982320572	17
1	211	461.586448861177	17
1	213	465.705246785592	17
1	214	465.983686611211	17
1	215	467.823584447166	16
1	217	468.251201226019	16
1	221	475.822507308272	17
1	224	480.825237471622	18
1	225	480.950396297024	18
1	226	484.171681382106	17
1	227	489.020069814905	16
1	228	500.500481323836	15
1	229	502.454632506535	14
1	236	509.866602764496	14
1	238	524.467882446766	14
1	244	532.51419919372	14
1	247	539.722009720888	15
1	249	543.960260144784	16
1	251	552.693617113376	16
1	256	555.155696511461	16
1	257	555.57300179136	16
1	258	561.365993924312	15
1	259	572.654751291111	14
1	260	574.536105827221	13
1	261	581.049361033048	12
1	262	592.7724310853	11
1	266	596.98708789577	11
1	268	598.284845066716	12
1	270	598.576374058973	13
1	274	602.620604624623	14
1	276	606.95438653281	15
1	278	610.162704550092	16
1	280	614.958540455523	17
1	282	623.406264846895	18
1	288	637.852286977402	19
1	290	648.643934406955	20
1	292	671.837063879263	20
1	294	676.580654484565	20
1	298	679.89463627924	21
1	300	681.621782271477	21
1	301	683.489592086779	20
1	303	683.746700318794	20
1	304	684.233157834363	20
1	305	684.563711452894	19
1	307	685.331815749873	19
1	308	687.508637665395	19
1	310	690.996536964801	19
1	311	691.581957680876	19
1	312	691.862229601843	18
1	314	692.204779726722	18
1	318	695.353883843244	19
1	320	706.298540363435	20
1	329	722.445853962356	21
1	331	723.104634167044	22
1	332	725.644024344647	22
1	333	726.584214992657	21
1	335	733.272343944783	21
1	336	734.472506505352	21
1	340	739.797730469372	21
1	342	740.509362681322	22
1	349	750.972521332418	23
1	351	760.22695815373	24
1	353	761.712095157267	25
1	356	777.587614563966	26
1	361	789.201234791078	27
1	363	789.526551019467	28
1	365	789.861488633681	29
1	370	795.939403761245	30
1	376	819.542236411746	31
1	377	825.322924349793	31
1	384	835.156933545261	31
1	387	837.724076214384	32
1	388	840.599979929012	32
1	389	841.714159309788	31
1	390	845.757087107097	30
1	394	855.11077784645	29
1	395	861.436462954475	28
1	396	870.906121619384	27
1	397	871.097424281196	26
1	398	877.336636306023	25
1	402	882.462444236032	25
1	404	890.900647318088	26
1	412	899.670495225509	27
1	415	902.698546084606	28
1	417	903.095442213722	29
1	418	904.496863491495	29
1	419	904.723366504054	28
1	421	905.089861502072	28
1	422	906.825466769444	28
1	423	908.52957882765	27
1	424	908.839312197248	26
1	426	911.003404036779	26
1	427	911.330325924187	26
1	431	915.690760576577	26
1	433	917.775434736723	27
1	437	924.213556890148	28
1	440	934.076817536199	29
1	446	936.960064299383	30
1	449	939.38482909942	31
1	452	953.124871129629	31
1	453	956.896824424076	30
1	458	957.912134853835	30
1	462	959.548743667564	31
1	464	975.576922838492	31
1	468	978.23760579542	31
1	470	983.073769634331	31
1	471	985.361422208114	30
1	473	985.919423558647	30
1	474	994.528912428711	30
1	476	998.744812864239	30
1	478	999.8027166863	31
1	479	1002.702378348059	31
1	483	1005.637083893272	31
1	486	1018.773414308077	32
1	487	1021.403497485114	32
1	489	1026.72492787685	32
1	490	1036.4013969768	32
1	491	1036.81504889007	31
1	492	1037.644910497975	30
1	502	1054.801043001804	30
1	504	1064.652973912992	31
1	509	1082.138553526144	31
1	510	1084.134017399421	30
1	511	1088.997243279864	29
1	512	1090.363484835675	28
1	514	1093.355992575201	28
1	516	1100.282182876396	29
1	517	1100.735238604389	29
1	518	1102.258830996486	28
1	519	1102.419848015088	27
1	521	1104.978036121906	27
1	522	1111.714361254015	27
1	524	1118.356984565768	27
1	528	1127.414208507312	28
1	533	1133.514281915121	29
1	537	1144.360864369609	30
1	542	1153.951718723298	31
1	548	1161.097070572118	32
1	555	1172.04226562065	33
1	558	1178.407903726891	34
1	566	1184.211304218178	35
1	568	1184.300423029734	36
1	570	1184.435390764814	37
1	572	1185.138503952723	38
1	574	1185.401070630046	39
1	576	1191.107114039485	40
1	578	1194.270322303708	41
1	580	1199.917749928224	42
1	584	1215.207056702361	43
1	586	1217.263576943163	44
1	591	1245.863388766485	45
1	593	1253.407346792082	46
1	595	1254.654480348304	47
1	603	1263.794569950446	48
1	609	1275.466335581764	48
1	611	1277.485357624897	48
1	612	1279.5313764717	48
1	613	1280.277244901441	47
1	614	1282.754584533399	46
1	615	1285.027492679881	45
1	616	1286.339997182287	44
1	617	1288.930599374014	43
1	618	1289.148675127141	42
1	622	1290.248085656458	42
1	630	1311.517542247979	42
1	631	1311.674880154667	41
1	632	1316.154808000469	40
1	633	1316.89786871726	39
1	634	1320.585131273866	38
1	635	1321.680816899223	37
1	636	1328.01098615505	36
1	638	1328.607576263913	36
1	639	1328.792420536904	36
1	641	1332.266115075993	36
1	645	1337.867889943138	36
1	646	1338.577732541711	35
1	647	1339.127230564261	34
1	648	1341.658791859428	33
1	649	1342.256221203245	32
1	650	1342.546871987385	31
1	651	1344.287994508052	30
1	653	1345.999171837684	30
1	654	1348.325708737339	30
1	656	1351.180955470854	30
1	658	1358.024277942655	31
1	659	1361.622114597386	31
1	660	1364.272574505385	30
1	668	1375.328048318735	30
1	672	1376.578224452794	31
1	674	1378.786490557825	31
1	675	1385.247438097681	30
1	676	1385.389043938046	29
1	678	1385.424457924955	29
1	679	1386.630251208336	29
1	680	1392.672447064216	28
1	682	1400.686626234377	28
1	683	1402.281017419261	28
1	684	1404.871380052133	27
1	685	1404.963909891655	26
1	686	1405.259442117244	25
1	691	1412.945932439393	25
1	693	1413.277010384735	26
1	695	1420.422398902746	27
1	696	1420.675163864555	27
1	698	1421.552048863122	27
1	699	1421.565905117091	27
1	700	1428.089410141112	26
1	701	1429.768509570395	25
1	702	1429.786806738663	24
1	703	1432.135562664062	23
1	704	1433.117515994382	22
1	705	1435.875249216924	21
1	706	1438.994698497327	20
1	708	1439.27524498052	20
1	710	1441.998615398113	21
1	711	1444.225593602347	21
1	715	1449.98781792141	20
1	716	1451.529028565557	19
1	717	1452.493525332162	18
1	719	1454.752516381548	18
1	721	1458.614725343514	19
1	722	1459.728558190472	19
1	723	1462.912545059291	18
1	724	1463.889195290135	17
1	725	1464.03905633478	16
1	726	1469.513557409128	15
1	727	1470.571019529652	14
1	728	1474.960353582231	13
1	730	1478.733427612972	13
1	734	1485.62231267603	13
1	735	1488.541117858095	12
1	739	1491.533994492441	11
1	740	1494.465822943555	10
1	744	1503.435439322793	9
1	746	1505.301943959205	9
1	747	1506.162975597199	9
1	748	1506.19568918102	8
1	750	1507.576092677335	8
1	751	1508.089478788714	8
1	752	1510.338282981243	7
1	753	1511.982587712573	6
1	755	1513.948258337622	6
1	756	1517.291156225897	6
1	758	1517.494098948675	6
1	759	1520.264213528657	6
1	760	1522.093655703872	5
1	762	1523.807210772095	5
1	767	1530.266107318484	6
1	768	1530.747544646082	6
1	769	1533.997218343991	5
1	770	1534.576987315643	4
1	771	1536.018747661539	3
1	772	1536.653737648465	2
1	773	1537.655322743692	1
1	777	1547.121827412251	1
1	781	1553.926200376688	2
1	783	1556.691645862258	3
1	786	1566.048321592974	4
1	788	1575.850548390337	5
1	793	1592.939572376582	6
1	795	1600.440615470523	7
1	797	1601.051314817611	7
1	798	1602.070071564682	6
1	799	1605.324783864087	5
1	800	1605.922354654956	4
1	802	1607.942529139216	4
1	804	1617.209974063659	5
1	805	1619.102314209569	5
1	806	1621.993517480941	4
1	807	1625.810863718355	3
1	808	1630.853501834245	2
1	809	1633.562037634301	1
1	813	1645.212310001142	1
1	815	1648.295608035408	2
1	817	1658.289975961081	2
1	818	1659.099188517852	1
1	820	1661.146836982142	1
1	821	1665.302438366715	1
1	822	1665.765476015103	0
1	824	1666.811507272016	0
1	826	1668.780869812961	1
1	828	1675.853363345013	2
1	830	1685.52198025974	3
1	831	1686.082757422963	3
1	832	1689.185183208922	2
1	833	1689.34692702355	1
1	835	1690.619515589583	1
1	836	1690.712942493892	1
1	837	1692.034953498149	0
1	839	1698.881351353874	0
1	840	1699.316390039445	0
1	842	1702.270853690546	0
1	843	1707.086490186198	0
1	847	1716.684891854079	0
1	855	1742.107707459114	1
1	858	1758.540050622779	2
1	860	1763.847708067724	3
1	862	1767.394836815643	4
1	865	1769.754296063747	5
1	867	1771.243760096415	6
1	875	1797.197225012532	7
1	886	1807.286711899146	8
1	889	1812.682840100208	9
1	891	1812.766270975972	10
1	893	1814.271161976253	11
1	895	1826.212613424696	11
1	896	1826.859110547799	10
1	898	1829.810402453992	10
1	899	1830.858796608397	10
1	901	1830.86100559469	10
1	905	1837.834111699134	11
1	907	1839.026795806645	11
1	908	1839.148113655819	10
1	909	1841.92156581472	9
1	910	1849.165278326468	8
1	911	1849.514240742595	7
1	912	1851.264896778031	6
1	913	1857.532676069211	5
1	914	1861.122167345221	4
1	916	1863.053869228857	4
1	917	1866.798033095558	4
1	918	1866.827282806523	3
1	919	1867.502384903042	2
1	920	1868.719111855002	1
1	927	1884.667124198884	0
1	933	1921.548888446662	0
1	935	1925.084728108583	1
1	941	1955.175553124902	1
1	942	1966.387467635275	0
1	944	1966.461828507534	0
1	945	1976.4267851005	0
1	952	1996.442726234962	0
1	954	1999.018505728651	1
1	956	2003.133855187522	2
1	958	2022.102208161922	3
1	960	2026.984715526444	4
1	962	2042.603482649437	4
1	964	2043.741429300996	4
1	965	2045.518250435282	4
1	966	2061.276470012736	3
1	967	2061.849825824437	2
1	969	2068.035895002599	2
1	971	2070.729528780533	3
1	972	2071.072167272662	3
1	973	2071.549748633956	2
1	974	2071.835492992524	1
1	975	2079.207059413135	0
1	977	2082.060564272508	0
1	981	2088.690152057998	0
1	985	2092.756536328325	0
1	987	2099.295674087724	0
1	991	2107.788762825608	0
1	993	2120.530102546254	0
1	998	2145.586000304457	0
1	999	2146.795919469388	0
1	1001	2157.470008204503	0
1	1013	2170.621603874021	1
1	1018	2197.669224470044	2
1	1022	2198.674373501187	3
1	1024	2203.554715304965	4
1	1027	2210.498316660967	5
1	1029	2212.274921811409	6
1	1032	2218.480584148708	7
1	1035	2221.48183917862	8
1	1037	2221.489280892939	9
1	1039	2223.125972974633	10
1	1040	2223.631819336369	10
1	1041	2227.062260876009	9
1	1042	2232.243773006099	8
1	1043	2233.750424265197	7
1	1044	2240.364195691819	6
1	1050	2268.169216379668	6
1	1053	2277.655232549799	6
1	1054	2280.372925430503	5
1	1056	2280.874800280286	5
1	1064	2301.881038404028	6
1	1065	2304.817093712246	6
1	1066	2307.270151812246	5
1	1074	2309.910991732672	5
1	1077	2312.359914615875	6
1	1080	2318.170158082466	7
1	1084	2327.468414806708	8
1	1087	2332.727459025921	8
1	1097	2343.996904793849	8
1	1103	2350.382606851478	9
1	1108	2358.611579696822	10
1	1112	2363.060537216027	11
1	1115	2373.50460996526	12
1	1117	2381.039792987798	13
1	1123	2386.087771682966	14
1	1127	2394.407798511697	15
1	1129	2404.565149470387	16
1	1130	2404.856288293624	16
1	1140	2422.495692925158	16
1	1142	2423.823415495132	17
1	1144	2424.472143381992	18
1	1146	2430.129653405028	19
1	1150	2439.453006626528	20
1	1156	2446.289358719912	21
1	1162	2453.293347744151	22
1	1166	2458.70246381101	23
1	1168	2460.449554175474	24
1	1171	2464.794619718189	25
1	1173	2466.366369433583	26
1	1178	2477.751206080727	27
1	1184	2487.907921574443	28
1	1186	2491.854625862879	29
2	157	350.647204582635	104.58770839248
2	158	357.855593856805	111.30663552575
2	164	375.301378188347	109.78035415744
2	165	375.459454455681	97.477467992844
2	174	389.215559683787	94.181462448986
2	179	394.019567128389	89.317991992966
2	182	398.856157798466	93.939472304078
2	183	402.257793578742	91.788250289561
2	184	402.839863139939	88.0191353912
2	211	461.586448861177	136.77364135882
2	214	465.983686611211	104.72981436296
2	215	467.823584447166	98.865181941177
2	225	480.950396297024	94.85556234057
2	226	484.171681382106	97.523720242452
2	227	489.020069814905	99.902854291765
2	228	500.500481323836	108.27407080882
2	229	502.454632506535	109.5474848547
2	238	524.467882446766	87.43605389878
2	251	552.693617113376	103.00760121101
2	257	555.57300179136	98.423394436571
2	258	561.365993924312	102.19886178249
2	259	572.654751291111	112.75176897054
2	260	574.536105827221	108.83085904163
2	261	581.049361033048	112.79815980703
2	262	592.7724310853	122.97018283636
2	292	671.837063879263	168.54238010315
2	300	681.621782271477	171.75517950698
2	301	683.489592086779	156.81680250645
2	304	684.233157834363	151.71895864064
2	305	684.563711452894	144.84170173201
2	308	687.508637665395	143.54837752061
2	311	691.581957680876	138.70217785156
2	312	691.862229601843	136.70653309038
2	332	725.644024344647	127.06765028567
2	333	726.584214992657	123.96361036803
2	336	734.472506505352	127.51811997254
2	377	825.322924349793	201.9166595029
2	388	840.599979929012	191.95604552206
2	389	841.714159309788	165.13350482522
2	390	845.757087107097	167.99961983462
2	394	855.11077784645	171.36407752766
2	395	861.436462954475	176.1046472046
2	396	870.906121619384	179.90958465458
2	397	871.097424281196	178.89264455447
2	398	877.336636306023	184.01025517072
2	418	904.496863491495	198.19832312806
2	419	904.723366504054	186.32141070341
2	422	906.825466769444	185.60472082108
2	423	908.52957882765	186.08372486529
2	424	908.839312197248	185.7346780302
2	427	911.330325924187	178.0579819794
2	452	953.124871129629	213.32714066026
2	453	956.896824424076	216.38746174275
2	464	975.576922838492	213.86482768122
2	470	983.073769634331	193.87253484325
2	471	985.361422208114	195.83487118865
2	474	994.528912428711	204.66742379503
2	479	1002.702378348059	206.76297458681
2	487	1021.403497485114	201.86126107337
2	490	1036.4013969768	206.31840692051
2	491	1036.81504889007	202.69875539366
2	492	1037.644910497975	202.48797695271
2	509	1082.138553526144	199.67610929011
2	510	1084.134017399421	193.23337008133
2	511	1088.997243279864	189.32674805435
2	512	1090.363484835675	187.66493875107
2	517	1100.735238604389	197.63979639067
2	518	1102.258830996486	197.16896949441
2	519	1102.419848015088	191.41644397831
2	522	1111.714361254015	198.10683549848
2	609	1275.466335581764	351.25277869162
2	612	1279.5313764717	345.4545589355
2	613	1280.277244901441	343.31718060206
2	614	1282.754584533399	343.36975543398
2	615	1285.027492679881	327.97940566305
2	616	1286.339997182287	328.42786232845
2	617	1288.930599374014	330.72051708602
2	618	1289.148675127141	329.59993145958
2	630	1311.517542247979	333.27993645256
2	631	1311.674880154667	325.75545659602
2	632	1316.154808000469	317.40999513623
2	633	1316.89786871726	317.09515203096
2	634	1320.585131273866	314.99499329849
2	635	1321.680816899223	316.04373300595
2	636	1328.01098615505	309.23757184697
2	639	1328.792420536904	302.06749266005
2	645	1337.867889943138	284.57443775914
2	646	1338.577732541711	283.77668953991
2	647	1339.127230564261	274.47425665127
2	648	1341.658791859428	269.43326145324
2	649	1342.256221203245	248.90022862804
2	650	1342.546871987385	242.26468911099
2	651	1344.287994508052	239.30995838615
2	654	1348.325708737339	229.96872417157
2	659	1361.622114597386	241.53568841428
2	660	1364.272574505385	236.85836599807
2	674	1378.786490557825	224.83477183453
2	675	1385.247438097681	224.15036752556
2	676	1385.389043938046	213.3467783174
2	679	1386.630251208336	208.22234748144
2	680	1392.672447064216	208.46114284604
2	683	1402.281017419261	217.98059438953
2	684	1404.871380052133	220.43598928732
2	685	1404.963909891655	219.82540593893
2	686	1405.259442117244	219.8583714872
2	696	1420.675163864555	226.40484156085
2	699	1421.565905117091	221.64815518887
2	700	1428.089410141112	212.88235343875
2	701	1429.768509570395	212.50493262723
2	702	1429.786806738663	183.92341797218
2	703	1432.135562664062	178.72821587198
2	704	1433.117515994382	178.46303564608
2	705	1435.875249216924	172.08067926648
2	706	1438.994698497327	168.71776723579
2	711	1444.225593602347	166.74023597745
2	715	1449.98781792141	159.73973226495
2	716	1451.529028565557	122.92145230164
2	717	1452.493525332162	120.22741025617
2	722	1459.728558190472	124.98641650689
2	723	1462.912545059291	116.91337322161
2	724	1463.889195290135	112.70823981928
2	725	1464.03905633478	106.01477839212
2	726	1469.513557409128	100.55451281871
2	727	1470.571019529652	95.242971210917
2	728	1474.960353582231	98.576569156941
2	734	1485.62231267603	100.19785475107
2	735	1488.541117858095	87.854491623718
2	739	1491.533994492441	78.588062053048
2	740	1494.465822943555	81.18881255882
2	744	1503.435439322793	81.883390459671
2	747	1506.162975597199	66.887730616679
2	748	1506.19568918102	64.197073782907
2	751	1508.089478788714	63.704365213866
2	752	1510.338282981243	55.585766599695
2	753	1511.982587712573	53.367862369059
2	756	1517.291156225897	38.557728612925
2	759	1520.264213528657	40.204492246725
2	760	1522.093655703872	33.367360922974
2	768	1530.747544646082	25.445600686877
2	769	1533.997218343991	26.421125666656
2	770	1534.576987315643	20.628728978021
2	771	1536.018747661539	18.524648712864
2	772	1536.653737648465	12.84652687637
2	773	1537.655322743692	13.412984239191
2	797	1601.051314817611	53.92948740536
2	798	1602.070071564682	48.143871187994
2	799	1605.324783864087	48.633138001829
2	800	1605.922354654956	39.874033061982
2	805	1619.102314209569	43.251765819232
2	806	1621.993517480941	31.351519227024
2	807	1625.810863718355	32.871291341773
2	808	1630.853501834245	30.412886363722
2	809	1633.562037634301	25.619508495085
2	817	1658.289975961081	24.575625933828
2	818	1659.099188517852	13.88687851671
2	821	1665.302438366715	17.006830331307
2	822	1665.765476015103	4.618639032961
2	831	1686.082757422963	19.271250150947
2	832	1689.185183208922	20.404313395961
2	833	1689.34692702355	13.493563678537
2	836	1690.712942493892	5.190962234152
2	837	1692.034953498149	1.415437908566
2	840	1699.316390039445	0.435038685571
2	843	1707.086490186198	4.815636495652
2	895	1826.212613424696	109.52772157062
2	896	1826.859110547799	84.751403088685
2	899	1830.858796608397	72.318745985618
2	907	1839.026795806645	71.631958991002
2	908	1839.148113655819	69.393817592072
2	909	1841.92156581472	70.677805718305
2	910	1849.165278326468	51.968053313936
2	911	1849.514240742595	42.227528843449
2	912	1851.264896778031	38.582056677823
2	913	1857.532676069211	44.766405093239
2	914	1861.122167345221	46.851005368968
2	917	1866.798033095558	36.987630641566
2	918	1866.827282806523	35.966277211833
2	919	1867.502384903042	30.294575301377
2	920	1868.719111855002	30.885000155868
2	927	1884.667124198884	7.174801099307
2	941	1955.175553124902	33.62666467824
2	942	1966.387467635275	41.302739526692
2	945	1976.4267851005	9.964956592966
2	962	2042.603482649437	46.160756414475
2	965	2045.518250435282	46.499744706631
2	966	2061.276470012736	58.142614825214
2	967	2061.849825824437	39.747617662515
2	972	2071.072167272662	44.087451746218
2	973	2071.549748633956	27.80831933296
2	974	2071.835492992524	3.799597989925
2	975	2079.207059413135	8.477530632602
2	981	2088.690152057998	4.834998711779
2	987	2099.295674087724	6.539137759399
2	993	2120.530102546254	12.741339720646
2	999	2146.795919469388	1.209919164931
2	1040	2223.631819336369	57.071557324016
2	1041	2227.062260876009	56.440657001988
2	1042	2232.243773006099	34.574548536055
2	1043	2233.750424265197	35.07605076401
2	1044	2240.364195691819	36.809480386854
2	1053	2277.655232549799	65.38031073839
2	1054	2280.372925430503	61.892341281795
2	1065	2304.817093712246	81.691120737613
2	1066	2307.270151812246	62.010157566668
2	1087	2332.727459025921	51.852658745635
2	1130	2404.856288293624	114.66052695563
3	157	350.647204582635	104.09824625158
3	158	357.855593856805	97.487548769554
3	163	369.994434612891	104.47341058198
3	164	375.301378188347	97.31939172551
3	165	375.459454455681	80.42535722088
3	174	389.215559683787	84.513984548364
3	179	394.019567128389	89.102881634001
3	182	398.856157798466	88.386614509285
3	183	402.257793578742	87.437065830003
3	184	402.839863139939	84.607251585645
3	210	461.001686508891	136.18887900654
3	211	461.586448861177	100.33257661293
3	214	465.983686611211	97.025284105222
3	215	467.823584447166	85.790014458919
3	222	477.775539182286	91.680705225832
3	225	480.950396297024	94.30243515737
3	226	484.171681382106	95.054465858966
3	227	489.020069814905	96.79365929989
3	228	500.500481323836	107.593333672
3	229	502.454632506535	106.0923605652
3	232	504.91852940556	102.0382122839
3	237	519.72546331436	82.693634766374
3	238	524.467882446766	76.149870551389
3	250	545.724699686227	96.038683783861
3	251	552.693617113376	99.432018986412
3	254	553.066046618289	95.9164392635
3	257	555.57300179136	96.405869649538
3	258	561.365993924312	101.46301160374
3	259	572.654751291111	106.94950450552
3	260	574.536105827221	106.2849046012
3	261	581.049361033048	111.24711278411
3	262	592.7724310853	116.94992377703
3	284	627.588976138369	146.76373866675
3	291	668.042563730035	164.74787995392
3	292	671.837063879263	164.12640868146
3	299	681.180477827792	171.3138750633
3	300	681.621782271477	154.94899269115
3	301	683.489592086779	150.97539289306
3	304	684.233157834363	144.51114811348
3	305	684.563711452894	140.60345130811
3	308	687.508637665395	134.62885783608
3	311	691.581957680876	136.42626116941
3	312	691.862229601843	96.970790488945
3	321	706.876266938313	109.88917904254
3	324	719.948795935325	121.66395086861
3	327	721.44998421087	122.8736101519
3	332	725.644024344647	123.02341972002
3	333	726.584214992657	119.62982845985
3	336	734.472506505352	124.30980195526
3	371	796.457601770615	181.49906131509
3	374	809.550819570077	186.14455472318
3	377	825.322924349793	197.53116147682
3	380	833.538068189041	195.68578121164
3	385	836.169804379559	187.5258699726
3	388	840.599979929012	164.01932544445
3	389	841.714159309788	163.95669203731
3	390	845.757087107097	165.86245082786
3	393	846.843860317995	163.0971599992
3	394	855.11077784645	169.77896209658
3	395	861.436462954475	170.43992598967
3	396	870.906121619384	178.70134189266
3	397	871.097424281196	177.7710431459
3	398	877.336636306023	181.98275246278
3	413	901.024382231407	194.72584186797
3	418	904.496863491495	186.09490769085
3	419	904.723366504054	183.50262055569
3	422	906.825466769444	184.37961280709
3	423	908.52957882765	185.42494466061
3	424	908.839312197248	175.56696825246
3	427	911.330325924187	174.46807241366
3	451	952.427124060931	212.62939359156
3	452	953.124871129629	212.61550844831
3	453	956.896824424076	205.92430309166
3	456	957.563638441968	197.33668028824
3	463	971.973636989556	210.26154183229
3	464	975.576922838492	197.98930827453
3	469	982.469742372758	193.26850758168
3	470	983.073769634331	193.54721861486
3	471	985.361422208114	195.49993357443
3	474	994.528912428711	198.58950866747
3	479	1002.702378348059	195.0447453986
3	484	1006.00363652325	186.4614001115
3	487	1021.403497485114	191.32050742882
3	490	1036.4013969768	202.28510348039
3	491	1036.81504889007	201.65811534481
3	492	1037.644910497975	199.92083428359
3	498	1051.669445557064	205.89120421659
3	505	1070.247081758962	189.48538452632
3	508	1077.483721271822	195.02127703579
3	509	1082.138553526144	191.23790620806
3	510	1084.134017399421	184.46352217391
3	511	1088.997243279864	186.29869719526
3	512	1090.363484835675	187.26804262195
3	517	1100.735238604389	195.64537710232
3	518	1102.258830996486	191.25542695971
3	519	1102.419848015088	188.81232225956
3	522	1111.714361254015	196.02360067744
3	605	1268.188297968887	350.41286323216
3	608	1275.291147954172	351.07759106402
3	609	1275.466335581764	341.38951804557
3	612	1279.5313764717	342.57131217232
3	613	1280.277244901441	340.89241580202
3	614	1282.754584533399	325.70649751657
3	615	1285.027492679881	327.11535782605
3	616	1286.339997182287	328.12991489429
3	617	1288.930599374014	329.38185570645
3	618	1289.148675127141	312.56076308454
3	629	1309.451394468829	331.21378867341
3	630	1311.517542247979	325.59811868933
3	631	1311.674880154667	312.93006729043
3	632	1316.154808000469	316.35209131417
3	633	1316.89786871726	311.30773074188
3	634	1320.585131273866	314.94804738059
3	635	1321.680816899223	302.90740259115
3	636	1328.01098615505	301.2860582782
3	639	1328.792420536904	290.48426251838
3	644	1335.137741917152	281.84428973316
3	645	1337.867889943138	283.06684694133
3	646	1338.577732541711	273.92475862872
3	647	1339.127230564261	266.90170015808
3	648	1341.658791859428	248.30279928423
3	649	1342.256221203245	241.97403832685
3	650	1342.546871987385	237.56883586548
3	651	1344.287994508052	225.93100994228
3	654	1348.325708737339	228.23928255424
3	659	1361.622114597386	234.20790609007
3	660	1364.272574505385	230.75829259026
3	666	1375.006277303205	230.6454129336
3	673	1377.037141313234	223.08542258994
3	674	1378.786490557825	217.68941998571
3	675	1385.247438097681	213.20517247703
3	676	1385.389043938046	206.98114021116
3	679	1386.630251208336	202.41894699016
3	680	1392.672447064216	208.37202403448
3	683	1402.281017419261	217.84562665445
3	684	1404.871380052133	219.73287609941
3	685	1404.963909891655	219.56283926161
3	686	1405.259442117244	214.15232807776
3	689	1411.331986228852	217.06166392514
3	696	1420.675163864555	220.75741393633
3	699	1421.565905117091	206.35884841473
3	700	1428.089410141112	210.82583319795
3	701	1429.768509570395	183.90512080391
3	702	1429.786806738663	176.37945994658
3	703	1432.135562664062	177.48108231576
3	704	1433.117515994382	169.32294604394
3	705	1435.875249216924	165.59831795539
3	706	1438.994698497327	161.50934087243
3	711	1444.225593602347	154.26331119853
3	714	1447.847711256027	157.59962559957
3	715	1449.98781792141	121.3802416575
3	716	1451.529028565557	119.26291348956
3	717	1452.493525332162	117.75138364858
3	722	1459.728558190472	113.72938635279
3	723	1462.912545059291	111.73158958844
3	724	1463.889195290135	105.86491734748
3	725	1464.03905633478	95.080011744359
3	726	1469.513557409128	94.185509090393
3	727	1470.571019529652	94.187235104362
3	728	1474.960353582231	98.382129129437
3	733	1480.398502872829	94.974044947874
3	734	1485.62231267603	84.935686441653
3	735	1488.541117858095	83.033290786096
3	738	1489.383134351652	76.437201912259
3	739	1491.533994492441	78.256984107706
3	740	1494.465822943555	74.043424040809
3	743	1496.1952960463	74.643247183178
3	744	1503.435439322793	64.160194342273
3	747	1506.162975597199	64.164360199086
3	748	1506.19568918102	61.810575606172
3	751	1508.089478788714	53.336962407166
3	752	1510.338282981243	51.723557637729
3	753	1511.982587712573	33.249160099601
3	756	1517.291156225897	37.231434943965
3	759	1520.264213528657	31.537918747759
3	760	1522.093655703872	25.952519444033
3	765	1527.328094125187	22.026150165982
3	768	1530.747544646082	23.171451968747
3	769	1533.997218343991	20.048960006369
3	770	1534.576987315643	17.082888366968
3	771	1536.018747661539	12.211536889444
3	772	1536.653737648465	12.411399143964
3	773	1537.655322743692	7.389215425208
3	789	1579.673230644569	37.22559902227
3	796	1600.82772686742	53.705899455169
3	797	1601.051314817611	47.125114440923
3	798	1602.070071564682	45.378425702424
3	799	1605.324783864087	39.276462271113
3	800	1605.922354654956	30.071806264619
3	805	1619.102314209569	28.460315955652
3	806	1621.993517480941	29.053945104359
3	807	1625.810863718355	25.370248247832
3	808	1630.853501834245	22.910972695029
3	809	1633.562037634301	16.352063570642
3	816	1654.937260073207	21.222910045954
3	817	1658.289975961081	13.077665959939
3	818	1659.099188517852	10.803580482444
3	821	1665.302438366715	4.155601384573
3	824	1666.811507272016	0
3	831	1686.082757422963	17.301887610002
3	832	1689.185183208922	13.331819863909
3	833	1689.34692702355	3.82494676381
3	836	1690.712942493892	0.093426904309
3	839	1698.881351353874	0
3	842	1702.270853690546	0
3	894	1823.514514408988	106.82962255491
3	895	1826.212613424696	84.104905965582
3	896	1826.859110547799	68.31905992502
3	899	1830.858796608397	67.011088540673
3	906	1838.871960467105	71.477123651462
3	907	1839.026795806645	69.272499742898
3	908	1839.148113655819	67.904353559404
3	909	1841.92156581472	44.724340802188
3	910	1849.165278326468	41.878566427322
3	911	1849.514240742595	36.831400642387
3	912	1851.264896778031	38.498625802059
3	913	1857.532676069211	43.261514092958
3	914	1861.122167345221	31.311764891229
3	917	1866.798033095558	35.937027500868
3	918	1866.827282806523	29.619473204858
3	919	1867.502384903042	29.668273203908
3	920	1868.719111855002	5.665242626145
3	923	1876.964222129988	2.749402295012
3	926	1882.650477768027	5.15815466845
3	940	1954.750293291137	33.201404844475
3	941	1955.175553124902	30.090825016319
3	944	1966.461828507534	0
3	961	2041.910709334502	45.46798309954
3	962	2042.603482649437	43.584976920786
3	965	2045.518250435282	42.38439524776
3	966	2061.276470012736	39.174261850814
3	967	2061.849825824437	34.865110297993
3	972	2071.072167272662	27.330737971666
3	973	2071.549748633956	3.513853631357
3	974	2071.835492992524	1.105964211991
3	977	2082.060564272508	0
3	980	2084.043711705242	0.188558359023
3	986	2096.136383216724	3.379846888399
3	992	2118.099935702648	10.31117287704
3	998	2145.586000304457	0
3	1001	2157.470008204503	0
3	1004	2160.741457515191	3.209457495369
3	1007	2162.946335780201	2.176392433712
3	1033	2220.203429008555	53.643166996202
3	1040	2223.631819336369	53.010215462348
3	1041	2227.062260876009	29.393036405965
3	1042	2232.243773006099	33.569399504912
3	1043	2233.750424265197	30.195708960232
3	1044	2240.364195691819	29.865879030852
3	1052	2275.84504442588	63.570122614471
3	1053	2277.655232549799	59.174648401091
3	1054	2280.372925430503	58.891086251883
3	1059	2285.477251719249	63.98797082631
3	1062	2301.670648687486	78.544675712853
3	1065	2304.817093712246	59.557099466668
3	1066	2307.270151812246	39.100935432578
3	1086	2332.557206543637	51.682406263351
3	1087	2332.727459025921	51.852565696642
3	1125	2393.08662466557	102.89086332758
3	1130	2404.856288293624	102.9752498896
4	160	361.253872248248	11
4	167	382.033569988247	10
4	169	386.094833956454	11
4	171	386.647961139654	12
4	173	389.11721552314	13
4	176	392.226410515015	13
4	178	392.907147651836	14
4	181	396.36227194133	14
4	196	437.031828547986	12
4	199	448.318011895377	13
4	201	449.686015902366	14
4	203	453.261598126964	15
4	205	457.149607354789	16
4	207	459.167132141822	17
4	209	459.902982320572	18
4	213	465.705246785592	18
4	217	468.251201226019	17
4	221	475.822507308272	18
4	224	480.825237471622	19
4	236	509.866602764496	15
4	244	532.51419919372	15
4	247	539.722009720888	16
4	249	543.960260144784	17
4	256	555.155696511461	17
4	266	596.98708789577	12
4	268	598.284845066716	13
4	270	598.576374058973	14
4	274	602.620604624623	15
4	276	606.95438653281	16
4	278	610.162704550092	17
4	280	614.958540455523	18
4	282	623.406264846895	19
4	288	637.852286977402	20
4	290	648.643934406955	21
4	294	676.580654484565	21
4	298	679.89463627924	22
4	303	683.746700318794	21
4	307	685.331815749873	20
4	310	690.996536964801	20
4	314	692.204779726722	19
4	318	695.353883843244	20
4	320	706.298540363435	21
4	329	722.445853962356	22
4	331	723.104634167044	23
4	335	733.272343944783	22
4	340	739.797730469372	22
4	342	740.509362681322	23
4	349	750.972521332418	24
4	351	760.22695815373	25
4	353	761.712095157267	26
4	356	777.587614563966	27
4	361	789.201234791078	28
4	363	789.526551019467	29
4	365	789.861488633681	30
4	370	795.939403761245	31
4	376	819.542236411746	32
4	384	835.156933545261	32
4	387	837.724076214384	33
4	402	882.462444236032	26
4	404	890.900647318088	27
4	412	899.670495225509	28
4	415	902.698546084606	29
4	417	903.095442213722	30
4	421	905.089861502072	29
4	426	911.003404036779	27
4	431	915.690760576577	27
4	433	917.775434736723	28
4	437	924.213556890148	29
4	440	934.076817536199	30
4	446	936.960064299383	31
4	449	939.38482909942	32
4	458	957.912134853835	31
4	462	959.548743667564	32
4	468	978.23760579542	32
4	473	985.919423558647	31
4	476	998.744812864239	31
4	478	999.8027166863	32
4	483	1005.637083893272	32
4	486	1018.773414308077	33
4	489	1026.72492787685	33
4	502	1054.801043001804	31
4	504	1064.652973912992	32
4	514	1093.355992575201	29
4	516	1100.282182876396	30
4	521	1104.978036121906	28
4	524	1118.356984565768	28
4	528	1127.414208507312	29
4	533	1133.514281915121	30
4	537	1144.360864369609	31
4	542	1153.951718723298	32
4	548	1161.097070572118	33
4	555	1172.04226562065	34
4	558	1178.407903726891	35
4	566	1184.211304218178	36
4	568	1184.300423029734	37
4	570	1184.435390764814	38
4	572	1185.138503952723	39
4	574	1185.401070630046	40
4	576	1191.107114039485	41
4	578	1194.270322303708	42
4	580	1199.917749928224	43
4	584	1215.207056702361	44
4	586	1217.263576943163	45
4	591	1245.863388766485	46
4	593	1253.407346792082	47
4	595	1254.654480348304	48
4	603	1263.794569950446	49
4	611	1277.485357624897	49
4	622	1290.248085656458	43
4	638	1328.607576263913	37
4	641	1332.266115075993	37
4	653	1345.999171837684	31
4	656	1351.180955470854	31
4	658	1358.024277942655	32
4	668	1375.328048318735	31
4	672	1376.578224452794	32
4	678	1385.424457924955	30
4	682	1400.686626234377	29
4	691	1412.945932439393	26
4	693	1413.277010384735	27
4	695	1420.422398902746	28
4	698	1421.552048863122	28
4	708	1439.27524498052	21
4	710	1441.998615398113	22
4	719	1454.752516381548	19
4	721	1458.614725343514	20
4	730	1478.733427612972	14
4	746	1505.301943959205	10
4	750	1507.576092677335	9
4	755	1513.948258337622	7
4	758	1517.494098948675	7
4	762	1523.807210772095	6
4	767	1530.266107318484	7
4	777	1547.121827412251	2
4	781	1553.926200376688	3
4	783	1556.691645862258	4
4	786	1566.048321592974	5
4	788	1575.850548390337	6
4	793	1592.939572376582	7
4	795	1600.440615470523	8
4	802	1607.942529139216	5
4	804	1617.209974063659	6
4	813	1645.212310001142	2
4	815	1648.295608035408	3
4	820	1661.146836982142	2
4	824	1666.811507272016	1
4	826	1668.780869812961	2
4	828	1675.853363345013	3
4	830	1685.52198025974	4
4	835	1690.619515589583	2
4	839	1698.881351353874	1
4	842	1702.270853690546	1
4	847	1716.684891854079	1
4	855	1742.107707459114	2
4	858	1758.540050622779	3
4	860	1763.847708067724	4
4	862	1767.394836815643	5
4	865	1769.754296063747	6
4	867	1771.243760096415	7
4	875	1797.197225012532	8
4	886	1807.286711899146	9
4	889	1812.682840100208	10
4	891	1812.766270975972	11
4	893	1814.271161976253	12
4	898	1829.810402453992	11
4	901	1830.86100559469	11
4	905	1837.834111699134	12
4	916	1863.053869228857	5
4	933	1921.548888446662	1
4	935	1925.084728108583	2
4	944	1966.461828507534	1
4	952	1996.442726234962	1
4	954	1999.018505728651	2
4	956	2003.133855187522	3
4	958	2022.102208161922	4
4	960	2026.984715526444	5
4	964	2043.741429300996	5
4	969	2068.035895002599	3
4	971	2070.729528780533	4
4	977	2082.060564272508	1
4	985	2092.756536328325	1
4	991	2107.788762825608	1
4	998	2145.586000304457	1
4	1001	2157.470008204503	1
4	1013	2170.621603874021	2
4	1018	2197.669224470044	3
4	1022	2198.674373501187	4
4	1024	2203.554715304965	5
4	1027	2210.498316660967	6
4	1029	2212.274921811409	7
4	1032	2218.480584148708	8
4	1035	2221.48183917862	9
4	1037	2221.489280892939	10
4	1039	2223.125972974633	11
4	1050	2268.169216379668	7
4	1056	2280.874800280286	6
4	1064	2301.881038404028	7
4	1074	2309.910991732672	6
4	1077	2312.359914615875	7
4	1080	2318.170158082466	8
4	1084	2327.468414806708	9
4	1097	2343.996904793849	9
4	1103	2350.382606851478	10
4	1108	2358.611579696822	11
4	1112	2363.060537216027	12
4	1115	2373.50460996526	13
4	1117	2381.039792987798	14
4	1123	2386.087771682966	15
4	1127	2394.407798511697	16
4	1129	2404.565149470387	17
4	1140	2422.495692925158	17
4	1142	2423.823415495132	18
4	1144	2424.472143381992	19
4	1146	2430.129653405028	20
4	1150	2439.453006626528	21
4	1156	2446.289358719912	22
4	1162	2453.293347744151	23
4	1166	2458.70246381101	24
4	1168	2460.449554175474	25
4	1171	2464.794619718189	26
4	1173	2466.366369433583	27
4	1178	2477.751206080727	28
4	1184	2487.907921574443	29
4	1186	2491.854625862879	30
5	162	368.958402505989	1
5	186	402.880317121656	1
5	188	402.959438767677	2
5	191	411.151057594791	2
5	193	425.50773619485	3
5	219	469.80224824894	1
5	231	503.294683776111	1
5	234	507.710655197798	1
5	240	526.672789580331	1
5	242	527.294692179906	2
5	253	552.879779829314	1
5	264	594.891439112898	1
5	272	601.794162164892	2
5	286	627.791762872973	1
5	296	677.757467272476	1
5	316	693.3263811353	1
5	323	718.401955800649	1
5	326	721.220745948366	1
5	338	736.862253510529	1
5	344	747.539614225181	2
5	347	750.606602021905	2
5	358	780.773926758294	2
5	367	790.1209739769	2
5	373	807.657632949454	1
5	379	830.082990056291	1
5	382	834.116293496415	1
5	392	845.77824134047	1
5	400	880.761697232639	1
5	406	892.145415789384	2
5	408	894.373028441513	3
5	429	913.607525755531	1
5	435	920.277206925292	2
5	442	934.672708179719	2
5	444	936.028935313202	3
5	455	957.048087016828	1
5	460	958.210082287997	1
5	466	976.587912042603	1
5	481	1005.590137975379	1
5	494	1038.308158018523	1
5	496	1038.545319263007	2
5	500	1053.293452183994	1
5	507	1072.225530406186	1
5	526	1120.086426183102	1
5	530	1128.152243321753	2
5	535	1135.843037619533	2
5	540	1152.246671720459	2
5	544	1154.142983468966	3
5	550	1162.317380905273	2
5	553	1169.470891429442	2
5	560	1180.063672947012	2
5	562	1182.484086536195	3
5	564	1184.083476601723	4
5	588	1219.368073518	3
5	598	1257.720377731584	2
5	600	1258.681009477602	3
5	607	1270.276931261535	1
5	620	1289.96228240382	1
5	624	1292.563411709023	2
5	627	1308.426570154145	2
5	643	1334.742141683582	1
5	662	1368.959044590421	1
5	664	1371.947207617954	2
5	670	1376.38378442529	1
5	688	1405.507827071999	1
5	713	1444.385113574848	1
5	732	1480.059721281932	1
5	737	1488.726294780898	1
5	742	1496.141136259839	1
5	764	1524.242338504501	1
5	775	1542.447631622299	1
5	779	1549.466082130356	2
5	791	1590.641998253917	1
5	811	1633.714350027253	1
5	845	1715.229752380084	1
5	849	1723.105769530319	2
5	851	1735.705584841452	3
5	853	1739.312436688954	4
5	870	1781.020742921571	2
5	873	1790.989767933443	2
5	877	1798.01125817734	3
5	880	1799.973669012292	3
5	882	1802.788611750136	4
5	903	1837.207809601665	1
5	922	1874.214819834976	1
5	925	1877.492323099577	1
5	929	1899.01190856079	1
5	931	1908.705791028292	2
5	937	1926.80487591959	3
5	947	1984.546275450773	1
5	950	1996.012842413922	1
5	979	2083.855153346219	1
5	983	2092.664060113132	1
5	989	2104.851380459965	1
5	995	2122.543875262575	1
5	1003	2157.532000019822	1
5	1006	2160.769943346489	1
5	1009	2166.560262012353	1
5	1011	2170.316721573153	2
5	1016	2188.511548646784	2
5	1020	2198.633767710102	3
5	1046	2245.259994245578	1
5	1048	2265.579539773758	2
5	1058	2280.874893329279	1
5	1061	2290.195761337989	1
5	1068	2308.037549004393	1
5	1070	2308.085742285505	2
5	1072	2308.887224526848	3
5	1082	2324.804840986635	2
5	1089	2333.642706438426	1
5	1091	2336.358455922297	2
5	1093	2338.017678787934	3
5	1095	2339.680804628958	4
5	1100	2346.97091279548	4
5	1105	2352.329510823868	4
5	1110	2360.360545668002	4
5	1121	2381.934676952752	2
5	1132	2411.664070294826	1
5	1134	2416.504309095825	2
5	1136	2417.319899226566	3
5	1138	2421.859081073032	4
5	1148	2433.0836491068	5
5	1153	2442.737002327712	5
5	1159	2450.301596221221	4
5	1164	2455.396158994061	4
5	1175	2475.635191458486	4
5	1180	2478.070608996934	4
5	1182	2486.574186514758	5
6	162	368.958402505989	0
6	163	369.994434612891	0
6	186	402.880317121656	0
6	188	402.959438767677	1
6	189	409.446723137409	1
6	191	411.151057594791	1
6	193	425.50773619485	2
6	194	429.637435692829	2
6	197	443.487777541003	1
6	210	461.001686508891	0
6	219	469.80224824894	0
6	222	477.775539182286	0
6	231	503.294683776111	0
6	232	504.91852940556	0
6	234	507.710655197798	0
6	237	519.72546331436	0
6	240	526.672789580331	0
6	242	527.294692179906	1
6	245	535.678013204659	1
6	250	545.724699686227	0
6	253	552.879779829314	0
6	254	553.066046618289	0
6	264	594.891439112898	0
6	272	601.794162164892	1
6	283	626.471782997237	1
6	284	627.588976138369	0
6	286	627.791762872973	0
6	291	668.042563730035	0
6	296	677.757467272476	0
6	299	681.180477827792	0
6	316	693.3263811353	0
6	321	706.876266938313	0
6	323	718.401955800649	0
6	324	719.948795935325	0
6	326	721.220745948366	0
6	327	721.44998421087	0
6	338	736.862253510529	0
6	344	747.539614225181	1
6	345	749.668116380185	1
6	347	750.606602021905	1
6	354	772.544693822595	1
6	358	780.773926758294	1
6	359	787.89205790685	1
6	367	790.1209739769	1
6	368	792.654679501339	1
6	371	796.457601770615	0
6	373	807.657632949454	0
6	374	809.550819570077	0
6	379	830.082990056291	0
6	380	833.538068189041	0
6	382	834.116293496415	0
6	385	836.169804379559	0
6	392	845.77824134047	0
6	393	846.843860317995	0
6	400	880.761697232639	0
6	406	892.145415789384	1
6	408	894.373028441513	2
6	409	898.717881219542	2
6	410	899.507071128288	1
6	413	901.024382231407	0
6	429	913.607525755531	0
6	435	920.277206925292	1
6	438	924.833393046516	1
6	442	934.672708179719	1
6	444	936.028935313202	2
6	447	938.251513999423	2
6	450	946.48786281706	1
6	451	952.427124060931	0
6	455	957.048087016828	0
6	456	957.563638441968	0
6	460	958.210082287997	0
6	463	971.973636989556	0
6	466	976.587912042603	0
6	469	982.469742372758	0
6	481	1005.590137975379	0
6	484	1006.00363652325	0
6	494	1038.308158018523	0
6	496	1038.545319263007	1
6	497	1042.930771064731	1
6	498	1051.669445557064	0
6	500	1053.293452183994	0
6	505	1070.247081758962	0
6	507	1072.225530406186	0
6	508	1077.483721271822	0
6	526	1120.086426183102	0
6	530	1128.152243321753	1
6	531	1131.474247859513	1
6	535	1135.843037619533	1
6	538	1151.989610223798	1
6	540	1152.246671720459	1
6	544	1154.142983468966	2
6	545	1160.282788281854	2
6	546	1160.927149474695	1
6	550	1162.317380905273	1
6	551	1168.161521949157	1
6	553	1169.470891429442	1
6	556	1174.516252999078	1
6	560	1180.063672947012	1
6	562	1182.484086536195	2
6	564	1184.083476601723	3
6	581	1201.317708217189	3
6	582	1206.945523966806	2
6	588	1219.368073518	2
6	589	1245.807413946857	2
6	596	1256.031636684595	1
6	598	1257.720377731584	1
6	600	1258.681009477602	2
6	601	1259.744779040636	2
6	604	1265.719850314706	1
6	605	1268.188297968887	0
6	607	1270.276931261535	0
6	608	1275.291147954172	0
6	620	1289.96228240382	0
6	624	1292.563411709023	1
6	625	1304.288244840986	1
6	627	1308.426570154145	1
6	628	1308.859150790622	1
6	629	1309.451394468829	0
6	643	1334.742141683582	0
6	644	1335.137741917152	0
6	662	1368.959044590421	0
6	664	1371.947207617954	1
6	665	1373.040771228204	1
6	666	1375.006277303205	0
6	670	1376.38378442529	0
6	673	1377.037141313234	0
6	688	1405.507827071999	0
6	689	1411.331986228852	0
6	713	1444.385113574848	0
6	714	1447.847711256027	0
6	732	1480.059721281932	0
6	733	1480.398502872829	0
6	737	1488.726294780898	0
6	738	1489.383134351652	0
6	742	1496.141136259839	0
6	743	1496.1952960463	0
6	764	1524.242338504501	0
6	765	1527.328094125187	0
6	775	1542.447631622299	0
6	779	1549.466082130356	1
6	784	1565.623066071638	1
6	789	1579.673230644569	0
6	791	1590.641998253917	0
6	796	1600.82772686742	0
6	811	1633.714350027253	0
6	816	1654.937260073207	0
6	845	1715.229752380084	0
6	849	1723.105769530319	1
6	851	1735.705584841452	2
6	853	1739.312436688954	3
6	856	1755.230075024992	3
6	863	1769.388956843359	2
6	868	1775.096763624618	1
6	870	1781.020742921571	1
6	871	1782.522866471873	1
6	873	1790.989767933443	1
6	877	1798.01125817734	2
6	878	1798.134618886844	2
6	880	1799.973669012292	2
6	882	1802.788611750136	3
6	883	1806.749064331456	3
6	884	1807.217152102211	2
6	887	1811.254622506726	1
6	894	1823.514514408988	0
6	903	1837.207809601665	0
6	906	1838.871960467105	0
6	922	1874.214819834976	0
6	923	1876.964222129988	0
6	925	1877.492323099577	0
6	926	1882.650477768027	0
6	929	1899.01190856079	0
6	931	1908.705791028292	1
6	937	1926.80487591959	2
6	938	1933.015876104065	2
6	939	1944.894549908342	1
6	940	1954.750293291137	0
6	947	1984.546275450773	0
6	948	1985.130844068709	0
6	950	1996.012842413922	0
6	961	2041.910709334502	0
6	979	2083.855153346219	0
6	980	2084.043711705242	0
6	983	2092.664060113132	0
6	986	2096.136383216724	0
6	989	2104.851380459965	0
6	992	2118.099935702648	0
6	995	2122.543875262575	0
6	996	2136.547673478449	0
6	1003	2157.532000019822	0
6	1004	2160.741457515191	0
6	1006	2160.769943346489	0
6	1007	2162.946335780201	0
6	1009	2166.560262012353	0
6	1011	2170.316721573153	1
6	1014	2177.431013403142	1
6	1016	2188.511548646784	1
6	1020	2198.633767710102	2
6	1025	2204.594277045521	2
6	1030	2216.535228401396	1
6	1033	2220.203429008555	0
6	1046	2245.259994245578	0
6	1048	2265.579539773758	1
6	1051	2269.574756203792	1
6	1052	2275.84504442588	0
6	1058	2280.874893329279	0
6	1059	2285.477251719249	0
6	1061	2290.195761337989	0
6	1062	2301.670648687486	0
6	1068	2308.037549004393	0
6	1070	2308.085742285505	1
6	1072	2308.887224526848	2
6	1075	2312.032193062879	2
6	1078	2316.217930165783	1
6	1082	2324.804840986635	1
6	1085	2331.003337111307	1
6	1086	2332.557206543637	0
6	1089	2333.642706438426	0
6	1091	2336.358455922297	1
6	1093	2338.017678787934	2
6	1095	2339.680804628958	3
6	1098	2346.656765690984	3
6	1100	2346.97091279548	3
6	1101	2347.160449206896	3
6	1105	2352.329510823868	3
6	1106	2356.676336911759	3
6	1110	2360.360545668002	3
6	1113	2366.144830841556	3
6	1118	2381.137313737764	2
6	1119	2381.506522320528	1
6	1121	2381.934676952752	1
6	1124	2390.756926097135	1
6	1125	2393.08662466557	0
6	1132	2411.664070294826	0
6	1134	2416.504309095825	1
6	1136	2417.319899226566	2
6	1138	2421.859081073032	3
6	1148	2433.0836491068	4
6	1151	2440.07649203321	4
6	1153	2442.737002327712	4
6	1154	2445.579131637788	4
6	1157	2449.235625269137	3
6	1159	2450.301596221221	3
6	1160	2452.248337961281	3
6	1164	2455.396158994061	3
6	1169	2464.311716878061	3
6	1175	2475.635191458486	3
6	1176	2476.055466387792	3
6	1180	2478.070608996934	3
6	1182	2486.574186514758	4
7	162	368.958402505989	4
7	186	402.880317121656	5
7	219	469.80224824894	6
7	231	503.294683776111	7
7	234	507.710655197798	8
7	240	526.672789580331	9
7	253	552.879779829314	10
7	264	594.891439112898	11
7	286	627.791762872973	12
7	296	677.757467272476	13
7	316	693.3263811353	14
7	323	718.401955800649	15
7	326	721.220745948366	16
7	338	736.862253510529	17
7	373	807.657632949454	18
7	379	830.082990056291	19
7	382	834.116293496415	20
7	392	845.77824134047	21
7	400	880.761697232639	22
7	429	913.607525755531	23
7	455	957.048087016828	24
7	460	958.210082287997	25
7	466	976.587912042603	26
7	481	1005.590137975379	27
7	494	1038.308158018523	28
7	500	1053.293452183994	29
7	507	1072.225530406186	30
7	526	1120.086426183102	31
7	607	1270.276931261535	32
7	620	1289.96228240382	33
7	643	1334.742141683582	34
7	662	1368.959044590421	35
7	670	1376.38378442529	36
7	688	1405.507827071999	37
7	713	1444.385113574848	38
7	732	1480.059721281932	39
7	737	1488.726294780898	40
7	742	1496.141136259839	41
7	764	1524.242338504501	42
7	775	1542.447631622299	43
7	791	1590.641998253917	44
7	811	1633.714350027253	45
7	903	1837.207809601665	46
7	922	1874.214819834976	47
7	925	1877.492323099577	48
7	979	2083.855153346219	49
7	1003	2157.532000019822	50
7	1006	2160.769943346489	51
7	1009	2166.560262012353	52
7	1046	2245.259994245578	53
7	1058	2280.874893329279	54
7	1061	2290.195761337989	55
7	1068	2308.037549004393	56
7	1089	2333.642706438426	57
7	1132	2411.664070294826	58
8	162	368.958402505989	0
8	186	402.880317121656	0
8	189	409.446723137409	6.487284369732
8	194	429.637435692829	18.486378098038
8	197	443.487777541003	17.980041346153
8	219	469.80224824894	0
8	231	503.294683776111	0
8	234	507.710655197798	0
8	240	526.672789580331	0
8	245	535.678013204659	8.383321024753
8	253	552.879779829314	0
8	264	594.891439112898	0
8	283	626.471782997237	24.677620832345
8	286	627.791762872973	0
8	296	677.757467272476	0
8	316	693.3263811353	0
8	323	718.401955800649	0
8	326	721.220745948366	0
8	338	736.862253510529	0
8	345	749.668116380185	2.128502155004
8	354	772.544693822595	21.93809180069
8	359	787.89205790685	7.118131148556
8	368	792.654679501339	2.533705524439
8	373	807.657632949454	0
8	379	830.082990056291	0
8	382	834.116293496415	0
8	392	845.77824134047	0
8	400	880.761697232639	0
8	409	898.717881219542	6.572465430158
8	410	899.507071128288	5.134042686775
8	429	913.607525755531	0
8	438	924.833393046516	4.556186121224
8	447	938.251513999423	3.578805819704
8	450	946.48786281706	10.458927503858
8	455	957.048087016828	0
8	460	958.210082287997	0
8	466	976.587912042603	0
8	481	1005.590137975379	0
8	494	1038.308158018523	0
8	497	1042.930771064731	4.385451801724
8	500	1053.293452183994	0
8	507	1072.225530406186	0
8	526	1120.086426183102	0
8	531	1131.474247859513	3.32200453776
8	538	1151.989610223798	16.146572604265
8	545	1160.282788281854	8.036116561395
8	546	1160.927149474695	6.784166005729
8	551	1168.161521949157	5.844141043884
8	556	1174.516252999078	5.045361569636
8	581	1201.317708217189	21.254035270177
8	582	1206.945523966806	24.461437430611
8	589	1245.807413946857	61.723937345134
8	596	1256.031636684595	36.663563166595
8	601	1259.744779040636	2.024401309052
8	604	1265.719850314706	7.038840837104
8	607	1270.276931261535	0
8	620	1289.96228240382	0
8	625	1304.288244840986	11.724833131963
8	628	1308.859150790622	0.432580636477
8	643	1334.742141683582	0
8	662	1368.959044590421	0
8	665	1373.040771228204	1.09356361025
8	670	1376.38378442529	0
8	688	1405.507827071999	0
8	713	1444.385113574848	0
8	732	1480.059721281932	0
8	737	1488.726294780898	0
8	742	1496.141136259839	0
8	764	1524.242338504501	0
8	775	1542.447631622299	0
8	784	1565.623066071638	16.156983941282
8	791	1590.641998253917	0
8	811	1633.714350027253	0
8	845	1715.229752380084	0
8	856	1755.230075024992	32.124305494673
8	863	1769.388956843359	33.683372001907
8	868	1775.096763624618	35.784326935664
8	871	1782.522866471873	1.502123550302
8	878	1798.134618886844	7.144850953401
8	883	1806.749064331456	8.737806154116
8	884	1807.217152102211	7.243483089919
8	887	1811.254622506726	8.46601075659
8	903	1837.207809601665	0
8	922	1874.214819834976	0
8	925	1877.492323099577	0
8	929	1899.01190856079	0
8	938	1933.015876104065	24.310085075773
8	939	1944.894549908342	18.089673988752
8	947	1984.546275450773	0
8	950	1996.012842413922	0
8	979	2083.855153346219	0
8	983	2092.664060113132	0
8	989	2104.851380459965	0
8	995	2122.543875262575	0
8	1003	2157.532000019822	0
8	1006	2160.769943346489	0
8	1009	2166.560262012353	0
8	1014	2177.431013403142	7.114291829989
8	1025	2204.594277045521	16.082728398737
8	1030	2216.535228401396	17.901460691294
8	1046	2245.259994245578	0
8	1051	2269.574756203792	3.995216430034
8	1058	2280.874893329279	0
8	1061	2290.195761337989	0
8	1068	2308.037549004393	0
8	1075	2312.032193062879	3.946450777374
8	1078	2316.217930165783	7.330705638935
8	1085	2331.003337111307	6.198496124672
8	1089	2333.642706438426	0
8	1098	2346.656765690984	10.298309768687
8	1101	2347.160449206896	9.142770418962
8	1106	2356.676336911759	16.995532282801
8	1113	2366.144830841556	19.173918046076
8	1118	2381.137313737764	28.807802913896
8	1119	2381.506522320528	21.145976652526
8	1124	2390.756926097135	8.822249144383
8	1132	2411.664070294826	0
8	1151	2440.07649203321	23.572182937385
8	1154	2445.579131637788	28.259232411222
8	1157	2449.235625269137	27.376544196105
8	1160	2452.248337961281	19.164688854481
8	1169	2464.311716878061	21.574714550349
8	1176	2476.055466387792	25.753870166571
9	163	369.994434612891	23
9	189	409.446723137409	24
9	194	429.637435692829	25
9	197	443.487777541003	26
9	210	461.001686508891	27
9	222	477.775539182286	28
9	232	504.91852940556	29
9	237	519.72546331436	30
9	245	535.678013204659	31
9	250	545.724699686227	32
9	254	553.066046618289	33
9	283	626.471782997237	34
9	284	627.588976138369	35
9	291	668.042563730035	36
9	299	681.180477827792	37
9	321	706.876266938313	38
9	324	719.948795935325	39
9	327	721.44998421087	40
9	345	749.668116380185	41
9	354	772.544693822595	42
9	359	787.89205790685	43
9	368	792.654679501339	44
9	371	796.457601770615	45
9	374	809.550819570077	46
9	380	833.538068189041	47
9	385	836.169804379559	48
9	393	846.843860317995	49
9	409	898.717881219542	50
9	410	899.507071128288	51
9	413	901.024382231407	52
9	438	924.833393046516	53
9	447	938.251513999423	54
9	450	946.48786281706	55
9	451	952.427124060931	56
9	456	957.563638441968	57
9	463	971.973636989556	58
9	469	982.469742372758	59
9	484	1006.00363652325	60
9	497	1042.930771064731	61
9	498	1051.669445557064	62
9	505	1070.247081758962	63
9	508	1077.483721271822	64
9	531	1131.474247859513	65
9	538	1151.989610223798	66
9	545	1160.282788281854	67
9	546	1160.927149474695	68
9	551	1168.161521949157	69
9	556	1174.516252999078	70
9	581	1201.317708217189	71
9	582	1206.945523966806	72
9	589	1245.807413946857	73
9	596	1256.031636684595	74
9	601	1259.744779040636	75
9	604	1265.719850314706	76
9	605	1268.188297968887	77
9	608	1275.291147954172	78
9	625	1304.288244840986	79
9	628	1308.859150790622	80
9	629	1309.451394468829	81
9	644	1335.137741917152	82
9	665	1373.040771228204	83
9	666	1375.006277303205	84
9	673	1377.037141313234	85
9	689	1411.331986228852	86
9	714	1447.847711256027	87
9	733	1480.398502872829	88
9	738	1489.383134351652	89
9	743	1496.1952960463	90
9	765	1527.328094125187	91
9	784	1565.623066071638	92
9	789	1579.673230644569	93
9	796	1600.82772686742	94
9	816	1654.937260073207	95
9	856	1755.230075024992	96
9	863	1769.388956843359	97
9	868	1775.096763624618	98
9	871	1782.522866471873	99
9	878	1798.134618886844	100
9	883	1806.749064331456	101
9	884	1807.217152102211	102
9	887	1811.254622506726	103
9	894	1823.514514408988	104
9	906	1838.871960467105	105
9	923	1876.964222129988	106
9	926	1882.650477768027	107
9	938	1933.015876104065	108
9	939	1944.894549908342	109
9	940	1954.750293291137	110
9	948	1985.130844068709	111
9	961	2041.910709334502	112
9	980	2084.043711705242	113
9	986	2096.136383216724	114
9	992	2118.099935702648	115
9	996	2136.547673478449	116
9	1004	2160.741457515191	117
9	1007	2162.946335780201	118
9	1014	2177.431013403142	119
9	1025	2204.594277045521	120
9	1030	2216.535228401396	121
9	1033	2220.203429008555	122
9	1051	2269.574756203792	123
9	1052	2275.84504442588	124
9	1059	2285.477251719249	125
9	1062	2301.670648687486	126
9	1075	2312.032193062879	127
9	1078	2316.217930165783	128
9	1085	2331.003337111307	129
9	1086	2332.557206543637	130
9	1098	2346.656765690984	131
9	1101	2347.160449206896	132
9	1106	2356.676336911759	133
9	1113	2366.144830841556	134
9	1118	2381.137313737764	135
9	1119	2381.506522320528	136
9	1124	2390.756926097135	137
9	1125	2393.08662466557	138
9	1151	2440.07649203321	139
9	1154	2445.579131637788	140
9	1157	2449.235625269137	141
9	1160	2452.248337961281	142
9	1169	2464.311716878061	143
9	1176	2476.055466387792	144
10	163	369.994434612891	1.036032106902
10	189	409.446723137409	6.566406015753
10	194	429.637435692829	26.677996925152
10	197	443.487777541003	32.336719946212
10	210	461.001686508891	35.493950314041
10	222	477.775539182286	7.973290933346
10	232	504.91852940556	1.623845629449
10	237	519.72546331436	12.014808116562
10	245	535.678013204659	9.005223624328
10	250	545.724699686227	18.430007506321
10	254	553.066046618289	0.186266788975
10	283	626.471782997237	31.580343884339
10	284	627.588976138369	25.794813973477
10	291	668.042563730035	40.250800857062
10	299	681.180477827792	3.423010555316
10	321	706.876266938313	13.549885803013
10	324	719.948795935325	1.546840134676
10	327	721.44998421087	0.229238262504
10	345	749.668116380185	12.805862869656
10	354	772.544693822595	25.005079597414
10	359	787.89205790685	37.285455884945
10	368	792.654679501339	11.880752743045
10	371	796.457601770615	6.336627793715
10	374	809.550819570077	1.893186620623
10	380	833.538068189041	3.45507813275
10	385	836.169804379559	2.053510883144
10	393	846.843860317995	1.065618977525
10	409	898.717881219542	17.956183986903
10	410	899.507071128288	7.361655338904
10	413	901.024382231407	6.651353789894
10	438	924.833393046516	11.225867290985
10	447	938.251513999423	17.974307074131
10	450	946.48786281706	11.815154637341
10	451	952.427124060931	16.398188747729
10	456	957.563638441968	0.51555142514
10	463	971.973636989556	13.763554701559
10	469	982.469742372758	5.881830330155
10	484	1006.00363652325	0.413498547871
10	497	1042.930771064731	4.622613046208
10	498	1051.669445557064	13.124126294057
10	505	1070.247081758962	16.953629574968
10	508	1077.483721271822	5.258190865636
10	531	1131.474247859513	11.387821676411
10	538	1151.989610223798	23.837366902045
10	545	1160.282788281854	24.439750662321
10	546	1160.927149474695	8.680477754236
10	551	1168.161521949157	14.018538480191
10	556	1174.516252999078	12.198872093805
10	581	1201.317708217189	31.846816787747
10	582	1206.945523966806	26.881851019794
10	589	1245.807413946857	63.323327410662
10	596	1256.031636684595	71.948160082872
10	601	1259.744779040636	40.376705522636
10	604	1265.719850314706	7.999472583122
10	605	1268.188297968887	9.507288491285
10	608	1275.291147954172	5.014216692637
10	625	1304.288244840986	14.325962437166
10	628	1308.859150790622	16.295739081599
10	629	1309.451394468829	1.024824314684
10	644	1335.137741917152	0.39560023357
10	665	1373.040771228204	4.081726637783
10	666	1375.006277303205	3.059069685251
10	673	1377.037141313234	0.653356887944
10	689	1411.331986228852	5.824159156853
10	714	1447.847711256027	3.462597681179
10	733	1480.398502872829	0.338781590897
10	738	1489.383134351652	0.656839570754
10	743	1496.1952960463	0.054159786461
10	765	1527.328094125187	3.085755620686
10	784	1565.623066071638	23.175434449339
10	789	1579.673230644569	30.207148514213
10	796	1600.82772686742	10.185728613503
10	816	1654.937260073207	21.222910045954
10	856	1755.230075024992	40.000322644908
10	863	1769.388956843359	46.28318731304
10	868	1775.096763624618	39.391178783166
10	871	1782.522866471873	43.210429782919
10	878	1798.134618886844	17.113875965273
10	883	1806.749064331456	15.759296398013
10	884	1807.217152102211	9.205893924871
10	887	1811.254622506726	11.280953494434
10	894	1823.514514408988	20.725902658852
10	906	1838.871960467105	1.66415086544
10	923	1876.964222129988	2.749402295012
10	926	1882.650477768027	5.15815466845
10	938	1933.015876104065	34.003967543275
10	939	1944.894549908342	36.18875888005
10	940	1954.750293291137	27.945417371547
10	948	1985.130844068709	0.584568617936
10	961	2041.910709334502	45.89786692058
10	980	2084.043711705242	0.188558359023
10	986	2096.136383216724	3.472323103592
10	992	2118.099935702648	13.248555242683
10	996	2136.547673478449	14.003798215874
10	1004	2160.741457515191	3.209457495369
10	1007	2162.946335780201	2.176392433712
10	1014	2177.431013403142	10.870751390789
10	1025	2204.594277045521	34.277555472368
10	1030	2216.535228401396	28.023679754612
10	1033	2220.203429008555	21.569661298453
10	1051	2269.574756203792	24.314761958214
10	1052	2275.84504442588	10.265504652122
10	1059	2285.477251719249	4.60235838997
10	1062	2301.670648687486	11.474887349497
10	1075	2312.032193062879	3.994644058486
10	1078	2316.217930165783	8.132187880278
10	1085	2331.003337111307	22.116112584459
10	1086	2332.557206543637	7.752365557002
10	1098	2346.656765690984	13.014059252558
10	1101	2347.160449206896	10.801993284599
10	1106	2356.676336911759	18.658658123825
10	1113	2366.144830841556	26.464026212598
10	1118	2381.137313737764	34.166400942284
10	1119	2381.506522320528	29.17701149666
10	1124	2390.756926097135	30.396380429133
10	1125	2393.08662466557	11.151947712818
10	1151	2440.07649203321	28.412421738384
10	1154	2445.579131637788	29.074822541963
10	1157	2449.235625269137	31.915726042571
10	1160	2452.248337961281	30.389256888249
10	1169	2464.311716878061	31.228067771261
10	1176	2476.055466387792	33.31846406008
11	1187	2500	0.0912
12	1187	2500	0.0576

