file 63770 1678560109                                           
version 2
run experiments_hard_game_mode1-698-20230311-19:41:49-8193
attr configname experiments_hard_game_mode1
attr datetime 20230311-19:41:49
attr experiment experiments_hard_game_mode1
attr inifile omnetpp.ini
attr iterationvars "$0=8.5, $1=4, $2=100"
attr iterationvarsf 8.5,4,100-
attr measurement "$0=8.5, $1=4, $2=100"
attr network Network
attr processid 8193
attr repetition 8
attr replication #8
attr resultdir results
attr runnumber 698
attr seedset 8
param *.boss.arrival_mean 20
param *.boss.service_mean 8.5
param *.minion.arrival_mean 10
param *.minion.service_mean 4
param *.player.recover_rate_x 100
param **.minion.arrival_distribution 0
param **.minion.service_distribution 0
param **.boss.arrival_distribution 0
param **.boss.service_distribution 0

vector 0 Network.player minion_jobs_number_stat:vector ETV
attr source signal_minion_jobs_number
vector 1 Network.player minion_jobs_queue_number_stat:vector ETV
attr source signal_minion_jobs_queue_number
vector 2 Network.player boss_defeated_stat:vector ETV
attr source signal_boss_defeated
vector 3 Network.player boss_jobs_queue_number_stat:vector ETV
attr source signal_boss_jobs_queue_number
vector 4 Network.player boss_response_time_stat:vector ETV
attr source signal_boss_response_time
vector 5 Network.player boss_waiting_time_stat:vector ETV
attr source signal_boss_waiting_time
vector 6 Network.player minion_waiting_time_stat:vector ETV
attr source signal_minion_waiting_time
vector 7 Network.player minion_defeated_stat:vector ETV
attr source signal_minion_defeated
vector 8 Network.player minion_response_time_stat:vector ETV
attr source signal_minion_response_time
vector 9 Network.player boss_jobs_number_stat:vector ETV
attr source signal_boss_jobs_number
vector 10 Network.player minion_recovered_stat:vector ETV
attr source signal_minion_recovered
vector 11 Network.player minion_throughput:vector ETV
attr source signal_minion_throughput
vector 12 Network.player boss_throughput:vector ETV
attr source signal_boss_throughput
0	2016 5716 161 1125 355.039202252463 2499.949391704458 220 1 23 1548 16528
1	7732 11523 161 1125 355.039202252463 2499.949391704458 445 0 22 2706 27814
2	19255 2728 162 1121 360.171827292976 2497.387085430074 101 22 122 7272 609434
3	21983 5183 162 1123 360.171827292976 2498.862924785266 201 0 5 217 701
4	27166 3968 162 1121 360.171827292976 2497.387085430074 101 0.279655030263 63.646979381063 1966.8043976469 66567.276328254
5	31134 3228 162 1123 360.171827292976 2498.862924785266 101 0 52.670252401629 986.71205131184 30976.822661286
6	34362 10445 163 1121 360.570343424175 2497.387085430074 273 0 147.47606754898 13490.280296504 1077645.1269213
7	44807 6146 164 1109 360.901946726472 2457.484674453717 225 23 247 30375 5049825
8	50953 8865 164 1109 360.901946726472 2457.484674453717 225 0.338824440101 151.13659800339 11904.749346203 968613.39468835
9	59818 2579 171 1123 375.391315048882 2498.862924785266 100 1 6 208 666
10	62397 1332 171 1123 375.391315048882 2498.862924785266 48 10 57 1608 63080
11	63729 20 1126 1126 2500 2500 1 0.0988 0.0988 0.0988 0.00976144
12	63749 20 1126 1126 2500 2500 1 0.0488 0.0488 0.0488 0.00238144

