version 2
run experiments_hard_game_mode1-432-20230311-19:40:53-6835
attr configname experiments_hard_game_mode1
attr datetime 20230311-19:40:53
attr experiment experiments_hard_game_mode1
attr inifile omnetpp.ini
attr iterationvars "$0=8, $1=5, $2=0"
attr iterationvarsf 8,5,0-
attr measurement "$0=8, $1=5, $2=0"
attr network Network
attr processid 6835
attr repetition 12
attr replication #12
attr resultdir results
attr runnumber 432
attr seedset 12
param *.boss.arrival_mean 20
param *.boss.service_mean 8
param *.minion.arrival_mean 10
param *.minion.service_mean 5
param *.player.recover_rate_x 0
param **.minion.arrival_distribution 0
param **.minion.service_distribution 0
param **.boss.arrival_distribution 0
param **.boss.service_distribution 0

vector 0 Network.player minion_defeated_stat:vector ETV
attr source signal_minion_defeated
vector 1 Network.player minion_jobs_queue_number_stat:vector ETV
attr source signal_minion_jobs_queue_number
vector 2 Network.player minion_response_time_stat:vector ETV
attr source signal_minion_response_time
vector 3 Network.player boss_jobs_number_stat:vector ETV
attr source signal_boss_jobs_number
vector 4 Network.player boss_jobs_queue_number_stat:vector ETV
attr source signal_boss_jobs_queue_number
vector 5 Network.player boss_waiting_time_stat:vector ETV
attr source signal_boss_waiting_time
vector 6 Network.player minion_jobs_number_stat:vector ETV
attr source signal_minion_jobs_number
vector 7 Network.player boss_defeated_stat:vector ETV
attr source signal_boss_defeated
vector 8 Network.player boss_response_time_stat:vector ETV
attr source signal_boss_response_time
vector 9 Network.player minion_waiting_time_stat:vector ETV
attr source signal_minion_waiting_time
vector 10 Network.player minion_recovered_stat:vector ETV
attr source signal_minion_recovered
vector 11 Network.player minion_throughput:vector ETV
attr source signal_minion_throughput
vector 12 Network.player boss_throughput:vector ETV
attr source signal_boss_throughput
0	159	350.750113413833	37
0	200	399.748370804003	38
0	208	408.447984701007	39
0	209	411.87019227024	40
0	212	418.018506496784	41
0	219	440.649465635252	42
0	222	454.975509658046	43
0	225	458.379673540275	44
0	228	463.041560226465	45
0	231	478.111847747371	46
0	236	489.889868366642	47
0	237	492.084155400441	48
0	241	507.062836567781	49
0	242	509.484630006604	50
0	243	510.907107589058	51
0	252	522.756054306076	52
0	253	523.515143525551	53
0	256	524.966430501002	54
0	257	526.99012172034	55
0	258	528.794400388882	56
0	259	529.934215481635	57
0	260	530.170697945311	58
0	261	530.566171685439	59
0	264	541.884323401126	60
0	267	543.332697287123	61
0	268	544.478356403805	62
0	273	556.553519890391	63
0	288	582.741309241321	64
0	289	583.609874217378	65
0	292	588.6793153762	66
0	299	597.420269284592	67
0	300	605.472325781426	68
0	316	648.390528653408	69
0	320	655.933896139734	70
0	326	668.047195087455	71
0	330	672.642565652987	72
0	335	677.841403853221	73
0	340	683.320834631868	74
0	343	692.531075358371	75
0	344	704.806849181466	76
0	353	730.081685100552	77
0	354	732.578273743472	78
0	368	768.222335172433	79
0	369	770.591685887042	80
0	382	803.299953412489	81
0	383	806.238396284317	82
0	384	809.51141231153	83
0	389	816.898113078665	84
0	390	817.364690243575	85
0	391	819.607371490997	86
0	392	820.308087078943	87
0	395	821.219339660718	88
0	401	828.718950144028	89
0	412	847.296561842272	90
0	413	851.212640476129	91
0	414	852.912367122587	92
0	421	875.145919236995	93
0	422	878.545682118404	94
0	423	887.212226582274	95
0	436	909.605774662376	96
0	437	915.202718433906	97
0	438	915.236187582496	98
0	439	916.447812797249	99
0	440	916.997265243496	100
0	451	933.826021740082	101
0	452	937.815102506197	102
0	472	959.709337786688	103
0	473	961.636692900387	104
0	474	963.42496674432	105
0	475	974.050580423244	106
0	476	974.189796439475	107
0	497	1026.285481014538	108
0	498	1026.761347817433	109
0	505	1041.46810420041	110
0	510	1047.821444908219	111
0	516	1059.408664808308	112
0	517	1059.634337270113	113
0	518	1064.216025235333	114
0	521	1073.112020624022	115
0	524	1080.615245267415	116
0	525	1080.666343317769	117
0	530	1090.732696139481	118
0	533	1096.510285115602	119
0	534	1100.199471870552	120
0	543	1142.151138998406	121
0	546	1162.569800990606	122
0	549	1178.80046200555	123
0	565	1216.505843728043	124
0	566	1218.092366260525	125
0	567	1230.567295389462	126
0	581	1244.366050061488	127
0	582	1245.948784911253	128
0	613	1306.16213795541	129
0	614	1310.67290623674	130
0	617	1321.492126187362	131
0	618	1325.190773155928	132
0	619	1327.509711393634	133
0	620	1328.254117331075	134
0	638	1370.665464633463	135
0	639	1375.255545093212	136
0	650	1400.307362912513	137
0	651	1400.407010443679	138
0	680	1454.121240777312	139
0	685	1459.599953015443	140
0	686	1467.76707836067	141
0	689	1479.657831542552	142
0	690	1486.823854595605	143
0	712	1530.3720379772	144
0	713	1530.707148455759	145
0	714	1531.047387274316	146
0	719	1541.730143866496	147
0	725	1547.667375724611	148
0	726	1548.927752623137	149
0	729	1555.139875148626	150
0	732	1557.799717618755	151
0	733	1559.100164974328	152
0	740	1570.605699080552	153
0	741	1570.677838169079	154
0	742	1574.456049034716	155
0	743	1578.359754300723	156
0	744	1578.386309462314	157
0	745	1579.066691051103	158
0	746	1579.395619013797	159
0	747	1587.55191740099	160
0	748	1591.559151188881	161
0	749	1595.736788515931	162
0	774	1654.071687190549	163
0	777	1654.759506182936	164
0	782	1660.637069549492	165
0	783	1661.067790858459	166
0	784	1662.517211997484	167
0	785	1669.961497178747	168
0	788	1676.731990740955	169
0	789	1676.946929252806	170
0	790	1677.269567729893	171
0	791	1677.642849548329	172
0	792	1686.654847211886	173
0	795	1692.138052172293	174
0	796	1695.75688798667	175
0	797	1697.223286105112	176
0	798	1701.763254617378	177
0	799	1704.790157796395	178
0	800	1706.499867256006	179
0	803	1708.553201247899	180
0	804	1712.111078099467	181
0	805	1720.18532383294	182
0	810	1734.508019304684	183
0	818	1740.412523396257	184
0	821	1743.528180916318	185
0	826	1754.884442246181	186
0	827	1758.078020876732	187
0	828	1763.533282078667	188
0	832	1791.901792927623	189
0	833	1795.269908217276	190
0	834	1795.75448894189	191
0	837	1800.420054095498	192
0	838	1801.828877674742	193
0	839	1802.310788785812	194
0	840	1802.366717872292	195
0	843	1804.829510174133	196
0	846	1819.423917352499	197
0	860	1856.466839757534	198
0	861	1858.693744374301	199
0	864	1866.265679686282	200
0	877	1898.664507149725	201
0	882	1903.495587351827	202
0	883	1911.802995242959	203
0	884	1918.340006646747	204
0	885	1920.754997542525	205
0	893	1942.710822373662	206
0	894	1945.127007357404	207
0	897	1946.040383615378	208
0	900	1961.774848828415	209
0	912	1980.414810469194	210
0	919	1989.44883853019	211
0	920	1992.827893289844	212
0	932	2013.673855048253	213
0	944	2029.091955385235	214
0	945	2032.470281847027	215
0	946	2034.126662325808	216
0	947	2039.840138304135	217
0	952	2054.828792236298	218
0	953	2058.895386536929	219
0	956	2063.48297791258	220
0	970	2089.256240954155	221
0	971	2096.081188109545	222
0	977	2106.78285698283	223
0	981	2115.092657266414	224
0	982	2120.062052886223	225
0	983	2121.854844537854	226
0	987	2134.369534978214	227
0	998	2160.162859843158	228
0	1014	2183.455509083635	229
0	1021	2195.453979401253	230
0	1022	2195.751831053092	231
0	1023	2201.055624267311	232
0	1024	2205.207526723835	233
0	1025	2205.333783043838	234
0	1026	2207.425622340464	235
0	1041	2234.10045399543	236
0	1042	2235.204603433921	237
0	1043	2236.449552132084	238
0	1044	2240.135708084041	239
0	1045	2242.531659735069	240
0	1046	2245.172567972838	241
0	1047	2248.615659297824	242
0	1055	2294.388514827045	243
0	1064	2306.747465173604	244
0	1065	2307.789310375978	245
0	1066	2313.092418249265	246
0	1070	2322.61732564418	247
0	1073	2334.688577757329	248
0	1076	2341.377694486198	249
0	1077	2344.246375662388	250
0	1082	2362.952302187054	251
0	1083	2363.508222401503	252
0	1116	2448.535386135413	253
0	1117	2451.600241131405	254
0	1118	2459.975376046963	255
0	1119	2460.481892057332	256
0	1124	2465.473057073503	257
0	1125	2475.647997553138	258
0	1126	2476.349124211826	259
0	1127	2477.271825873251	260
0	1128	2477.602296748111	261
0	1129	2480.135593169326	262
0	1130	2484.398799315376	263
0	1133	2491.578113878553	264
0	1134	2493.585782577692	265
0	1137	2495.506161708432	266
0	1140	2499.763468939649	267
1	159	350.750113413833	0
1	163	356.275138873474	0
1	168	361.531743559315	1
1	170	367.553763951342	2
1	174	368.970575265093	3
1	178	379.927922828233	4
1	180	380.306087155442	5
1	184	382.080972587445	6
1	186	382.936418932786	7
1	188	387.510257431181	8
1	192	389.911119545815	9
1	196	393.455530514951	10
1	200	399.748370804003	10
1	204	401.335149171264	10
1	206	401.485334148296	11
1	208	408.447984701007	11
1	209	411.87019227024	10
1	211	412.129365972685	10
1	212	418.018506496784	10
1	219	440.649465635252	9
1	221	446.532072824088	9
1	222	454.975509658046	9
1	224	455.418534664674	9
1	225	458.379673540275	9
1	227	459.485586021208	9
1	228	463.041560226465	9
1	230	468.041860974414	9
1	231	478.111847747371	9
1	233	480.239443259427	9
1	235	484.314394665896	10
1	236	489.889868366642	10
1	237	492.084155400441	9
1	241	507.062836567781	8
1	242	509.484630006604	7
1	243	510.907107589058	6
1	245	511.606946428544	6
1	247	516.396541660431	7
1	249	517.029377089414	8
1	251	522.165015742967	9
1	252	522.756054306076	9
1	253	523.515143525551	8
1	255	523.706183755885	8
1	256	524.966430501002	8
1	257	526.99012172034	7
1	258	528.794400388882	6
1	259	529.934215481635	5
1	260	530.170697945311	4
1	261	530.566171685439	3
1	263	535.079449780043	3
1	264	541.884323401126	3
1	266	542.924549707891	3
1	267	543.332697287123	3
1	268	544.478356403805	2
1	270	544.504856593887	2
1	272	545.10126394541	3
1	273	556.553519890391	3
1	275	560.650013804625	3
1	279	571.503968412171	4
1	281	571.885422676681	5
1	287	576.531670043592	6
1	288	582.741309241321	6
1	289	583.609874217378	5
1	291	586.041278199781	5
1	292	588.6793153762	5
1	294	591.842793986612	5
1	296	593.492340352836	6
1	298	593.822627101554	7
1	299	597.420269284592	7
1	300	605.472325781426	6
1	302	608.601332355442	6
1	310	642.500478591344	7
1	315	645.553767806205	8
1	316	648.390528653408	8
1	320	655.933896139734	7
1	324	658.72291101783	7
1	326	668.047195087455	7
1	330	672.642565652987	6
1	332	673.50565802358	6
1	334	674.664452820824	7
1	335	677.841403853221	7
1	337	678.053537741583	7
1	339	679.276270559373	8
1	340	683.320834631868	8
1	342	689.822589290019	8
1	343	692.531075358371	8
1	344	704.806849181466	7
1	352	722.812043553386	7
1	353	730.081685100552	7
1	354	732.578273743472	6
1	361	752.887833589075	6
1	366	754.865825694057	7
1	368	768.222335172433	7
1	369	770.591685887042	6
1	373	779.934200981398	6
1	376	786.323076486688	7
1	378	788.123718112885	8
1	382	803.299953412489	8
1	383	806.238396284317	7
1	384	809.51141231153	6
1	386	811.826066980366	6
1	388	815.947848581462	7
1	389	816.898113078665	7
1	390	817.364690243575	6
1	391	819.607371490997	5
1	392	820.308087078943	4
1	394	820.44480297725	4
1	395	821.219339660718	4
1	397	821.388645718781	4
1	401	828.718950144028	4
1	403	828.891794095329	4
1	407	840.695604552115	5
1	412	847.296561842272	5
1	413	851.212640476129	4
1	414	852.912367122587	3
1	416	857.256330799712	3
1	418	868.648008226734	4
1	420	870.702630473908	5
1	421	875.145919236995	5
1	422	878.545682118404	4
1	423	887.212226582274	3
1	425	894.689810098196	3
1	431	903.133171413273	4
1	435	906.787099258618	5
1	436	909.605774662376	5
1	437	915.202718433906	4
1	438	915.236187582496	3
1	439	916.447812797249	2
1	440	916.997265243496	1
1	446	924.958018129097	1
1	448	926.96826182913	2
1	451	933.826021740082	2
1	452	937.815102506197	1
1	454	938.47093182519	1
1	456	938.824901339621	2
1	464	946.970759347724	3
1	468	951.594273986105	4
1	470	958.366921324126	5
1	472	959.709337786688	5
1	473	961.636692900387	4
1	474	963.42496674432	3
1	475	974.050580423244	2
1	476	974.189796439475	1
1	485	991.294130417434	1
1	491	1007.904452093689	2
1	493	1016.561505806223	3
1	496	1023.68614644825	4
1	497	1026.285481014538	4
1	498	1026.761347817433	3
1	505	1041.46810420041	2
1	507	1045.719007057478	2
1	509	1046.141772985728	3
1	510	1047.821444908219	3
1	514	1053.433658907636	3
1	516	1059.408664808308	3
1	517	1059.634337270113	2
1	518	1064.216025235333	1
1	520	1067.124123066431	1
1	521	1073.112020624022	1
1	523	1080.147366110922	1
1	524	1080.615245267415	1
1	525	1080.666343317769	0
1	527	1085.663846851348	0
1	529	1090.489287960552	1
1	530	1090.732696139481	1
1	532	1092.101482329185	1
1	533	1096.510285115602	1
1	534	1100.199471870552	0
1	541	1140.083382758178	0
1	543	1142.151138998406	0
1	545	1160.613482617548	0
1	546	1162.569800990606	0
1	548	1165.599748141268	0
1	549	1178.80046200555	0
1	555	1184.832306587143	0
1	557	1186.37157715356	1
1	563	1211.343419140701	2
1	565	1216.505843728043	2
1	566	1218.092366260525	1
1	567	1230.567295389462	0
1	569	1235.09717362252	0
1	571	1236.164658714414	1
1	573	1236.791656967319	2
1	578	1240.13416520579	3
1	580	1241.095342600622	4
1	581	1244.366050061488	4
1	582	1245.948784911253	3
1	584	1255.132693136419	3
1	586	1261.420735924344	4
1	590	1265.523657481921	5
1	592	1265.53163369834	6
1	596	1269.672344984342	7
1	603	1281.365090834462	8
1	608	1299.931884046393	9
1	610	1304.724605843547	10
1	612	1305.322714708422	11
1	613	1306.16213795541	11
1	614	1310.67290623674	10
1	616	1317.789257898108	10
1	617	1321.492126187362	10
1	618	1325.190773155928	9
1	619	1327.509711393634	8
1	620	1328.254117331075	7
1	622	1330.070538396107	7
1	627	1339.403950450485	8
1	629	1341.489957657103	9
1	636	1367.584745697833	10
1	638	1370.665464633463	10
1	639	1375.255545093212	9
1	643	1380.920423930158	9
1	645	1381.753183424919	10
1	650	1400.307362912513	10
1	651	1400.407010443679	9
1	653	1402.299300518417	9
1	657	1411.883606823326	10
1	659	1412.663953516089	11
1	661	1421.810878278908	12
1	663	1422.579160929986	13
1	668	1426.932312804626	14
1	674	1446.708472722902	15
1	679	1450.82885761971	16
1	680	1454.121240777312	16
1	682	1455.574463608922	16
1	684	1455.730999947189	17
1	685	1459.599953015443	17
1	686	1467.76707836067	16
1	688	1471.269624064226	16
1	689	1479.657831542552	16
1	690	1486.823854595605	15
1	692	1489.047028911997	15
1	698	1501.003251163954	16
1	701	1514.643396132198	17
1	703	1515.115288514532	18
1	705	1519.425740557147	19
1	709	1524.898422388147	20
1	712	1530.3720379772	20
1	713	1530.707148455759	19
1	714	1531.047387274316	18
1	716	1531.528094648684	18
1	718	1535.210731051848	19
1	719	1541.730143866496	19
1	721	1543.742296043003	19
1	725	1547.667375724611	19
1	726	1548.927752623137	18
1	728	1554.127229392814	18
1	729	1555.139875148626	18
1	731	1557.389591053862	18
1	732	1557.799717618755	18
1	733	1559.100164974328	17
1	735	1559.510693161534	17
1	737	1562.792788404847	18
1	739	1567.742571124257	19
1	740	1570.605699080552	19
1	741	1570.677838169079	18
1	742	1574.456049034716	17
1	743	1578.359754300723	16
1	744	1578.386309462314	15
1	745	1579.066691051103	14
1	746	1579.395619013797	13
1	747	1587.55191740099	12
1	748	1591.559151188881	11
1	749	1595.736788515931	10
1	753	1609.196141096314	10
1	755	1610.986066775387	11
1	757	1616.904226737302	12
1	759	1623.299458895717	13
1	761	1623.989388436137	14
1	763	1626.095454983176	15
1	766	1630.575454856278	16
1	770	1649.186861691882	17
1	772	1649.593474439688	18
1	774	1654.071687190549	18
1	776	1654.678995133334	18
1	777	1654.759506182936	18
1	779	1654.924764420721	18
1	781	1660.428087577648	19
1	782	1660.637069549492	19
1	783	1661.067790858459	18
1	784	1662.517211997484	17
1	785	1669.961497178747	16
1	787	1676.477283815076	16
1	788	1676.731990740955	16
1	789	1676.946929252806	15
1	790	1677.269567729893	14
1	791	1677.642849548329	13
1	792	1686.654847211886	12
1	794	1690.768281401143	12
1	795	1692.138052172293	12
1	796	1695.75688798667	11
1	797	1697.223286105112	10
1	798	1701.763254617378	9
1	799	1704.790157796395	8
1	800	1706.499867256006	7
1	802	1707.193064526369	7
1	803	1708.553201247899	7
1	804	1712.111078099467	6
1	805	1720.18532383294	5
1	807	1726.215648249001	5
1	809	1729.345563490037	6
1	810	1734.508019304684	6
1	815	1737.490455389247	6
1	817	1740.254922656132	7
1	818	1740.412523396257	7
1	820	1741.252134770375	7
1	821	1743.528180916318	7
1	823	1744.241500984743	7
1	825	1752.815041703053	8
1	826	1754.884442246181	8
1	827	1758.078020876732	7
1	828	1763.533282078667	6
1	832	1791.901792927623	5
1	833	1795.269908217276	4
1	834	1795.75448894189	3
1	836	1797.208591200755	3
1	837	1800.420054095498	3
1	838	1801.828877674742	2
1	839	1802.310788785812	1
1	840	1802.366717872292	0
1	842	1804.485709461222	0
1	843	1804.829510174133	0
1	845	1817.024796108276	0
1	846	1819.423917352499	0
1	850	1822.667217348664	0
1	852	1832.014805444614	1
1	860	1856.466839757534	1
1	861	1858.693744374301	0
1	863	1863.728023762385	0
1	864	1866.265679686282	0
1	868	1890.325002330053	0
1	873	1892.911421496219	1
1	876	1897.909856720685	2
1	877	1898.664507149725	2
1	879	1900.228729364245	2
1	881	1902.394972575954	3
1	882	1903.495587351827	3
1	883	1911.802995242959	2
1	884	1918.340006646747	1
1	885	1920.754997542525	0
1	889	1923.105917349807	0
1	891	1936.930188235271	1
1	893	1942.710822373662	1
1	894	1945.127007357404	0
1	896	1945.527027404059	0
1	897	1946.040383615378	0
1	899	1951.529515973467	0
1	900	1961.774848828415	0
1	905	1978.121877551877	0
1	907	1979.34124746618	1
1	909	1979.762433639967	2
1	911	1980.054325816748	3
1	912	1980.414810469194	3
1	914	1980.804055573983	3
1	916	1984.075517845662	4
1	918	1987.134381859309	5
1	919	1989.44883853019	5
1	920	1992.827893289844	4
1	925	2004.51657132158	4
1	932	2013.673855048253	4
1	936	2016.414489280249	4
1	938	2019.355225779663	5
1	941	2021.296189842671	6
1	943	2027.04262790873	7
1	944	2029.091955385235	7
1	945	2032.470281847027	6
1	946	2034.126662325808	5
1	947	2039.840138304135	4
1	949	2046.560566042738	4
1	951	2049.309392990112	5
1	952	2054.828792236298	5
1	953	2058.895386536929	4
1	955	2061.485768394387	4
1	956	2063.48297791258	4
1	960	2066.837198190048	4
1	965	2079.137475032824	5
1	970	2089.256240954155	5
1	971	2096.081188109545	4
1	975	2104.013738594891	4
1	977	2106.78285698283	4
1	981	2115.092657266414	3
1	982	2120.062052886223	2
1	983	2121.854844537854	1
1	987	2134.369534978214	0
1	994	2153.081210459794	0
1	997	2156.356740043825	1
1	998	2160.162859843158	1
1	1002	2173.045091011533	1
1	1004	2173.616005250678	2
1	1006	2175.034293339372	3
1	1008	2177.084121156678	4
1	1011	2180.5173811797	5
1	1013	2181.868862810189	6
1	1014	2183.455509083635	6
1	1016	2189.076723022662	6
1	1018	2190.77130714992	7
1	1020	2192.37424995934	8
1	1021	2195.453979401253	8
1	1022	2195.751831053092	7
1	1023	2201.055624267311	6
1	1024	2205.207526723835	5
1	1025	2205.333783043838	4
1	1026	2207.425622340464	3
1	1032	2219.717478738328	3
1	1034	2221.871233968395	4
1	1037	2230.071724645932	5
1	1039	2230.935555957897	6
1	1041	2234.10045399543	6
1	1042	2235.204603433921	5
1	1043	2236.449552132084	4
1	1044	2240.135708084041	3
1	1045	2242.531659735069	2
1	1046	2245.172567972838	1
1	1047	2248.615659297824	0
1	1051	2282.93439780404	0
1	1053	2285.416402302551	1
1	1055	2294.388514827045	1
1	1057	2298.293892914577	1
1	1059	2299.2747170942	2
1	1061	2303.439979488083	3
1	1063	2305.47910729848	4
1	1064	2306.747465173604	4
1	1065	2307.789310375978	3
1	1066	2313.092418249265	2
1	1070	2322.61732564418	1
1	1072	2332.303734596903	1
1	1073	2334.688577757329	1
1	1075	2334.907025363425	1
1	1076	2341.377694486198	1
1	1077	2344.246375662388	0
1	1079	2357.875581853046	0
1	1081	2359.875021229818	1
1	1082	2362.952302187054	1
1	1083	2363.508222401503	0
1	1085	2395.018293745815	0
1	1089	2396.55827791462	1
1	1093	2404.75453472669	2
1	1101	2426.276812347666	3
1	1103	2430.731895255457	4
1	1106	2436.181161132906	5
1	1109	2441.666214032224	6
1	1111	2442.032794299837	7
1	1113	2443.172972015987	8
1	1115	2444.959135336682	9
1	1116	2448.535386135413	9
1	1117	2451.600241131405	8
1	1118	2459.975376046963	7
1	1119	2460.481892057332	6
1	1121	2462.964472082763	6
1	1123	2463.231614912147	7
1	1124	2465.473057073503	7
1	1125	2475.647997553138	6
1	1126	2476.349124211826	5
1	1127	2477.271825873251	4
1	1128	2477.602296748111	3
1	1129	2480.135593169326	2
1	1130	2484.398799315376	1
1	1132	2487.671983780769	1
1	1133	2491.578113878553	1
1	1134	2493.585782577692	0
1	1136	2494.931331030283	0
1	1137	2495.506161708432	0
1	1139	2498.796688845567	0
1	1140	2499.763468939649	0
2	159	350.750113413833	1.711310018127
2	200	399.748370804003	38.216627244688
2	208	408.447984701007	39.477409435914
2	209	411.87019227024	31.942269442007
2	212	418.018506496784	37.712419341342
2	219	440.649465635252	58.568493047807
2	222	454.975509658046	72.03909072526
2	225	458.379673540275	70.869416109094
2	228	463.041560226465	73.13044068065
2	231	478.111847747371	84.65631723242
2	236	489.889868366642	89.462692365595
2	237	492.084155400441	90.749006229177
2	241	507.062836567781	94.933470595096
2	242	509.484630006604	90.993751249436
2	243	510.907107589058	64.37503476497
2	252	522.756054306076	67.337519641402
2	253	523.515143525551	64.029557504343
2	256	524.966430501002	56.924569526588
2	257	526.99012172034	46.750678460913
2	258	528.794400388882	44.480005722986
2	259	529.934215481635	31.76777948796
2	260	530.170697945311	18.563751516767
2	261	530.566171685439	14.169630025008
2	264	541.884323401126	24.854946311712
2	267	543.332697287123	21.167681544156
2	268	544.478356403805	20.77217264792
2	273	556.553519890391	21.474070110348
2	288	582.741309241321	38.236452647434
2	289	583.609874217378	38.508610271968
2	292	588.6793153762	28.029301571575
2	299	597.420269284592	27.262314113384
2	300	605.472325781426	33.968357369255
2	316	648.390528653408	56.547734666796
2	320	655.933896139734	62.11126903818
2	326	668.047195087455	48.056325259791
2	330	672.642565652987	30.142087061643
2	335	677.841403853221	34.471745526854
2	340	683.320834631868	37.767066825663
2	343	692.531075358371	43.697822841257
2	344	704.806849181466	48.447971721683
2	353	730.081685100552	59.184109393972
2	354	732.578273743472	59.072615719892
2	368	768.222335172433	88.94606461306
2	369	770.591685887042	80.769096597023
2	382	803.299953412489	65.187924250143
2	383	806.238396284317	61.977955800559
2	384	809.51141231153	56.623578722455
2	389	816.898113078665	62.032287384608
2	390	817.364690243575	40.926382236002
2	391	819.607371490997	39.673170509599
2	392	820.308087078943	33.985010592255
2	395	821.219339660718	33.095621547833
2	401	828.718950144028	16.892883163662
2	412	847.296561842272	26.851758865022
2	413	851.212640476129	29.823994757348
2	414	852.912367122587	31.178096580165
2	421	875.145919236995	46.254125141666
2	422	878.545682118404	41.960313841404
2	423	887.212226582274	46.516622030159
2	436	909.605774662376	40.957766435642
2	437	915.202718433906	44.500087959998
2	438	915.236187582496	20.5463774843
2	439	916.447812797249	18.176076752165
2	440	916.997265243496	13.864093830223
2	451	933.826021740082	16.203021624465
2	452	937.815102506197	12.8570843771
2	472	959.709337786688	21.238405961498
2	473	961.636692900387	22.811791560766
2	474	963.42496674432	20.079778171959
2	475	974.050580423244	27.07982107552
2	476	974.189796439475	22.59552245337
2	497	1026.285481014538	50.421275222017
2	498	1026.761347817433	35.467217399999
2	505	1041.46810420041	24.906598394187
2	510	1047.821444908219	24.135298459969
2	516	1059.408664808308	13.68965775083
2	517	1059.634337270113	13.492564284385
2	518	1064.216025235333	13.706519613922
2	521	1073.112020624022	19.678361716386
2	524	1080.615245267415	13.491122200984
2	525	1080.666343317769	0.518977206847
2	530	1090.732696139481	5.068849288133
2	533	1096.510285115602	6.02099715505
2	534	1100.199471870552	8.097989541367
2	543	1142.151138998406	2.067756240228
2	546	1162.569800990606	1.956318373058
2	549	1178.80046200555	13.200713864282
2	565	1216.505843728043	30.134266574483
2	566	1218.092366260525	10.171294951874
2	567	1230.567295389462	19.223876248761
2	581	1244.366050061488	8.201391347074
2	582	1245.948784911253	9.157127943934
2	613	1306.16213795541	66.02797274962
2	614	1310.67290623674	69.577563636118
2	617	1321.492126187362	66.359433050943
2	618	1325.190773155928	63.770037231584
2	619	1327.509711393634	63.530560836449
2	620	1328.254117331075	62.730459849154
2	638	1370.665464633463	70.73358058707
2	639	1375.255545093212	70.530939249665
2	650	1400.307362912513	70.236824516406
2	651	1400.407010443679	65.625206214624
2	680	1454.121240777312	101.2540018652
2	685	1459.599953015443	92.01520731761
2	686	1467.76707836067	92.457492856265
2	689	1479.657831542552	98.737407612394
2	690	1486.823854595605	105.07067117069
2	712	1530.3720379772	128.07273745878
2	713	1530.707148455759	125.92972193967
2	714	1531.047387274316	119.16378045099
2	719	1541.730143866496	129.06619035041
2	725	1547.667375724611	125.08821479463
2	726	1548.927752623137	123.15869061163
2	729	1555.139875148626	128.207562344
2	732	1557.799717618755	111.09124489585
2	733	1559.100164974328	110.45194547185
2	740	1570.605699080552	119.77684146084
2	741	1570.677838169079	115.10337456016
2	742	1574.456049034716	118.72504908753
2	743	1578.359754300723	107.0901302365
2	744	1578.386309462314	89.339280550317
2	745	1579.066691051103	87.051669286581
2	746	1579.395619013797	78.392367849843
2	747	1587.55191740099	72.908521268792
2	748	1591.559151188881	76.443862674349
2	749	1595.736788515931	76.311047958784
2	774	1654.071687190549	118.8609561387
2	777	1654.759506182936	111.01721013993
2	782	1660.637069549492	114.3706381885
2	783	1661.067790858459	106.94056146565
2	784	1662.517211997484	105.12762094362
2	785	1669.961497178747	110.45080401721
2	788	1676.731990740955	113.93920233611
2	789	1676.946929252806	109.20435812855
2	790	1677.269567729893	78.930279691333
2	791	1677.642849548329	68.446708452015
2	792	1686.654847211886	75.668780436499
2	795	1692.138052172293	75.233825434991
2	796	1695.75688798667	72.457429090953
2	797	1697.223286105112	73.233897668975
2	798	1701.763254617378	75.667799634202
2	799	1704.790157796395	74.214702940117
2	800	1706.499867256006	66.076663182206
2	803	1708.553201247899	59.366339556017
2	804	1712.111078099467	62.517603659779
2	805	1720.18532383294	65.506328699606
2	810	1734.508019304684	79.583254883963
2	818	1740.412523396257	63.935239581181
2	821	1743.528180916318	52.759899515175
2	826	1754.884442246181	47.691377719812
2	827	1758.078020876732	31.862372627731
2	828	1763.533282078667	34.18771858863
2	832	1791.901792927623	54.411337538376
2	833	1795.269908217276	55.014985561144
2	834	1795.75448894189	54.502354171515
2	837	1800.420054095498	56.178553110755
2	838	1801.828877674742	49.013835971689
2	839	1802.310788785812	34.980269923618
2	840	1802.366717872292	5.158126671537
2	843	1804.829510174133	0.343800712911
2	846	1819.423917352499	2.399121244223
2	860	1856.466839757534	33.79962240887
2	861	1858.693744374301	26.678938929687
2	864	1866.265679686282	2.537655923897
2	877	1898.664507149725	7.446234333311
2	882	1903.495587351827	10.584165855608
2	883	1911.802995242959	13.893138522274
2	884	1918.340006646747	18.111277282502
2	885	1920.754997542525	18.360024966571
2	893	1942.710822373662	19.604905023855
2	894	1945.127007357404	8.196819122133
2	897	1946.040383615378	0.513356211319
2	900	1961.774848828415	10.245332854948
2	912	1980.414810469194	2.292932917317
2	919	1989.44883853019	10.10759106401
2	920	1992.827893289844	13.065459649877
2	932	2013.673855048253	26.539473188944
2	944	2029.091955385235	24.575384063655
2	945	2032.470281847027	27.0451985536
2	946	2034.126662325808	26.03427216543
2	947	2039.840138304135	24.889220410517
2	952	2054.828792236298	38.414302956049
2	953	2058.895386536929	39.540160757266
2	956	2063.48297791258	42.186788069909
2	970	2089.256240954155	39.946847964043
2	971	2096.081188109545	34.595419715158
2	977	2106.78285698283	39.945658792782
2	981	2115.092657266414	35.95518223359
2	982	2120.062052886223	16.715465307555
2	983	2121.854844537854	17.841105942963
2	987	2134.369534978214	9.324794936909
2	998	2160.162859843158	7.081649383364
2	1014	2183.455509083635	20.311995948394
2	1021	2195.453979401253	22.40888838972
2	1022	2195.751831053092	22.135825802414
2	1023	2201.055624267311	26.021330927939
2	1024	2205.207526723835	28.123405567157
2	1025	2205.333783043838	24.816401864138
2	1026	2207.425622340464	25.556759530275
2	1041	2234.10045399543	43.32914684551
2	1042	2235.204603433921	42.830353474581
2	1043	2236.449552132084	25.75215787948
2	1044	2240.135708084041	20.418229345713
2	1045	2242.531659735069	20.660425766674
2	1046	2245.172567972838	15.100843326906
2	1047	2248.615659297824	17.680103339927
2	1055	2294.388514827045	11.454117023005
2	1064	2306.747465173604	21.331062871053
2	1065	2307.789310375978	9.495417461401
2	1066	2313.092418249265	13.817701155065
2	1070	2322.61732564418	17.1382183457
2	1073	2334.688577757329	20.281975919027
2	1076	2341.377694486198	9.073959889295
2	1077	2344.246375662388	9.339350298963
2	1082	2362.952302187054	5.076720334008
2	1083	2363.508222401503	3.633201171685
2	1116	2448.535386135413	52.382635305556
2	1117	2451.600241131405	55.041963216785
2	1118	2459.975376046963	55.220841320273
2	1119	2460.481892057332	34.205079709666
2	1124	2465.473057073503	34.741161818046
2	1125	2475.647997553138	39.466836420232
2	1126	2476.349124211826	34.682910179602
2	1127	2477.271825873251	35.239031573414
2	1128	2477.602296748111	34.429324732124
2	1129	2480.135593169326	35.176457832644
2	1130	2484.398799315376	21.434327232613
2	1133	2491.578113878553	28.346498966406
2	1134	2493.585782577692	5.913798796923
2	1137	2495.506161708432	0.574830678149
2	1140	2499.763468939649	0.966780094082
3	161	353.492191333855	1
3	166	361.358890033519	1
3	172	368.78043457168	2
3	182	380.352000414881	1
3	190	388.861516406107	2
3	194	391.757141693541	3
3	202	400.427176001047	1
3	214	418.490878757168	1
3	216	421.634878531556	2
3	239	498.166435993675	1
3	277	570.157955171208	1
3	283	572.013697630046	2
3	304	619.990869827664	1
3	307	626.951996879465	1
3	312	643.369658326367	1
3	318	648.833252517114	1
3	322	656.358877459783	1
3	328	670.89757570658	1
3	346	714.718457972752	1
3	348	715.659682895607	2
3	356	738.112029162346	1
3	359	744.260440483758	1
3	363	754.18205261004	2
3	371	776.438308007573	1
3	380	790.590701076314	1
3	399	821.734270542422	1
3	405	836.585368277	1
3	409	845.649693670463	2
3	427	898.271736045084	1
3	429	900.679632703256	2
3	442	917.623000115617	1
3	444	921.272436396995	2
3	458	943.345188572361	1
3	460	943.713555040912	2
3	462	944.787028829265	3
3	478	975.864205792521	1
3	480	983.786107803526	2
3	483	990.276985011205	2
3	487	991.438078315617	3
3	500	1031.498604334519	1
3	502	1035.463420870607	2
3	512	1050.509505621411	1
3	536	1102.565256430476	1
3	539	1126.178327443082	1
3	551	1181.795656424566	1
3	553	1182.879317771439	2
3	561	1207.921071308651	1
3	575	1237.592404539237	1
3	588	1263.979150557185	1
3	594	1268.471674512885	2
3	599	1280.860231261121	2
3	601	1281.213159268324	3
3	624	1334.781804229055	1
3	631	1342.435565038599	1
3	634	1352.867238912116	1
3	641	1375.309585504405	1
3	648	1398.299642162285	1
3	655	1404.77742651609	1
3	666	1425.76906201151	1
3	670	1430.384050855711	2
3	676	1448.648219502481	1
3	694	1492.015021764522	1
3	696	1497.036609395997	2
3	707	1523.329877500482	2
3	723	1546.266431360994	1
3	751	1598.33928803856	1
3	768	1640.4232040738	1
3	812	1735.467369980249	1
3	830	1767.330518862194	1
3	848	1822.296353712127	1
3	854	1833.60911008917	2
3	856	1837.832209965198	3
3	866	1887.823250840407	1
3	871	1891.218272816414	1
3	887	1921.668223527153	1
3	902	1967.396434143435	1
3	922	1993.270757791483	1
3	927	2005.425083293427	1
3	930	2008.092390160378	1
3	934	2014.950917893618	1
3	958	2064.563262874183	1
3	963	2069.515851758278	1
3	967	2079.326869143163	2
3	973	2103.346587578668	1
3	979	2110.335738409846	1
3	985	2125.044740041305	1
3	989	2144.225125355446	1
3	992	2150.527057442777	1
3	1000	2163.143513135241	1
3	1028	2210.697394252604	1
3	1030	2216.593915740708	2
3	1049	2277.88009486364	1
3	1068	2314.406601838302	1
3	1087	2396.152750829857	1
3	1091	2400.088119842539	2
3	1095	2414.679708258506	3
3	1097	2419.832186906069	4
4	161	353.492191333855	0
4	164	360.624852924544	0
4	166	361.358890033519	0
4	172	368.78043457168	1
4	175	373.862420552585	1
4	176	379.214675634746	0
4	182	380.352000414881	0
4	190	388.861516406107	1
4	194	391.757141693541	2
4	197	394.911869929315	2
4	198	396.444480432054	1
4	199	397.877345565474	0
4	202	400.427176001047	0
4	207	402.396248124813	0
4	214	418.490878757168	0
4	216	421.634878531556	1
4	217	426.917654738831	1
4	218	435.24218785115	0
4	239	498.166435993675	0
4	240	504.332305973129	0
4	277	570.157955171208	0
4	283	572.013697630046	1
4	284	572.457613665873	1
4	285	573.46323135519	0
4	304	619.990869827664	0
4	305	624.215295011786	0
4	307	626.951996879465	0
4	308	634.508144074484	0
4	312	643.369658326367	0
4	313	643.7608762825	0
4	318	648.833252517114	0
4	319	650.235719122732	0
4	322	656.358877459783	0
4	325	659.486031261768	0
4	328	670.89757570658	0
4	329	672.605286247089	0
4	346	714.718457972752	0
4	348	715.659682895607	1
4	349	717.48322758809	1
4	350	718.990019404957	0
4	356	738.112029162346	0
4	357	742.828245828329	0
4	359	744.260440483758	0
4	363	754.18205261004	1
4	364	754.766979233062	1
4	367	755.264321586061	0
4	371	776.438308007573	0
4	374	781.473735864113	0
4	380	790.590701076314	0
4	381	801.830878652898	0
4	399	821.734270542422	0
4	400	826.015614375819	0
4	405	836.585368277	0
4	409	845.649693670463	1
4	410	847.021928239011	1
4	411	847.272264793066	0
4	427	898.271736045084	0
4	429	900.679632703256	1
4	432	904.926614745706	1
4	433	905.411025915921	0
4	442	917.623000115617	0
4	444	921.272436396995	1
4	449	927.640504396629	1
4	450	929.509849680839	0
4	458	943.345188572361	0
4	460	943.713555040912	1
4	462	944.787028829265	2
4	465	950.330197287088	2
4	466	950.479022316336	1
4	471	958.63312435906	0
4	478	975.864205792521	0
4	480	983.786107803526	1
4	481	985.581756591086	1
4	483	990.276985011205	1
4	487	991.438078315617	2
4	488	998.267478066846	2
4	489	1006.784098751368	1
4	494	1023.07457661575	0
4	500	1031.498604334519	0
4	502	1035.463420870607	1
4	503	1036.544623844487	1
4	504	1039.99078748336	0
4	512	1050.509505621411	0
4	515	1054.607755671615	0
4	536	1102.565256430476	0
4	537	1105.5094518681	0
4	539	1126.178327443082	0
4	542	1141.414021339516	0
4	551	1181.795656424566	0
4	553	1182.879317771439	1
4	558	1189.200809718254	1
4	559	1206.936309058869	0
4	561	1207.921071308651	0
4	564	1211.644680094491	0
4	575	1237.592404539237	0
4	576	1237.813931555112	0
4	588	1263.979150557185	0
4	594	1268.471674512885	1
4	597	1279.926708246016	1
4	599	1280.860231261121	1
4	601	1281.213159268324	2
4	604	1288.385528609449	2
4	605	1298.332601140745	1
4	606	1298.9962018288	0
4	624	1334.781804229055	0
4	625	1339.18148019762	0
4	631	1342.435565038599	0
4	632	1351.917564620554	0
4	634	1352.867238912116	0
4	637	1369.642150308832	0
4	641	1375.309585504405	0
4	646	1386.655064532836	0
4	648	1398.299642162285	0
4	649	1398.453946347833	0
4	655	1404.77742651609	0
4	664	1425.478378329917	0
4	666	1425.76906201151	0
4	670	1430.384050855711	1
4	671	1430.662678727821	1
4	672	1446.474390224532	0
4	676	1448.648219502481	0
4	677	1450.130318914426	0
4	694	1492.015021764522	0
4	696	1497.036609395997	1
4	699	1511.570516921471	1
4	707	1523.329877500482	1
4	710	1526.376212000211	1
4	711	1526.431130373061	0
4	723	1546.266431360994	0
4	724	1547.329708587016	0
4	751	1598.33928803856	0
4	764	1629.165114337312	0
4	768	1640.4232040738	0
4	773	1651.290164619468	0
4	812	1735.467369980249	0
4	813	1736.362235162108	0
4	830	1767.330518862194	0
4	831	1782.38054728871	0
4	848	1822.296353712127	0
4	854	1833.60911008917	1
4	856	1837.832209965198	2
4	857	1845.674501905315	2
4	858	1847.207519573388	1
4	859	1848.174950593309	0
4	866	1887.823250840407	0
4	869	1890.356436195204	0
4	871	1891.218272816414	0
4	874	1893.555839550042	0
4	887	1921.668223527153	0
4	892	1942.017647132113	0
4	902	1967.396434143435	0
4	903	1976.486341635816	0
4	922	1993.270757791483	0
4	923	2001.658991288065	0
4	927	2005.425083293427	0
4	928	2007.620153458192	0
4	930	2008.092390160378	0
4	931	2011.140656097265	0
4	934	2014.950917893618	0
4	939	2019.435531370298	0
4	958	2064.563262874183	0
4	961	2068.85292595096	0
4	963	2069.515851758278	0
4	967	2079.326869143163	1
4	968	2085.064408227709	1
4	969	2086.501429227379	0
4	973	2103.346587578668	0
4	976	2104.117960445639	0
4	979	2110.335738409846	0
4	980	2112.08505744984	0
4	985	2125.044740041305	0
4	986	2133.889693276935	0
4	989	2144.225125355446	0
4	990	2145.982223395524	0
4	992	2150.527057442777	0
4	995	2154.813709287955	0
4	1000	2163.143513135241	0
4	1009	2178.459427702901	0
4	1028	2210.697394252604	0
4	1030	2216.593915740708	1
4	1035	2222.850698971621	1
4	1040	2232.193743306225	0
4	1049	2277.88009486364	0
4	1054	2293.387274223699	0
4	1068	2314.406601838302	0
4	1069	2315.269008475146	0
4	1087	2396.152750829857	0
4	1091	2400.088119842539	1
4	1095	2414.679708258506	2
4	1097	2419.832186906069	3
4	1098	2421.530067762105	3
4	1099	2424.694894370774	2
4	1104	2433.981851414118	1
4	1107	2440.932922353714	0
5	161	353.492191333855	0
5	166	361.358890033519	0
5	175	373.862420552585	5.081985980905
5	182	380.352000414881	0
5	197	394.911869929315	6.050353523208
5	198	396.444480432054	4.687338738513
5	202	400.427176001047	0
5	214	418.490878757168	0
5	217	426.917654738831	5.282776207275
5	239	498.166435993675	0
5	277	570.157955171208	0
5	284	572.457613665873	0.443916035827
5	304	619.990869827664	0
5	307	626.951996879465	0
5	312	643.369658326367	0
5	318	648.833252517114	0
5	322	656.358877459783	0
5	328	670.89757570658	0
5	346	714.718457972752	0
5	349	717.48322758809	1.823544692483
5	356	738.112029162346	0
5	359	744.260440483758	0
5	364	754.766979233062	0.584926623022
5	371	776.438308007573	0
5	380	790.590701076314	0
5	399	821.734270542422	0
5	405	836.585368277	0
5	410	847.021928239011	1.372234568548
5	427	898.271736045084	0
5	432	904.926614745706	4.24698204245
5	442	917.623000115617	0
5	449	927.640504396629	6.368067999634
5	458	943.345188572361	0
5	465	950.330197287088	6.616642246176
5	466	950.479022316336	5.691993487071
5	478	975.864205792521	0
5	481	985.581756591086	1.79564878756
5	488	998.267478066846	7.990493055641
5	489	1006.784098751368	15.346020435751
5	500	1031.498604334519	0
5	503	1036.544623844487	1.08120297388
5	512	1050.509505621411	0
5	536	1102.565256430476	0
5	539	1126.178327443082	0
5	551	1181.795656424566	0
5	558	1189.200809718254	6.321491946815
5	561	1207.921071308651	0
5	575	1237.592404539237	0
5	588	1263.979150557185	0
5	597	1279.926708246016	11.455033733131
5	604	1288.385528609449	7.525297348328
5	605	1298.332601140745	17.119441872421
5	624	1334.781804229055	0
5	631	1342.435565038599	0
5	634	1352.867238912116	0
5	641	1375.309585504405	0
5	648	1398.299642162285	0
5	655	1404.77742651609	0
5	666	1425.76906201151	0
5	671	1430.662678727821	0.27862787211
5	676	1448.648219502481	0
5	694	1492.015021764522	0
5	699	1511.570516921471	14.533907525474
5	710	1526.376212000211	3.046334499729
5	723	1546.266431360994	0
5	751	1598.33928803856	0
5	768	1640.4232040738	0
5	812	1735.467369980249	0
5	830	1767.330518862194	0
5	848	1822.296353712127	0
5	857	1845.674501905315	12.065391816145
5	858	1847.207519573388	9.37530960819
5	866	1887.823250840407	0
5	871	1891.218272816414	0
5	887	1921.668223527153	0
5	902	1967.396434143435	0
5	922	1993.270757791483	0
5	927	2005.425083293427	0
5	930	2008.092390160378	0
5	934	2014.950917893618	0
5	958	2064.563262874183	0
5	963	2069.515851758278	0
5	968	2085.064408227709	5.737539084546
5	973	2103.346587578668	0
5	979	2110.335738409846	0
5	985	2125.044740041305	0
5	989	2144.225125355446	0
5	992	2150.527057442777	0
5	1000	2163.143513135241	0
5	1028	2210.697394252604	0
5	1035	2222.850698971621	6.256783230913
5	1049	2277.88009486364	0
5	1068	2314.406601838302	0
5	1087	2396.152750829857	0
5	1098	2421.530067762105	21.441947919566
5	1099	2424.694894370774	10.015186112268
5	1104	2433.981851414118	14.149664508049
6	163	356.275138873474	1
6	168	361.531743559315	2
6	170	367.553763951342	3
6	174	368.970575265093	4
6	178	379.927922828233	5
6	180	380.306087155442	6
6	184	382.080972587445	7
6	186	382.936418932786	8
6	188	387.510257431181	9
6	192	389.911119545815	10
6	196	393.455530514951	11
6	204	401.335149171264	11
6	206	401.485334148296	12
6	211	412.129365972685	11
6	221	446.532072824088	10
6	224	455.418534664674	10
6	227	459.485586021208	10
6	230	468.041860974414	10
6	233	480.239443259427	10
6	235	484.314394665896	11
6	245	511.606946428544	7
6	247	516.396541660431	8
6	249	517.029377089414	9
6	251	522.165015742967	10
6	255	523.706183755885	9
6	263	535.079449780043	4
6	266	542.924549707891	4
6	270	544.504856593887	3
6	272	545.10126394541	4
6	275	560.650013804625	4
6	279	571.503968412171	5
6	281	571.885422676681	6
6	287	576.531670043592	7
6	291	586.041278199781	6
6	294	591.842793986612	6
6	296	593.492340352836	7
6	298	593.822627101554	8
6	302	608.601332355442	7
6	310	642.500478591344	8
6	315	645.553767806205	9
6	324	658.72291101783	8
6	332	673.50565802358	7
6	334	674.664452820824	8
6	337	678.053537741583	8
6	339	679.276270559373	9
6	342	689.822589290019	9
6	352	722.812043553386	8
6	361	752.887833589075	7
6	366	754.865825694057	8
6	373	779.934200981398	7
6	376	786.323076486688	8
6	378	788.123718112885	9
6	386	811.826066980366	7
6	388	815.947848581462	8
6	394	820.44480297725	5
6	397	821.388645718781	5
6	403	828.891794095329	5
6	407	840.695604552115	6
6	416	857.256330799712	4
6	418	868.648008226734	5
6	420	870.702630473908	6
6	425	894.689810098196	4
6	431	903.133171413273	5
6	435	906.787099258618	6
6	446	924.958018129097	2
6	448	926.96826182913	3
6	454	938.47093182519	2
6	456	938.824901339621	3
6	464	946.970759347724	4
6	468	951.594273986105	5
6	470	958.366921324126	6
6	485	991.294130417434	2
6	491	1007.904452093689	3
6	493	1016.561505806223	4
6	496	1023.68614644825	5
6	507	1045.719007057478	3
6	509	1046.141772985728	4
6	514	1053.433658907636	4
6	520	1067.124123066431	2
6	523	1080.147366110922	2
6	527	1085.663846851348	1
6	529	1090.489287960552	2
6	532	1092.101482329185	2
6	541	1140.083382758178	1
6	545	1160.613482617548	1
6	548	1165.599748141268	1
6	555	1184.832306587143	1
6	557	1186.37157715356	2
6	563	1211.343419140701	3
6	569	1235.09717362252	1
6	571	1236.164658714414	2
6	573	1236.791656967319	3
6	578	1240.13416520579	4
6	580	1241.095342600622	5
6	584	1255.132693136419	4
6	586	1261.420735924344	5
6	590	1265.523657481921	6
6	592	1265.53163369834	7
6	596	1269.672344984342	8
6	603	1281.365090834462	9
6	608	1299.931884046393	10
6	610	1304.724605843547	11
6	612	1305.322714708422	12
6	616	1317.789257898108	11
6	622	1330.070538396107	8
6	627	1339.403950450485	9
6	629	1341.489957657103	10
6	636	1367.584745697833	11
6	643	1380.920423930158	10
6	645	1381.753183424919	11
6	653	1402.299300518417	10
6	657	1411.883606823326	11
6	659	1412.663953516089	12
6	661	1421.810878278908	13
6	663	1422.579160929986	14
6	668	1426.932312804626	15
6	674	1446.708472722902	16
6	679	1450.82885761971	17
6	682	1455.574463608922	17
6	684	1455.730999947189	18
6	688	1471.269624064226	17
6	692	1489.047028911997	16
6	698	1501.003251163954	17
6	701	1514.643396132198	18
6	703	1515.115288514532	19
6	705	1519.425740557147	20
6	709	1524.898422388147	21
6	716	1531.528094648684	19
6	718	1535.210731051848	20
6	721	1543.742296043003	20
6	728	1554.127229392814	19
6	731	1557.389591053862	19
6	735	1559.510693161534	18
6	737	1562.792788404847	19
6	739	1567.742571124257	20
6	753	1609.196141096314	11
6	755	1610.986066775387	12
6	757	1616.904226737302	13
6	759	1623.299458895717	14
6	761	1623.989388436137	15
6	763	1626.095454983176	16
6	766	1630.575454856278	17
6	770	1649.186861691882	18
6	772	1649.593474439688	19
6	776	1654.678995133334	19
6	779	1654.924764420721	19
6	781	1660.428087577648	20
6	787	1676.477283815076	17
6	794	1690.768281401143	13
6	802	1707.193064526369	8
6	807	1726.215648249001	6
6	809	1729.345563490037	7
6	815	1737.490455389247	7
6	817	1740.254922656132	8
6	820	1741.252134770375	8
6	823	1744.241500984743	8
6	825	1752.815041703053	9
6	836	1797.208591200755	4
6	842	1804.485709461222	1
6	845	1817.024796108276	1
6	850	1822.667217348664	1
6	852	1832.014805444614	2
6	863	1863.728023762385	1
6	868	1890.325002330053	1
6	873	1892.911421496219	2
6	876	1897.909856720685	3
6	879	1900.228729364245	3
6	881	1902.394972575954	4
6	889	1923.105917349807	1
6	891	1936.930188235271	2
6	896	1945.527027404059	1
6	899	1951.529515973467	1
6	905	1978.121877551877	1
6	907	1979.34124746618	2
6	909	1979.762433639967	3
6	911	1980.054325816748	4
6	914	1980.804055573983	4
6	916	1984.075517845662	5
6	918	1987.134381859309	6
6	925	2004.51657132158	5
6	936	2016.414489280249	5
6	938	2019.355225779663	6
6	941	2021.296189842671	7
6	943	2027.04262790873	8
6	949	2046.560566042738	5
6	951	2049.309392990112	6
6	955	2061.485768394387	5
6	960	2066.837198190048	5
6	965	2079.137475032824	6
6	975	2104.013738594891	5
6	994	2153.081210459794	1
6	997	2156.356740043825	2
6	1002	2173.045091011533	2
6	1004	2173.616005250678	3
6	1006	2175.034293339372	4
6	1008	2177.084121156678	5
6	1011	2180.5173811797	6
6	1013	2181.868862810189	7
6	1016	2189.076723022662	7
6	1018	2190.77130714992	8
6	1020	2192.37424995934	9
6	1032	2219.717478738328	4
6	1034	2221.871233968395	5
6	1037	2230.071724645932	6
6	1039	2230.935555957897	7
6	1051	2282.93439780404	1
6	1053	2285.416402302551	2
6	1057	2298.293892914577	2
6	1059	2299.2747170942	3
6	1061	2303.439979488083	4
6	1063	2305.47910729848	5
6	1072	2332.303734596903	2
6	1075	2334.907025363425	2
6	1079	2357.875581853046	1
6	1081	2359.875021229818	2
6	1085	2395.018293745815	1
6	1089	2396.55827791462	2
6	1093	2404.75453472669	3
6	1101	2426.276812347666	4
6	1103	2430.731895255457	5
6	1106	2436.181161132906	6
6	1109	2441.666214032224	7
6	1111	2442.032794299837	8
6	1113	2443.172972015987	9
6	1115	2444.959135336682	10
6	1121	2462.964472082763	7
6	1123	2463.231614912147	8
6	1132	2487.671983780769	2
6	1136	2494.931331030283	1
6	1139	2498.796688845567	1
7	164	360.624852924544	17
7	175	373.862420552585	18
7	176	379.214675634746	19
7	197	394.911869929315	20
7	198	396.444480432054	21
7	199	397.877345565474	22
7	207	402.396248124813	23
7	217	426.917654738831	24
7	218	435.24218785115	25
7	240	504.332305973129	26
7	284	572.457613665873	27
7	285	573.46323135519	28
7	305	624.215295011786	29
7	308	634.508144074484	30
7	313	643.7608762825	31
7	319	650.235719122732	32
7	325	659.486031261768	33
7	329	672.605286247089	34
7	349	717.48322758809	35
7	350	718.990019404957	36
7	357	742.828245828329	37
7	364	754.766979233062	38
7	367	755.264321586061	39
7	374	781.473735864113	40
7	381	801.830878652898	41
7	400	826.015614375819	42
7	410	847.021928239011	43
7	411	847.272264793066	44
7	432	904.926614745706	45
7	433	905.411025915921	46
7	449	927.640504396629	47
7	450	929.509849680839	48
7	465	950.330197287088	49
7	466	950.479022316336	50
7	471	958.63312435906	51
7	481	985.581756591086	52
7	488	998.267478066846	53
7	489	1006.784098751368	54
7	494	1023.07457661575	55
7	503	1036.544623844487	56
7	504	1039.99078748336	57
7	515	1054.607755671615	58
7	537	1105.5094518681	59
7	542	1141.414021339516	60
7	558	1189.200809718254	61
7	559	1206.936309058869	62
7	564	1211.644680094491	63
7	576	1237.813931555112	64
7	597	1279.926708246016	65
7	604	1288.385528609449	66
7	605	1298.332601140745	67
7	606	1298.9962018288	68
7	625	1339.18148019762	69
7	632	1351.917564620554	70
7	637	1369.642150308832	71
7	646	1386.655064532836	72
7	649	1398.453946347833	73
7	664	1425.478378329917	74
7	671	1430.662678727821	75
7	672	1446.474390224532	76
7	677	1450.130318914426	77
7	699	1511.570516921471	78
7	710	1526.376212000211	79
7	711	1526.431130373061	80
7	724	1547.329708587016	81
7	764	1629.165114337312	82
7	773	1651.290164619468	83
7	813	1736.362235162108	84
7	831	1782.38054728871	85
7	857	1845.674501905315	86
7	858	1847.207519573388	87
7	859	1848.174950593309	88
7	869	1890.356436195204	89
7	874	1893.555839550042	90
7	892	1942.017647132113	91
7	903	1976.486341635816	92
7	923	2001.658991288065	93
7	928	2007.620153458192	94
7	931	2011.140656097265	95
7	939	2019.435531370298	96
7	961	2068.85292595096	97
7	968	2085.064408227709	98
7	969	2086.501429227379	99
7	976	2104.117960445639	100
7	980	2112.08505744984	101
7	986	2133.889693276935	102
7	990	2145.982223395524	103
7	995	2154.813709287955	104
7	1009	2178.459427702901	105
7	1035	2222.850698971621	106
7	1040	2232.193743306225	107
7	1054	2293.387274223699	108
7	1069	2315.269008475146	109
7	1098	2421.530067762105	110
7	1099	2424.694894370774	111
7	1104	2433.981851414118	112
7	1107	2440.932922353714	113
8	164	360.624852924544	7.132661590689
8	175	373.862420552585	12.503530519066
8	176	379.214675634746	10.434241063066
8	197	394.911869929315	14.559869514434
8	198	396.444480432054	7.582964025947
8	199	397.877345565474	6.120203871933
8	207	402.396248124813	1.969072123766
8	217	426.917654738831	8.426775981663
8	218	435.24218785115	13.607309319594
8	240	504.332305973129	6.165869979454
8	284	572.457613665873	2.299658494665
8	285	573.46323135519	1.449533725144
8	305	624.215295011786	4.224425184122
8	308	634.508144074484	7.556147195019
8	313	643.7608762825	0.391217956133
8	319	650.235719122732	1.402466605618
8	325	659.486031261768	3.127153801985
8	329	672.605286247089	1.707710540509
8	349	717.48322758809	2.764769615338
8	350	718.990019404957	3.33033650935
8	357	742.828245828329	4.716216665983
8	364	754.766979233062	10.506538749304
8	367	755.264321586061	1.082268976021
8	374	781.473735864113	5.03542785654
8	381	801.830878652898	11.240177576584
8	400	826.015614375819	4.281343833397
8	410	847.021928239011	10.436559962011
8	411	847.272264793066	1.622571122603
8	432	904.926614745706	6.654878700622
8	433	905.411025915921	4.731393212665
8	449	927.640504396629	10.017504281012
8	450	929.509849680839	8.237413283844
8	465	950.330197287088	6.985008714727
8	466	950.479022316336	6.765467275424
8	471	958.63312435906	13.846095529795
8	481	985.581756591086	9.717550798565
8	488	998.267478066846	14.48137026332
8	489	1006.784098751368	16.507113740163
8	494	1023.07457661575	31.636498300133
8	503	1036.544623844487	5.046019509968
8	504	1039.99078748336	4.527366612753
8	515	1054.607755671615	4.098250050204
8	537	1105.5094518681	2.944195437624
8	542	1141.414021339516	15.235693896434
8	558	1189.200809718254	7.405153293688
8	559	1206.936309058869	24.05699128743
8	564	1211.644680094491	3.72360878584
8	576	1237.813931555112	0.221527015875
8	597	1279.926708246016	15.947557688831
8	604	1288.385528609449	19.913854096564
8	605	1298.332601140745	17.472369879624
8	606	1298.9962018288	17.783042560476
8	625	1339.18148019762	4.399675968565
8	632	1351.917564620554	9.481999581955
8	637	1369.642150308832	16.774911396716
8	646	1386.655064532836	11.345479028431
8	649	1398.453946347833	0.154304185548
8	664	1425.478378329917	20.700951813827
8	671	1430.662678727821	4.893616716311
8	672	1446.474390224532	16.090339368821
8	677	1450.130318914426	1.482099411945
8	699	1511.570516921471	19.555495156949
8	710	1526.376212000211	29.339602604214
8	711	1526.431130373061	3.101252872579
8	724	1547.329708587016	1.063277226022
8	764	1629.165114337312	30.825826298752
8	773	1651.290164619468	10.866960545668
8	813	1736.362235162108	0.894865181859
8	831	1782.38054728871	15.050028426516
8	857	1845.674501905315	23.378148193188
8	858	1847.207519573388	13.598409484218
8	859	1848.174950593309	10.342740628111
8	869	1890.356436195204	2.533185354797
8	874	1893.555839550042	2.337566733628
8	892	1942.017647132113	20.34942360496
8	903	1976.486341635816	9.089907492381
8	923	2001.658991288065	8.388233496582
8	928	2007.620153458192	2.195070164765
8	931	2011.140656097265	3.048265936887
8	939	2019.435531370298	4.48461347668
8	961	2068.85292595096	4.289663076777
8	968	2085.064408227709	15.548556469431
8	969	2086.501429227379	7.174560084216
8	976	2104.117960445639	0.771372866971
8	980	2112.08505744984	1.749319039994
8	986	2133.889693276935	8.84495323563
8	990	2145.982223395524	1.757098040078
8	995	2154.813709287955	4.286651845178
8	1009	2178.459427702901	15.31591456766
8	1035	2222.850698971621	12.153304719017
8	1040	2232.193743306225	15.599827565517
8	1054	2293.387274223699	15.507179360059
8	1069	2315.269008475146	0.862406636844
8	1098	2421.530067762105	25.377316932248
8	1099	2424.694894370774	24.606774528235
8	1104	2433.981851414118	19.302143155612
8	1107	2440.932922353714	21.100735447645
9	164	360.624852924544	4.34971405107
9	176	379.214675634746	17.855785601227
9	199	397.877345565474	36.345602006159
9	200	399.748370804003	32.194606852661
9	207	402.396248124813	33.42567285972
9	208	408.447984701007	28.520061872774
9	209	411.87019227024	31.564105114798
9	212	418.018506496784	37.666506081903
9	218	435.24218785115	53.161215263705
9	219	440.649465635252	57.713046702466
9	222	454.975509658046	67.465252226865
9	225	458.379673540275	68.46855399446
9	228	463.041560226465	69.586029711514
9	231	478.111847747371	77.684671746324
9	236	489.889868366642	88.554719195378
9	237	492.084155400441	90.598821252145
9	240	504.332305973129	92.202940000444
9	241	507.062836567781	88.571957810613
9	242	509.484630006604	62.952557182516
9	243	510.907107589058	55.488572924384
9	252	522.756054306076	63.270468284868
9	253	523.515143525551	55.473282551137
9	256	524.966430501002	44.726987241575
9	257	526.99012172034	42.675727054444
9	258	528.794400388882	30.627964395207
9	259	529.934215481635	18.327269053091
9	260	530.170697945311	13.77415628488
9	261	530.566171685439	13.536794596025
9	264	541.884323401126	19.719307658159
9	267	543.332697287123	19.626513531238
9	268	544.478356403805	9.398906623762
9	273	556.553519890391	13.6289701825
9	285	573.46323135519	28.958374761303
9	288	582.741309241321	37.640045295911
9	289	583.609874217378	22.959860412753
9	292	588.6793153762	18.521360204992
9	299	597.420269284592	25.916300872421
9	300	605.472325781426	33.586903104745
9	305	624.215295011786	47.683624968194
9	308	634.508144074484	48.466865874703
9	313	643.7608762825	51.918082295888
9	316	648.390528653408	54.898188300572
9	319	650.235719122732	56.413092021178
9	320	655.933896139734	47.332563784292
9	325	659.486031261768	39.495161434104
9	326	668.047195087455	41.09519820799
9	329	672.605286247089	30.104807655745
9	330	672.642565652987	29.27290732662
9	335	677.841403853221	32.287636047016
9	340	683.320834631868	34.487582114754
9	343	692.531075358371	36.172197898588
9	344	704.806849181466	46.083938163636
9	350	718.990019404957	48.092443698377
9	353	730.081685100552	56.576027076972
9	354	732.578273743472	57.913820922648
9	357	742.828245828329	64.774708086746
9	367	755.264321586061	75.988051026688
9	368	768.222335172433	78.399745882414
9	369	770.591685887042	55.87322791429
9	374	781.473735864113	58.661692310727
9	381	801.830878652898	63.718849490552
9	382	803.299953412489	59.039512928731
9	383	806.238396284317	53.350562695242
9	384	809.51141231153	54.645586617473
9	389	816.898113078665	40.459805071092
9	390	817.364690243575	37.430489262177
9	391	819.607371490997	33.284295004309
9	392	820.308087078943	32.184368966058
9	395	821.219339660718	30.628638584404
9	400	826.015614375819	14.189547395453
9	401	828.718950144028	12.771101562566
9	411	847.272264793066	26.827461815816
9	412	847.296561842272	25.907916123491
9	413	851.212640476129	29.478369933707
9	414	852.912367122587	24.020573027258
9	421	875.145919236995	38.560550959995
9	422	878.545682118404	37.850077566289
9	423	887.212226582274	29.955895782562
9	433	905.411025915921	36.763017689187
9	436	909.605774662376	38.903144188468
9	437	915.202718433906	20.51290833571
9	438	915.236187582496	16.964451537412
9	439	916.447812797249	13.314641383976
9	440	916.997265243496	10.210165984878
9	450	929.509849680839	11.886849565222
9	451	933.826021740082	8.868003610985
9	452	937.815102506197	10.846840677067
9	471	958.63312435906	20.16219253387
9	472	959.709337786688	20.884436447067
9	473	961.636692900387	18.291504328026
9	474	963.42496674432	16.454207396596
9	475	974.050580423244	22.456306437139
9	476	974.189796439475	15.822875115349
9	494	1023.07457661575	47.210370823229
9	497	1026.285481014538	34.991350597104
9	498	1026.761347817433	18.856895723744
9	504	1039.99078748336	23.429281677137
9	505	1041.46810420041	17.78195775216
9	510	1047.821444908219	16.3228405737
9	515	1054.607755671615	8.888748614137
9	516	1059.408664808308	13.26689182258
9	517	1059.634337270113	9.124831648702
9	518	1064.216025235333	10.782366327697
9	521	1073.112020624022	5.987897557591
9	524	1080.615245267415	0.467879156493
9	527	1085.663846851348	0
9	530	1090.732696139481	0.243408178929
9	533	1096.510285115602	4.408802786417
9	542	1141.414021339516	1.330638581338
9	545	1160.613482617548	0
9	548	1165.599748141268	0
9	559	1206.936309058869	22.104002471726
9	564	1211.644680094491	25.273102940931
9	565	1216.505843728043	8.584772419392
9	566	1218.092366260525	6.748947119824
9	569	1235.09717362252	0
9	576	1237.813931555112	1.649272840698
9	581	1244.366050061488	7.574393094169
9	582	1245.948784911253	8.356380372016
9	606	1298.9962018288	58.86203662301
9	613	1306.16213795541	65.066795354788
9	614	1310.67290623674	55.540213100321
9	617	1321.492126187362	60.071390263018
9	618	1325.190773155928	61.211622598743
9	619	1327.509711393634	61.986053911713
9	620	1328.254117331075	62.722483632735
9	625	1339.18148019762	69.509135213278
9	632	1351.917564620554	70.552473786092
9	637	1369.642150308832	69.710266262439
9	638	1370.665464633463	65.940858789916
9	639	1375.255545093212	69.93283038479
9	646	1386.655064532836	68.865806634728
9	649	1398.453946347833	68.383407951726
9	650	1400.307362912513	65.525558683458
9	651	1400.407010443679	61.003059993194
9	664	1425.478378329917	83.988420672814
9	672	1446.474390224532	104.03882518593
9	677	1450.130318914426	97.26308000231
9	680	1454.121240777312	86.536495079479
9	685	1459.599953015443	84.290367511038
9	686	1467.76707836067	86.846654430512
9	689	1479.657831542552	97.904648117633
9	690	1486.823854595605	88.52421243332
9	711	1526.431130373061	124.13182985464
9	712	1530.3720379772	125.59461146111
9	713	1530.707148455759	118.82354163243
9	714	1531.047387274316	118.38343375823
9	719	1541.730143866496	119.91926558759
9	724	1547.329708587016	124.75054765703
9	725	1547.667375724611	121.8983137131
9	726	1548.927752623137	121.99543981851
9	729	1555.139875148626	108.43140242572
9	732	1557.799717618755	109.15149811627
9	733	1559.100164974328	108.27130735462
9	740	1570.605699080552	115.03123547163
9	741	1570.677838169079	114.94683822189
9	742	1574.456049034716	103.18642497049
9	743	1578.359754300723	89.312725388726
9	744	1578.386309462314	86.371287697792
9	745	1579.066691051103	78.063439887149
9	746	1579.395619013797	64.752222881599
9	747	1587.55191740099	72.436628886458
9	748	1591.559151188881	72.133410631734
9	749	1595.736788515931	70.838366127784
9	764	1629.165114337312	97.637019688628
9	773	1651.290164619468	116.07943356762
9	774	1654.071687190549	110.32939114755
9	777	1654.759506182936	108.49307482194
9	782	1660.637069549492	106.50984015668
9	783	1661.067790858459	103.6781998046
9	784	1662.517211997484	103.00651883595
9	785	1669.961497178747	107.1687087739
9	788	1676.731990740955	108.9894196167
9	789	1676.946929252806	78.607641214246
9	790	1677.269567729893	68.073426633579
9	791	1677.642849548329	66.656782772942
9	792	1686.654847211886	69.750620474584
9	795	1692.138052172293	68.838593276576
9	796	1695.75688798667	71.767499550533
9	797	1697.223286105112	71.127831121936
9	798	1701.763254617378	71.1877997611
9	799	1704.790157796395	64.366953722595
9	800	1706.499867256006	57.313005564124
9	803	1708.553201247899	58.959726808211
9	804	1712.111078099467	57.432082966133
9	805	1720.18532383294	65.260559412219
9	810	1734.508019304684	74.079931727036
9	813	1736.362235162108	59.884951347032
9	818	1740.412523396257	49.644241995114
9	821	1743.528180916318	36.335116389949
9	826	1754.884442246181	28.66879399718
9	827	1758.078020876732	28.732457386695
9	828	1763.533282078667	28.065912098418
9	831	1782.38054728871	44.890091899463
9	832	1791.901792927623	51.646870271491
9	833	1795.269908217276	54.017773446901
9	834	1795.75448894189	51.512987957147
9	837	1800.420054095498	47.605012392445
9	838	1801.828877674742	34.498358812548
9	839	1802.310788785812	5.102197585057
9	842	1804.485709461222	0
9	845	1817.024796108276	0
9	859	1848.174950593309	25.507733244645
9	860	1856.466839757534	24.45203431292
9	863	1863.728023762385	0
9	869	1890.356436195204	0.031433865151
9	874	1893.555839550042	2.337566733628
9	877	1898.664507149725	5.753085653506
9	882	1903.495587351827	5.585730631142
9	883	1911.802995242959	11.574265878714
9	884	1918.340006646747	15.945034070793
9	892	1942.017647132113	18.911729782306
9	893	1942.710822373662	5.780634138391
9	896	1945.527027404059	0
9	899	1951.529515973467	0
9	905	1978.121877551877	0
9	912	1980.414810469194	1.073563003014
9	919	1989.44883853019	9.686404890223
9	920	1992.827893289844	12.773567473096
9	923	2001.658991288065	20.854935714082
9	928	2007.620153458192	23.54463561253
9	931	2011.140656097265	24.006274237956
9	932	2013.673855048253	20.40309725677
9	939	2019.435531370298	14.918960048718
9	944	2029.091955385235	23.666872091808
9	945	2032.470281847027	24.377891686649
9	946	2034.126662325808	19.17574443219
9	947	2039.840138304135	23.425649023886
9	952	2054.828792236298	35.473566456635
9	953	2058.895386536929	37.599196694258
9	956	2063.48297791258	36.44035000385
9	961	2068.85292595096	22.292359908222
9	969	2086.501429227379	37.192036237267
9	970	2089.256240954155	27.770472559768
9	971	2096.081188109545	31.517925235362
9	976	2104.117960445639	37.280762255591
9	977	2106.78285698283	37.267005224552
9	980	2112.08505744984	32.947582417016
9	981	2115.092657266414	11.746069687746
9	982	2120.062052886223	16.048314291332
9	983	2121.854844537854	11.519106128008
9	986	2133.889693276935	8.84495323563
9	995	2154.813709287955	1.732498828161
9	998	2160.162859843158	3.806119799333
9	1009	2178.459427702901	15.31591456766
9	1014	2183.455509083635	10.410418072102
9	1021	2195.453979401253	21.837974150575
9	1022	2195.751831053092	20.71753771372
9	1023	2201.055624267311	23.971503110633
9	1024	2205.207526723835	24.690145544135
9	1025	2205.333783043838	23.464920233649
9	1026	2207.425622340464	18.348899317802
9	1040	2232.193743306225	41.422436156305
9	1041	2234.10045399543	41.72620403609
9	1042	2235.204603433921	24.507209181317
9	1043	2236.449552132084	16.732073393756
9	1044	2240.135708084041	18.264474115646
9	1045	2242.531659735069	12.459935089137
9	1046	2245.172567972838	14.237012014941
9	1054	2293.387274223699	10.452876419659
9	1055	2294.388514827045	8.972112524494
9	1064	2306.747465173604	8.453572259027
9	1065	2307.789310375978	8.514593281778
9	1066	2313.092418249265	9.652438761182
9	1069	2315.269008475146	9.789901176666
9	1070	2322.61732564418	8.210723805878
9	1073	2334.688577757329	2.384843160426
9	1076	2341.377694486198	6.470669122773
9	1079	2357.875581853046	0
9	1082	2362.952302187054	3.077280957236
9	1085	2395.018293745815	0
9	1107	2440.932922353714	44.780171523857
9	1116	2448.535386135413	51.977108220793
9	1117	2451.600241131405	46.845706404715
9	1118	2459.975376046963	33.698563699297
9	1119	2460.481892057332	29.749996801875
9	1124	2465.473057073503	29.291895940597
9	1125	2475.647997553138	33.981783520914
9	1126	2476.349124211826	34.316329911989
9	1127	2477.271825873251	34.098853857264
9	1128	2477.602296748111	32.643161411429
9	1129	2480.135593169326	17.171121086563
9	1130	2484.398799315376	21.167184403229
9	1133	2491.578113878553	3.906130097784
9	1136	2494.931331030283	0
9	1139	2498.796688845567	0
10	166	361.358890033519	7
10	182	380.352000414881	8
10	202	400.427176001047	9
10	214	418.490878757168	10
10	239	498.166435993675	11
10	277	570.157955171208	12
10	304	619.990869827664	13
10	307	626.951996879465	14
10	312	643.369658326367	15
10	318	648.833252517114	16
10	322	656.358877459783	17
10	328	670.89757570658	18
10	346	714.718457972752	19
10	356	738.112029162346	20
10	359	744.260440483758	21
10	371	776.438308007573	22
10	380	790.590701076314	23
10	399	821.734270542422	24
10	405	836.585368277	25
10	427	898.271736045084	26
10	442	917.623000115617	27
10	458	943.345188572361	28
10	478	975.864205792521	29
10	500	1031.498604334519	30
10	512	1050.509505621411	31
10	561	1207.921071308651	32
10	575	1237.592404539237	33
10	588	1263.979150557185	34
10	624	1334.781804229055	35
10	631	1342.435565038599	36
10	634	1352.867238912116	37
10	641	1375.309585504405	38
10	648	1398.299642162285	39
10	655	1404.77742651609	40
10	666	1425.76906201151	41
10	676	1448.648219502481	42
10	694	1492.015021764522	43
10	723	1546.266431360994	44
10	751	1598.33928803856	45
10	768	1640.4232040738	46
10	812	1735.467369980249	47
10	830	1767.330518862194	48
10	871	1891.218272816414	49
10	922	1993.270757791483	50
10	927	2005.425083293427	51
10	930	2008.092390160378	52
10	934	2014.950917893618	53
10	958	2064.563262874183	54
10	963	2069.515851758278	55
10	973	2103.346587578668	56
10	979	2110.335738409846	57
10	985	2125.044740041305	58
10	1000	2163.143513135241	59
10	1028	2210.697394252604	60
10	1068	2314.406601838302	61
10	1087	2396.152750829857	62
11	1141	2500	0.1068
12	1141	2500	0.0452

