version 2
run experiments_hard_game_mode1-1229-20230311-19:43:47-11194
attr configname experiments_hard_game_mode1
attr datetime 20230311-19:43:47
attr experiment experiments_hard_game_mode1
attr inifile omnetpp.ini
attr iterationvars "$0=9.5, $1=3, $2=0"
attr iterationvarsf 9.5,3,0-
attr measurement "$0=9.5, $1=3, $2=0"
attr network Network
attr processid 11194
attr repetition 29
attr replication #29
attr resultdir results
attr runnumber 1229
attr seedset 29
param *.boss.arrival_mean 20
param *.boss.service_mean 9.5
param *.minion.arrival_mean 10
param *.minion.service_mean 3
param *.player.recover_rate_x 0
param **.minion.arrival_distribution 0
param **.minion.service_distribution 0
param **.boss.arrival_distribution 0
param **.boss.service_distribution 0

vector 0 Network.player boss_jobs_number_stat:vector ETV
attr source signal_boss_jobs_number
vector 1 Network.player boss_jobs_queue_number_stat:vector ETV
attr source signal_boss_jobs_queue_number
vector 2 Network.player boss_waiting_time_stat:vector ETV
attr source signal_boss_waiting_time
vector 3 Network.player boss_defeated_stat:vector ETV
attr source signal_boss_defeated
vector 4 Network.player boss_response_time_stat:vector ETV
attr source signal_boss_response_time
vector 5 Network.player minion_jobs_number_stat:vector ETV
attr source signal_minion_jobs_number
vector 6 Network.player minion_jobs_queue_number_stat:vector ETV
attr source signal_minion_jobs_queue_number
vector 7 Network.player minion_waiting_time_stat:vector ETV
attr source signal_minion_waiting_time
vector 8 Network.player minion_defeated_stat:vector ETV
attr source signal_minion_defeated
vector 9 Network.player minion_response_time_stat:vector ETV
attr source signal_minion_response_time
vector 10 Network.player minion_recovered_stat:vector ETV
attr source signal_minion_recovered
vector 11 Network.player minion_throughput:vector ETV
attr source signal_minion_throughput
vector 12 Network.player boss_throughput:vector ETV
attr source signal_boss_throughput
0	149	361.021825549164	1
0	152	377.990665820572	1
0	154	378.253915431294	2
0	167	422.009642860919	1
0	171	440.507768153143	2
0	194	523.73951392862	1
0	197	530.555131859566	1
0	202	545.373125084985	1
0	218	589.35608943426	1
0	220	610.291214639623	2
0	222	615.800908427453	3
0	249	652.662135001111	1
0	253	662.997675276741	2
0	260	681.988222083014	1
0	281	722.609711117216	1
0	287	742.368989217759	1
0	290	751.111928766331	1
0	317	799.632860009152	1
0	329	814.853493710681	1
0	347	860.107364097815	1
0	349	863.381446274853	2
0	353	873.232163967375	1
0	355	875.141813991404	2
0	364	896.29040962463	1
0	370	900.777193276199	2
0	389	924.490335754125	1
0	396	944.436092298924	1
0	398	951.47929612701	2
0	430	1011.77198842037	1
0	433	1012.512646375906	1
0	447	1038.37111930574	1
0	486	1124.687148995609	1
0	490	1134.14472775205	2
0	492	1136.014676504768	3
0	497	1150.696087075246	3
0	500	1163.995141988292	3
0	502	1164.834707420463	4
0	505	1175.182035494463	4
0	521	1230.359838712003	1
0	536	1257.761287405401	1
0	542	1277.139323562446	1
0	546	1284.576761460268	2
0	554	1290.546818596825	3
0	556	1290.626256761703	4
0	558	1295.97049487972	5
0	562	1303.980580883593	6
0	566	1309.463716143574	7
0	579	1347.514072646773	5
0	588	1388.786029090884	3
0	591	1400.099639158162	3
0	611	1448.468959825449	1
0	644	1540.065042446857	1
0	657	1583.325883925548	1
0	659	1586.275170027452	2
0	668	1613.626189748491	1
0	670	1614.26675634966	2
0	675	1628.988584949879	1
0	677	1633.042512394715	2
0	692	1654.225093828105	1
0	695	1663.525897776844	1
0	724	1734.077240528806	1
0	738	1749.437982594428	1
0	755	1799.40592340194	1
0	768	1818.494866855502	1
0	782	1844.445977291195	1
0	785	1857.169951238713	1
0	788	1865.263090597383	1
0	791	1870.89228262137	1
0	793	1874.166523009959	2
0	795	1875.969531453931	3
0	802	1894.574768464284	1
0	830	1956.269871227903	1
0	832	1958.634551972986	2
0	843	1983.36840924784	2
0	852	2008.698798874346	1
0	869	2040.337147864579	1
0	884	2060.761979702989	1
0	889	2072.43993907191	1
0	905	2125.454313612626	1
0	917	2161.780818154514	1
0	921	2164.572453140033	2
0	923	2165.34997202045	3
0	929	2184.469118021856	2
0	938	2206.677665640295	1
0	943	2213.274337973245	1
0	945	2217.002569442759	2
0	950	2221.137838314775	1
0	971	2272.148163070228	1
0	973	2275.806883192869	2
0	978	2280.659867074338	2
0	982	2285.193654503639	1
0	986	2296.706842502531	1
0	990	2299.904511665169	2
0	994	2307.946249155461	3
0	1015	2328.895385620355	1
0	1017	2339.416810040685	2
0	1019	2339.425908011321	3
0	1021	2342.523346328393	4
0	1031	2367.255355255618	1
0	1055	2436.401942894968	1
0	1064	2455.75371522284	1
1	149	361.021825549164	0
1	150	364.070127969314	0
1	152	377.990665820572	0
1	154	378.253915431294	1
1	157	383.165352559259	1
1	160	388.093077195877	0
1	167	422.009642860919	0
1	171	440.507768153143	1
1	178	463.311350862058	1
1	179	465.346423155286	0
1	194	523.73951392862	0
1	195	524.638775696468	0
1	197	530.555131859566	0
1	198	533.451159284211	0
1	202	545.373125084985	0
1	203	546.610223353487	0
1	218	589.35608943426	0
1	220	610.291214639623	1
1	222	615.800908427453	2
1	225	621.144985928502	2
1	232	628.516554577863	1
1	233	634.643017904694	0
1	249	652.662135001111	0
1	253	662.997675276741	1
1	254	667.622435036513	1
1	255	675.237615145736	0
1	260	681.988222083014	0
1	263	686.620658639055	0
1	281	722.609711117216	0
1	282	724.235665025248	0
1	287	742.368989217759	0
1	288	746.138769219481	0
1	290	751.111928766331	0
1	291	755.213909484434	0
1	317	799.632860009152	0
1	318	800.053816925624	0
1	329	814.853493710681	0
1	330	835.007884225189	0
1	347	860.107364097815	0
1	349	863.381446274853	1
1	350	864.034226473333	1
1	351	870.110870093453	0
1	353	873.232163967375	0
1	355	875.141813991404	1
1	358	880.67476727425	1
1	361	894.207907304644	0
1	364	896.29040962463	0
1	370	900.777193276199	1
1	371	903.936289725242	1
1	380	912.701129046605	0
1	389	924.490335754125	0
1	390	936.484742640881	0
1	396	944.436092298924	0
1	398	951.47929612701	1
1	401	954.254300944372	1
1	406	962.145290739961	0
1	430	1011.77198842037	0
1	431	1012.200372809702	0
1	433	1012.512646375906	0
1	436	1021.193016462047	0
1	447	1038.37111930574	0
1	450	1048.972202077691	0
1	486	1124.687148995609	0
1	490	1134.14472775205	1
1	492	1136.014676504768	2
1	493	1139.410248527606	2
1	497	1150.696087075246	2
1	498	1154.383434810329	2
1	500	1163.995141988292	2
1	502	1164.834707420463	3
1	503	1173.347397037249	3
1	505	1175.182035494463	3
1	506	1178.151549782906	3
1	509	1193.675979652052	2
1	510	1195.769040577378	1
1	511	1198.683697529651	0
1	521	1230.359838712003	0
1	522	1231.828571312372	0
1	536	1257.761287405401	0
1	539	1265.971435024487	0
1	542	1277.139323562446	0
1	546	1284.576761460268	1
1	554	1290.546818596825	2
1	556	1290.626256761703	3
1	558	1295.97049487972	4
1	562	1303.980580883593	5
1	566	1309.463716143574	6
1	567	1313.049618316419	6
1	568	1314.437080497223	5
1	577	1343.024685852393	4
1	579	1347.514072646773	4
1	580	1351.156757332703	4
1	585	1366.27225037258	3
1	586	1366.686901730725	2
1	588	1388.786029090884	2
1	589	1393.285438499194	2
1	591	1400.099639158162	2
1	592	1409.258122476126	2
1	593	1411.846538252813	1
1	594	1415.049671165314	0
1	611	1448.468959825449	0
1	616	1463.590331415537	0
1	644	1540.065042446857	0
1	647	1567.953292562598	0
1	657	1583.325883925548	0
1	659	1586.275170027452	1
1	662	1589.650622070514	1
1	665	1606.260817498423	0
1	668	1613.626189748491	0
1	670	1614.26675634966	1
1	671	1624.024578257952	1
1	672	1624.434667067622	0
1	675	1628.988584949879	0
1	677	1633.042512394715	1
1	682	1640.997524468435	1
1	683	1645.764812133554	0
1	692	1654.225093828105	0
1	693	1656.670329279521	0
1	695	1663.525897776844	0
1	698	1666.984750789281	0
1	724	1734.077240528806	0
1	731	1747.09593500378	0
1	738	1749.437982594428	0
1	741	1763.301178346801	0
1	755	1799.40592340194	0
1	762	1803.356574835922	0
1	768	1818.494866855502	0
1	769	1819.266815650399	0
1	782	1844.445977291195	0
1	783	1845.458812033545	0
1	785	1857.169951238713	0
1	786	1863.751577192972	0
1	788	1865.263090597383	0
1	789	1865.864068070243	0
1	791	1870.89228262137	0
1	793	1874.166523009959	1
1	795	1875.969531453931	2
1	796	1876.000817555226	2
1	797	1880.571092862802	1
1	800	1892.548757497493	0
1	802	1894.574768464284	0
1	807	1905.880437032169	0
1	830	1956.269871227903	0
1	832	1958.634551972986	1
1	837	1966.33246414596	1
1	843	1983.36840924784	1
1	844	1992.960243949464	1
1	845	1996.852564250049	0
1	852	2008.698798874346	0
1	855	2014.862596944173	0
1	869	2040.337147864579	0
1	874	2044.342819884699	0
1	884	2060.761979702989	0
1	887	2071.946140817897	0
1	889	2072.43993907191	0
1	890	2075.167217587777	0
1	905	2125.454313612626	0
1	906	2140.738604530324	0
1	917	2161.780818154514	0
1	921	2164.572453140033	1
1	923	2165.34997202045	2
1	924	2169.064718674508	2
1	925	2175.200908934106	1
1	929	2184.469118021856	1
1	930	2184.658756432012	1
1	931	2190.714963304525	0
1	938	2206.677665640295	0
1	939	2208.904075240314	0
1	943	2213.274337973245	0
1	945	2217.002569442759	1
1	946	2217.816814803664	1
1	947	2219.057204148936	0
1	950	2221.137838314775	0
1	961	2255.080039231463	0
1	971	2272.148163070228	0
1	973	2275.806883192869	1
1	976	2279.102581951815	1
1	978	2280.659867074338	1
1	979	2282.498050611614	1
1	980	2283.582348013558	0
1	982	2285.193654503639	0
1	983	2292.905077387364	0
1	986	2296.706842502531	0
1	990	2299.904511665169	1
1	994	2307.946249155461	2
1	1001	2314.9702746644	2
1	1004	2318.600733462559	1
1	1005	2319.539599053267	0
1	1015	2328.895385620355	0
1	1017	2339.416810040685	1
1	1019	2339.425908011321	2
1	1021	2342.523346328393	3
1	1022	2344.07989925331	3
1	1025	2346.696527671898	2
1	1026	2347.079807113575	1
1	1027	2360.608173579648	0
1	1031	2367.255355255618	0
1	1032	2372.14049129218	0
1	1055	2436.401942894968	0
1	1060	2443.554657097163	0
1	1064	2455.75371522284	0
1	1065	2456.248091473898	0
2	149	361.021825549164	0
2	152	377.990665820572	0
2	157	383.165352559259	4.911437127965
2	167	422.009642860919	0
2	178	463.311350862058	22.803582708915
2	194	523.73951392862	0
2	197	530.555131859566	0
2	202	545.373125084985	0
2	218	589.35608943426	0
2	225	621.144985928502	10.853771288879
2	232	628.516554577863	12.71564615041
2	249	652.662135001111	0
2	254	667.622435036513	4.624759759772
2	260	681.988222083014	0
2	281	722.609711117216	0
2	287	742.368989217759	0
2	290	751.111928766331	0
2	317	799.632860009152	0
2	329	814.853493710681	0
2	347	860.107364097815	0
2	350	864.034226473333	0.65278019848
2	353	873.232163967375	0
2	358	880.67476727425	5.532953282846
2	364	896.29040962463	0
2	371	903.936289725242	3.159096449043
2	389	924.490335754125	0
2	396	944.436092298924	0
2	401	954.254300944372	2.775004817362
2	430	1011.77198842037	0
2	433	1012.512646375906	0
2	447	1038.37111930574	0
2	486	1124.687148995609	0
2	493	1139.410248527606	5.265520775556
2	498	1154.383434810329	18.368758305561
2	503	1173.347397037249	22.651309962003
2	506	1178.151549782906	14.156407794614
2	509	1193.675979652052	28.841272231589
2	510	1195.769040577378	20.587005082915
2	521	1230.359838712003	0
2	536	1257.761287405401	0
2	542	1277.139323562446	0
2	567	1313.049618316419	28.472856856151
2	568	1314.437080497223	23.890261900398
2	577	1343.024685852393	52.39842909069
2	580	1351.156757332703	55.186262452983
2	585	1366.27225037258	62.291669488987
2	586	1366.686901730725	57.223185587151
2	589	1393.285438499194	45.771365852421
2	592	1409.258122476126	20.472093385242
2	593	1411.846538252813	11.746899094651
2	611	1448.468959825449	0
2	644	1540.065042446857	0
2	657	1583.325883925548	0
2	662	1589.650622070514	3.375452043062
2	668	1613.626189748491	0
2	671	1624.024578257952	9.757821908292
2	675	1628.988584949879	0
2	682	1640.997524468435	7.95501207372
2	692	1654.225093828105	0
2	695	1663.525897776844	0
2	724	1734.077240528806	0
2	738	1749.437982594428	0
2	755	1799.40592340194	0
2	768	1818.494866855502	0
2	782	1844.445977291195	0
2	785	1857.169951238713	0
2	788	1865.263090597383	0
2	791	1870.89228262137	0
2	796	1876.000817555226	1.834294545267
2	797	1880.571092862802	4.601561408871
2	802	1894.574768464284	0
2	830	1956.269871227903	0
2	837	1966.33246414596	7.697912172974
2	844	1992.960243949464	9.591834701624
2	852	2008.698798874346	0
2	869	2040.337147864579	0
2	884	2060.761979702989	0
2	889	2072.43993907191	0
2	905	2125.454313612626	0
2	917	2161.780818154514	0
2	924	2169.064718674508	4.492265534475
2	925	2175.200908934106	9.850936913656
2	930	2184.658756432012	0.189638410156
2	938	2206.677665640295	0
2	943	2213.274337973245	0
2	946	2217.816814803664	0.814245360905
2	950	2221.137838314775	0
2	971	2272.148163070228	0
2	976	2279.102581951815	3.295698758946
2	979	2282.498050611614	1.838183537276
2	982	2285.193654503639	0
2	986	2296.706842502531	0
2	1001	2314.9702746644	15.065762999231
2	1004	2318.600733462559	10.654484307098
2	1015	2328.895385620355	0
2	1022	2344.07989925331	4.663089212625
2	1025	2346.696527671898	7.270619660577
2	1026	2347.079807113575	4.556460785182
2	1031	2367.255355255618	0
2	1055	2436.401942894968	0
2	1064	2455.75371522284	0
3	150	364.070127969314	14
3	157	383.165352559259	15
3	160	388.093077195877	16
3	178	463.311350862058	17
3	179	465.346423155286	18
3	195	524.638775696468	19
3	198	533.451159284211	20
3	203	546.610223353487	21
3	225	621.144985928502	22
3	232	628.516554577863	23
3	233	634.643017904694	24
3	254	667.622435036513	25
3	255	675.237615145736	26
3	263	686.620658639055	27
3	282	724.235665025248	28
3	288	746.138769219481	29
3	291	755.213909484434	30
3	318	800.053816925624	31
3	330	835.007884225189	32
3	350	864.034226473333	33
3	351	870.110870093453	34
3	358	880.67476727425	35
3	361	894.207907304644	36
3	371	903.936289725242	37
3	380	912.701129046605	38
3	390	936.484742640881	39
3	401	954.254300944372	40
3	406	962.145290739961	41
3	431	1012.200372809702	42
3	436	1021.193016462047	43
3	450	1048.972202077691	44
3	493	1139.410248527606	45
3	498	1154.383434810329	46
3	503	1173.347397037249	47
3	506	1178.151549782906	48
3	509	1193.675979652052	49
3	510	1195.769040577378	50
3	511	1198.683697529651	51
3	522	1231.828571312372	52
3	539	1265.971435024487	53
3	567	1313.049618316419	54
3	568	1314.437080497223	55
3	577	1343.024685852393	56
3	580	1351.156757332703	57
3	585	1366.27225037258	58
3	586	1366.686901730725	59
3	589	1393.285438499194	60
3	592	1409.258122476126	61
3	593	1411.846538252813	62
3	594	1415.049671165314	63
3	616	1463.590331415537	64
3	647	1567.953292562598	65
3	662	1589.650622070514	66
3	665	1606.260817498423	67
3	671	1624.024578257952	68
3	672	1624.434667067622	69
3	682	1640.997524468435	70
3	683	1645.764812133554	71
3	693	1656.670329279521	72
3	698	1666.984750789281	73
3	731	1747.09593500378	74
3	741	1763.301178346801	75
3	762	1803.356574835922	76
3	769	1819.266815650399	77
3	783	1845.458812033545	78
3	786	1863.751577192972	79
3	789	1865.864068070243	80
3	796	1876.000817555226	81
3	797	1880.571092862802	82
3	800	1892.548757497493	83
3	807	1905.880437032169	84
3	837	1966.33246414596	85
3	844	1992.960243949464	86
3	845	1996.852564250049	87
3	855	2014.862596944173	88
3	874	2044.342819884699	89
3	887	2071.946140817897	90
3	890	2075.167217587777	91
3	906	2140.738604530324	92
3	924	2169.064718674508	93
3	925	2175.200908934106	94
3	930	2184.658756432012	95
3	931	2190.714963304525	96
3	939	2208.904075240314	97
3	946	2217.816814803664	98
3	947	2219.057204148936	99
3	961	2255.080039231463	100
3	976	2279.102581951815	101
3	979	2282.498050611614	102
3	980	2283.582348013558	103
3	983	2292.905077387364	104
3	1001	2314.9702746644	105
3	1004	2318.600733462559	106
3	1005	2319.539599053267	107
3	1022	2344.07989925331	108
3	1025	2346.696527671898	109
3	1026	2347.079807113575	110
3	1027	2360.608173579648	111
3	1032	2372.14049129218	112
3	1060	2443.554657097163	113
3	1065	2456.248091473898	114
4	150	364.070127969314	3.04830242015
4	157	383.165352559259	5.174686738687
4	160	388.093077195877	9.839161764583
4	178	463.311350862058	41.301708001139
4	179	465.346423155286	24.838655002143
4	195	524.638775696468	0.899261767848
4	198	533.451159284211	2.896027424645
4	203	546.610223353487	1.237098268502
4	225	621.144985928502	31.788896494242
4	232	628.516554577863	18.22533993824
4	233	634.643017904694	18.842109477241
4	254	667.622435036513	14.960300035402
4	255	675.237615145736	12.239939868995
4	263	686.620658639055	4.632436556041
4	282	724.235665025248	1.625953908032
4	288	746.138769219481	3.769780001722
4	291	755.213909484434	4.101980718103
4	318	800.053816925624	0.420956916472
4	330	835.007884225189	20.154390514508
4	350	864.034226473333	3.926862375518
4	351	870.110870093453	6.7294238186
4	358	880.67476727425	7.442603306875
4	361	894.207907304644	19.06609331324
4	371	903.936289725242	7.645880100612
4	380	912.701129046605	11.923935770406
4	390	936.484742640881	11.994406886756
4	401	954.254300944372	9.818208645448
4	406	962.145290739961	10.665994612951
4	431	1012.200372809702	0.428384389332
4	436	1021.193016462047	8.680370086141
4	450	1048.972202077691	10.601082771951
4	493	1139.410248527606	14.723099531997
4	498	1154.383434810329	20.238707058279
4	503	1173.347397037249	37.332720532481
4	506	1178.151549782906	27.45546270766
4	509	1193.675979652052	29.68083766376
4	510	1195.769040577378	30.934333156915
4	511	1198.683697529651	23.501662035188
4	522	1231.828571312372	1.468732600369
4	539	1265.971435024487	8.210147619086
4	567	1313.049618316419	35.910294753973
4	568	1314.437080497223	29.860319036955
4	577	1343.024685852393	52.477867255568
4	580	1351.156757332703	60.530500571
4	585	1366.27225037258	70.30175549286
4	586	1366.686901730725	62.706320847132
4	589	1393.285438499194	83.82172235562
4	592	1409.258122476126	61.744049829353
4	593	1411.846538252813	23.060509161929
4	594	1415.049671165314	14.950032007152
4	616	1463.590331415537	15.121371590088
4	647	1567.953292562598	27.888250115741
4	662	1589.650622070514	6.324738144966
4	665	1606.260817498423	19.985647470971
4	671	1624.024578257952	10.398388509461
4	672	1624.434667067622	10.167910717962
4	682	1640.997524468435	12.008939518556
4	683	1645.764812133554	12.722299738839
4	693	1656.670329279521	2.445235451416
4	698	1666.984750789281	3.458853012437
4	731	1747.09593500378	13.018694474974
4	741	1763.301178346801	13.863195752373
4	762	1803.356574835922	3.950651433982
4	769	1819.266815650399	0.771948794897
4	783	1845.458812033545	1.01283474235
4	786	1863.751577192972	6.581625954259
4	789	1865.864068070243	0.60097747286
4	796	1876.000817555226	5.108534933856
4	797	1880.571092862802	6.404569852843
4	800	1892.548757497493	16.579226043562
4	807	1905.880437032169	11.305668567885
4	837	1966.33246414596	10.062592918057
4	844	1992.960243949464	34.325691976478
4	845	1996.852564250049	13.484155002209
4	855	2014.862596944173	6.163798069827
4	874	2044.342819884699	4.00567202012
4	887	2071.946140817897	11.184161114908
4	890	2075.167217587777	2.727278515867
4	906	2140.738604530324	15.284290917698
4	924	2169.064718674508	7.283900519994
4	925	2175.200908934106	10.628455794073
4	930	2184.658756432012	19.308784411562
4	931	2190.714963304525	6.245845282669
4	939	2208.904075240314	2.226409600019
4	946	2217.816814803664	4.542476830419
4	947	2219.057204148936	2.054634706177
4	961	2255.080039231463	33.942200916688
4	976	2279.102581951815	6.954418881587
4	979	2282.498050611614	6.691167418745
4	980	2283.582348013558	2.92248093922
4	983	2292.905077387364	7.711422883725
4	1001	2314.9702746644	18.263432161869
4	1004	2318.600733462559	18.69622179739
4	1005	2319.539599053267	11.593349897806
4	1022	2344.07989925331	15.184513632955
4	1025	2346.696527671898	7.279717631213
4	1026	2347.079807113575	7.653899102254
4	1027	2360.608173579648	18.084827251255
4	1032	2372.14049129218	4.885136036562
4	1060	2443.554657097163	7.152714202195
4	1065	2456.248091473898	0.494376251058
5	156	379.608095313354	1
5	159	385.157042033546	2
5	164	399.228233649482	1
5	169	426.29441775287	1
5	173	443.660282730514	2
5	175	448.882770349587	3
5	177	458.137377426833	4
5	183	465.826518938555	3
5	188	494.833255579592	1
5	191	499.822669747212	1
5	200	545.209727119979	1
5	206	556.326563719439	1
5	209	572.24175660314	1
5	212	575.863779244195	1
5	214	577.881832968284	2
5	224	618.606462312563	1
5	227	621.290089637664	2
5	229	624.589581645086	3
5	231	627.159808616859	4
5	236	636.156734196456	4
5	238	638.695588633048	5
5	240	639.503912377234	6
5	242	641.651605112762	7
5	246	648.446565023337	6
5	251	656.54974981075	6
5	257	679.39638457525	7
5	262	682.973119520857	7
5	268	694.937514966378	5
5	272	709.632194269071	4
5	275	711.758812941697	4
5	278	714.745063282436	4
5	293	780.526003935068	1
5	295	782.044152913347	2
5	298	785.118702325468	2
5	301	786.82893246052	2
5	304	792.211735403243	2
5	308	794.650893746256	1
5	311	796.164645718989	1
5	314	797.919207288304	1
5	320	800.659176556938	1
5	323	802.145561068497	1
5	326	811.00518497882	1
5	332	837.601350145641	1
5	335	842.808892412795	1
5	338	850.859225738186	1
5	341	852.072682488855	1
5	344	856.159958446072	1
5	357	877.773073587536	1
5	360	893.64717916577	2
5	366	896.443773630609	2
5	368	899.605850019362	3
5	373	906.490154822813	4
5	375	908.845874933179	5
5	377	909.068777480588	6
5	379	910.906698195825	7
5	382	913.501120803603	8
5	386	923.456570972861	7
5	400	953.896826670245	3
5	403	955.784633106749	4
5	405	959.402928374506	5
5	408	967.655498130466	6
5	412	977.727526974586	5
5	416	986.483345419537	4
5	419	992.65484243738	4
5	423	1000.462186581842	3
5	427	1006.176726943197	2
5	435	1017.427407056631	2
5	439	1023.333185885289	2
5	443	1035.575057615901	1
5	445	1036.397542892707	2
5	449	1042.071307097477	3
5	453	1053.311955600887	3
5	458	1068.628170045546	1
5	460	1068.7372523909	2
5	463	1076.558449330755	2
5	467	1085.269920578633	1
5	470	1090.503816550838	1
5	473	1108.756096424927	1
5	475	1109.014040151767	2
5	479	1111.825117276107	1
5	482	1117.188075728243	1
5	484	1118.573341036805	2
5	488	1130.12602680693	3
5	495	1145.944497366466	4
5	508	1191.074306916834	5
5	518	1224.317871195993	1
5	524	1239.415299962359	1
5	527	1241.319226478284	1
5	530	1246.698348383056	1
5	533	1249.075240055608	1
5	538	1262.228682128353	1
5	544	1281.456586332296	1
5	548	1285.868618464094	2
5	550	1287.995910071284	3
5	552	1290.105014442061	4
5	560	1297.064115025479	5
5	564	1309.251003332188	6
5	570	1322.970381474386	7
5	572	1327.054292896169	8
5	574	1337.426373481282	9
5	576	1339.570652825673	10
5	582	1353.57388117284	11
5	584	1354.516585092584	12
5	598	1421.845319537203	11
5	601	1433.077455864582	11
5	603	1434.570566934513	12
5	606	1436.700873309931	12
5	608	1444.299171092421	13
5	613	1451.583659890725	13
5	615	1462.140670769399	14
5	629	1486.551119297569	4
5	635	1496.223907441521	1
5	638	1523.68482419876	1
5	641	1535.830083928314	1
5	646	1552.15528015073	1
5	649	1569.113611818043	2
5	653	1574.59712260323	1
5	655	1577.783622414697	2
5	661	1588.000980001104	3
5	664	1592.596152355802	4
5	679	1636.55918818209	3
5	681	1640.641096239258	4
5	687	1650.918419052956	3
5	697	1663.785704815084	1
5	700	1667.004304150596	2
5	703	1674.644996918479	2
5	705	1675.406868188611	3
5	709	1683.621375205935	2
5	713	1691.870758945599	1
5	716	1720.321633944097	1
5	719	1728.242047121611	1
5	722	1733.304477625183	1
5	726	1736.123190533158	2
5	728	1736.909763431248	3
5	730	1745.044126709653	4
5	733	1748.564229081137	5
5	736	1749.269661046032	5
5	740	1753.344411509976	6
5	743	1768.415993221564	7
5	750	1784.209010264732	3
5	757	1800.178677377241	1
5	759	1800.95833616599	2
5	761	1802.963572909128	3
5	765	1808.674857293738	3
5	772	1823.070351810148	2
5	775	1823.916015992079	2
5	779	1834.242923632817	1
5	799	1884.674211425783	1
5	804	1897.934943306775	2
5	806	1899.021409378431	3
5	809	1908.271706007079	4
5	811	1911.895429355032	5
5	813	1914.724388814061	6
5	818	1919.490991222787	4
5	821	1923.241762418407	4
5	826	1936.92438258832	2
5	834	1961.501522926047	1
5	836	1965.216661545734	2
5	839	1976.143259682891	3
5	841	1977.106085114153	4
5	849	2002.049166686635	3
5	854	2014.824804974099	3
5	860	2026.435831902888	1
5	862	2026.746619278247	2
5	866	2034.2767880203	1
5	871	2040.832134308452	1
5	873	2041.731501973777	2
5	876	2044.394175563752	3
5	881	2057.540071414153	1
5	886	2064.678649429053	1
5	893	2100.643440090761	1
5	896	2109.735389103771	1
5	899	2114.55518655679	1
5	902	2119.70008837266	1
5	908	2141.252353958549	1
5	911	2145.214967111336	1
5	914	2156.225819555676	1
5	919	2162.801836191714	1
5	927	2176.399567796595	2
5	935	2206.400218154673	1
5	941	2212.910426022293	1
5	952	2223.822523938987	1
5	954	2229.518382743654	2
5	956	2237.356526885323	3
5	958	2242.16939733723	4
5	960	2249.811830180648	5
5	965	2260.677147560681	4
5	975	2276.381357349022	1
5	988	2299.593657816942	1
5	992	2305.917559909468	2
5	996	2308.049972561187	3
5	998	2311.300208667409	4
5	1000	2311.517313327987	5
5	1003	2317.103988873237	6
5	1007	2321.252529477898	7
5	1013	2324.894460081239	4
5	1024	2345.158710441866	5
5	1036	2393.48451685585	2
5	1040	2409.027012630994	1
5	1043	2414.534346640401	1
5	1045	2418.902692042539	2
5	1047	2419.493416931437	3
5	1052	2432.165685310105	1
5	1057	2437.386547876681	1
5	1059	2439.315187646736	2
5	1067	2461.210077954654	1
5	1069	2463.600744450632	2
5	1072	2464.886615128397	2
6	156	379.608095313354	0
6	159	385.157042033546	1
6	161	389.085904699125	1
6	162	393.057101626774	0
6	164	399.228233649482	0
6	165	401.857598750158	0
6	169	426.29441775287	0
6	173	443.660282730514	1
6	175	448.882770349587	2
6	177	458.137377426833	3
6	180	465.464527499829	3
6	181	465.547855775233	2
6	183	465.826518938555	2
6	184	471.183841255121	2
6	185	471.276169559861	1
6	186	471.680734175725	0
6	188	494.833255579592	0
6	189	494.89955654877	0
6	191	499.822669747212	0
6	192	502.690024405574	0
6	200	545.209727119979	0
6	204	548.769846559163	0
6	206	556.326563719439	0
6	207	560.066968527906	0
6	209	572.24175660314	0
6	210	572.483846608994	0
6	212	575.863779244195	0
6	214	577.881832968284	1
6	215	582.817640405173	1
6	216	589.351879802236	0
6	224	618.606462312563	0
6	227	621.290089637664	1
6	229	624.589581645086	2
6	231	627.159808616859	3
6	234	634.98410188504	3
6	236	636.156734196456	3
6	238	638.695588633048	4
6	240	639.503912377234	5
6	242	641.651605112762	6
6	243	645.589488939457	6
6	244	645.939099536474	5
6	246	648.446565023337	5
6	247	651.242541895613	5
6	251	656.54974981075	5
6	257	679.39638457525	6
6	258	679.875885418524	6
6	262	682.973119520857	6
6	264	690.55284482776	6
6	265	693.96643630442	5
6	266	694.482606233244	4
6	268	694.937514966378	4
6	269	706.776275615664	4
6	270	709.181026518499	3
6	272	709.632194269071	3
6	273	710.156588864892	3
6	275	711.758812941697	3
6	276	712.290124505076	3
6	278	714.745063282436	3
6	279	718.410959977062	3
6	283	725.532062908825	2
6	284	728.269624076705	1
6	285	731.241276041265	0
6	293	780.526003935068	0
6	295	782.044152913347	1
6	296	783.874643463872	1
6	298	785.118702325468	1
6	299	786.247896153485	1
6	301	786.82893246052	1
6	302	788.737393894345	1
6	304	792.211735403243	1
6	305	792.929043352392	1
6	306	793.132846701422	0
6	308	794.650893746256	0
6	309	794.972709106469	0
6	311	796.164645718989	0
6	312	797.254896456671	0
6	314	797.919207288304	0
6	315	798.018642911777	0
6	320	800.659176556938	0
6	321	801.059971959124	0
6	323	802.145561068497	0
6	324	806.336145234736	0
6	326	811.00518497882	0
6	327	814.393566937885	0
6	332	837.601350145641	0
6	333	838.960351250319	0
6	335	842.808892412795	0
6	336	844.766550739641	0
6	338	850.859225738186	0
6	339	851.041842189007	0
6	341	852.072682488855	0
6	342	852.5643442583	0
6	344	856.159958446072	0
6	345	857.321374315722	0
6	357	877.773073587536	0
6	360	893.64717916577	1
6	362	894.619108737342	1
6	366	896.443773630609	1
6	368	899.605850019362	2
6	373	906.490154822813	3
6	375	908.845874933179	4
6	377	909.068777480588	5
6	379	910.906698195825	6
6	382	913.501120803603	7
6	383	914.594886352062	7
6	384	917.706756491783	6
6	386	923.456570972861	6
6	387	923.547896272782	6
6	391	936.704935749094	5
6	392	940.014618784338	4
6	393	941.722088677921	3
6	394	941.826821209059	2
6	400	953.896826670245	2
6	403	955.784633106749	3
6	405	959.402928374506	4
6	408	967.655498130466	5
6	409	968.691049193835	5
6	410	969.634018485098	4
6	412	977.727526974586	4
6	413	978.585430341042	4
6	414	983.649668803015	3
6	416	986.483345419537	3
6	417	987.482941698199	3
6	419	992.65484243738	3
6	420	993.198829525447	3
6	421	1000.401169588107	2
6	423	1000.462186581842	2
6	424	1000.990064801832	2
6	425	1004.093750684786	1
6	427	1006.176726943197	1
6	428	1007.67114497375	1
6	435	1017.427407056631	1
6	437	1021.429885443834	1
6	439	1023.333185885289	1
6	440	1023.510871565721	1
6	441	1026.610080112405	0
6	443	1035.575057615901	0
6	445	1036.397542892707	1
6	449	1042.071307097477	2
6	451	1052.439631498736	2
6	453	1053.311955600887	2
6	454	1053.556731603228	2
6	455	1057.335279026649	1
6	456	1058.247234962946	0
6	458	1068.628170045546	0
6	460	1068.7372523909	1
6	461	1069.251293031539	1
6	463	1076.558449330755	1
6	464	1079.083287759089	1
6	465	1081.914763630705	0
6	467	1085.269920578633	0
6	468	1085.49830852643	0
6	470	1090.503816550838	0
6	471	1094.903269342322	0
6	473	1108.756096424927	0
6	475	1109.014040151767	1
6	476	1110.62788698317	1
6	477	1111.348280715412	0
6	479	1111.825117276107	0
6	480	1112.875333730095	0
6	482	1117.188075728243	0
6	484	1118.573341036805	1
6	488	1130.12602680693	2
6	495	1145.944497366466	3
6	508	1191.074306916834	4
6	512	1202.054845022725	4
6	513	1206.837204057077	3
6	514	1210.604889750854	2
6	515	1214.890693577887	1
6	516	1217.328149309669	0
6	518	1224.317871195993	0
6	519	1228.852742116529	0
6	524	1239.415299962359	0
6	525	1241.105491036131	0
6	527	1241.319226478284	0
6	528	1242.116479882789	0
6	530	1246.698348383056	0
6	531	1246.915436910729	0
6	533	1249.075240055608	0
6	534	1249.627577382209	0
6	538	1262.228682128353	0
6	540	1269.502295630008	0
6	544	1281.456586332296	0
6	548	1285.868618464094	1
6	550	1287.995910071284	2
6	552	1290.105014442061	3
6	560	1297.064115025479	4
6	564	1309.251003332188	5
6	570	1322.970381474386	6
6	572	1327.054292896169	7
6	574	1337.426373481282	8
6	576	1339.570652825673	9
6	582	1353.57388117284	10
6	584	1354.516585092584	11
6	595	1417.444881232913	11
6	596	1421.664486948954	10
6	598	1421.845319537203	10
6	599	1430.298497144341	10
6	601	1433.077455864582	10
6	603	1434.570566934513	11
6	604	1435.084528891397	11
6	606	1436.700873309931	11
6	608	1444.299171092421	12
6	609	1447.859197469063	12
6	613	1451.583659890725	12
6	615	1462.140670769399	13
6	617	1467.926870749185	13
6	618	1469.94336092318	12
6	619	1470.899433917189	11
6	620	1475.454287511262	10
6	621	1476.459453622193	9
6	622	1478.071500152042	8
6	623	1478.433880186059	7
6	624	1481.227051445965	6
6	625	1482.30761200849	5
6	626	1485.561271871263	4
6	627	1486.112118618154	3
6	629	1486.551119297569	3
6	630	1489.718385186734	3
6	631	1493.633841143243	2
6	632	1495.419661626437	1
6	633	1495.891247069956	0
6	635	1496.223907441521	0
6	636	1497.948011845983	0
6	638	1523.68482419876	0
6	639	1529.144615921946	0
6	641	1535.830083928314	0
6	642	1536.592719700798	0
6	646	1552.15528015073	0
6	649	1569.113611818043	1
6	650	1569.963386820928	1
6	651	1570.480919403621	0
6	653	1574.59712260323	0
6	655	1577.783622414697	1
6	661	1588.000980001104	2
6	664	1592.596152355802	3
6	666	1611.338833845214	3
6	673	1626.032315603843	2
6	679	1636.55918818209	2
6	681	1640.641096239258	3
6	684	1646.114489705041	3
6	685	1646.353305514323	2
6	687	1650.918419052956	2
6	688	1651.409993397645	2
6	689	1653.066076692439	1
6	690	1653.39004499893	0
6	697	1663.785704815084	0
6	700	1667.004304150596	1
6	701	1667.835997537442	1
6	703	1674.644996918479	1
6	705	1675.406868188611	2
6	706	1675.429824719202	2
6	707	1681.346713758257	1
6	709	1683.621375205935	1
6	710	1685.046700122903	1
6	711	1689.858612230485	0
6	713	1691.870758945599	0
6	714	1692.003571041536	0
6	716	1720.321633944097	0
6	717	1723.176249531762	0
6	719	1728.242047121611	0
6	720	1730.066793363307	0
6	722	1733.304477625183	0
6	726	1736.123190533158	1
6	728	1736.909763431248	2
6	730	1745.044126709653	3
6	733	1748.564229081137	4
6	734	1749.106217700249	4
6	736	1749.269661046032	4
6	740	1753.344411509976	5
6	743	1768.415993221564	6
6	744	1768.85545928252	6
6	745	1776.12072392929	5
6	746	1780.567375771677	4
6	747	1780.633161777793	3
6	748	1783.454754550918	2
6	750	1784.209010264732	2
6	751	1784.676359117845	2
6	752	1796.298368337052	1
6	753	1797.891831509174	0
6	757	1800.178677377241	0
6	759	1800.95833616599	1
6	761	1802.963572909128	2
6	763	1806.264452137623	2
6	765	1808.674857293738	2
6	766	1817.905519228326	2
6	770	1821.680407887055	1
6	772	1823.070351810148	1
6	773	1823.325570591196	1
6	775	1823.916015992079	1
6	776	1825.915607124561	1
6	777	1830.600690493285	0
6	779	1834.242923632817	0
6	780	1838.205336527838	0
6	799	1884.674211425783	0
6	804	1897.934943306775	1
6	806	1899.021409378431	2
6	809	1908.271706007079	3
6	811	1911.895429355032	4
6	813	1914.724388814061	5
6	814	1915.506173279123	5
6	815	1917.446221032157	4
6	816	1917.932547029286	3
6	818	1919.490991222787	3
6	819	1920.380356992281	3
6	821	1923.241762418407	3
6	822	1924.221755945048	3
6	823	1930.148023438276	2
6	824	1933.301820833675	1
6	826	1936.92438258832	1
6	827	1944.914206401752	1
6	828	1948.445086322495	0
6	834	1961.501522926047	0
6	836	1965.216661545734	1
6	839	1976.143259682891	2
6	841	1977.106085114153	3
6	846	1998.913526827256	3
6	847	2001.188969956339	2
6	849	2002.049166686635	2
6	850	2004.098673490409	2
6	854	2014.824804974099	2
6	856	2017.70077005431	2
6	857	2024.350821998109	1
6	858	2024.366798355818	0
6	860	2026.435831902888	0
6	862	2026.746619278247	1
6	863	2033.645065085951	1
6	864	2034.103276415899	0
6	866	2034.2767880203	0
6	867	2034.760062571342	0
6	871	2040.832134308452	0
6	873	2041.731501973777	1
6	876	2044.394175563752	2
6	877	2044.991246993193	2
6	878	2049.054608914127	1
6	879	2052.226427599269	0
6	881	2057.540071414153	0
6	882	2058.379504749518	0
6	886	2064.678649429053	0
6	891	2080.364996948266	0
6	893	2100.643440090761	0
6	894	2101.69713468038	0
6	896	2109.735389103771	0
6	897	2111.759962061512	0
6	899	2114.55518655679	0
6	900	2115.716643902313	0
6	902	2119.70008837266	0
6	903	2120.705573643606	0
6	908	2141.252353958549	0
6	909	2142.633227277348	0
6	911	2145.214967111336	0
6	912	2146.254180247545	0
6	914	2156.225819555676	0
6	915	2161.13052740357	0
6	919	2162.801836191714	0
6	927	2176.399567796595	1
6	932	2190.877734433701	1
6	933	2197.783779339349	0
6	935	2206.400218154673	0
6	936	2206.608474650555	0
6	941	2212.910426022293	0
6	948	2220.341285856948	0
6	952	2223.822523938987	0
6	954	2229.518382743654	1
6	956	2237.356526885323	2
6	958	2242.16939733723	3
6	960	2249.811830180648	4
6	962	2255.538159204028	4
6	963	2257.513056587147	3
6	965	2260.677147560681	3
6	966	2261.911861727324	3
6	967	2262.458367262407	2
6	968	2262.479927014127	1
6	969	2265.633285258934	0
6	975	2276.381357349022	0
6	984	2294.731590709921	0
6	988	2299.593657816942	0
6	992	2305.917559909468	1
6	996	2308.049972561187	2
6	998	2311.300208667409	3
6	1000	2311.517313327987	4
6	1003	2317.103988873237	5
6	1007	2321.252529477898	6
6	1008	2321.430901917006	6
6	1009	2321.962640671224	5
6	1010	2322.673422500151	4
6	1011	2322.760756639939	3
6	1013	2324.894460081239	3
6	1024	2345.158710441866	4
6	1028	2363.488138839098	4
6	1029	2366.922333530887	3
6	1033	2380.75115344908	2
6	1034	2386.624328719953	1
6	1036	2393.48451685585	1
6	1037	2398.894491721386	1
6	1038	2406.153866414319	0
6	1040	2409.027012630994	0
6	1041	2409.280872776055	0
6	1043	2414.534346640401	0
6	1045	2418.902692042539	1
6	1047	2419.493416931437	2
6	1048	2421.443238382614	2
6	1049	2423.336915986768	1
6	1050	2423.854214049277	0
6	1052	2432.165685310105	0
6	1053	2433.996197173191	0
6	1057	2437.386547876681	0
6	1059	2439.315187646736	1
6	1061	2447.994899375231	1
6	1062	2453.266578435664	0
6	1067	2461.210077954654	0
6	1069	2463.600744450632	1
6	1070	2464.126858247645	1
6	1072	2464.886615128397	1
6	1073	2468.747123379018	1
6	1074	2469.414865414926	0
7	160	388.093077195877	8.484981882523
7	161	389.085904699125	3.928862665579
7	164	399.228233649482	0
7	179	465.346423155286	39.052005402416
7	180	465.464527499829	21.804244769315
7	181	465.547855775233	16.665085425646
7	184	471.183841255121	13.046463828288
7	185	471.276169559861	5.449650621306
7	188	494.833255579592	0
7	191	499.822669747212	0
7	200	545.209727119979	0
7	203	546.610223353487	1.237098268502
7	206	556.326563719439	0
7	209	572.24175660314	0
7	212	575.863779244195	0
7	215	582.817640405173	4.935807436889
7	233	634.643017904694	16.036555592131
7	234	634.98410188504	13.694012247376
7	243	645.589488939457	20.999907294371
7	244	645.939099536474	18.779290919615
7	247	651.242541895613	15.085807699157
7	255	675.237615145736	36.542026512688
7	258	679.875885418524	40.37197304129
7	263	686.620658639055	44.969053526293
7	264	690.55284482776	42.106279804423
7	265	693.96643630442	41.304301303309
7	266	694.482606233244	37.932856422494
7	269	706.776275615664	27.379891040414
7	270	709.181026518499	27.192804435485
7	273	710.156588864892	27.183469344035
7	276	712.290124505076	17.352609538698
7	279	718.410959977062	8.778765707991
7	282	724.235665025248	12.476852083551
7	283	725.532062908825	10.786999626389
7	284	728.269624076705	5.659912959489
7	293	780.526003935068	0
7	296	783.874643463872	1.830490550525
7	299	786.247896153485	1.129193828017
7	302	788.737393894345	1.908461433825
7	305	792.929043352392	0.717307949149
7	308	794.650893746256	0
7	311	796.164645718989	0
7	314	797.919207288304	0
7	320	800.659176556938	0
7	323	802.145561068497	0
7	326	811.00518497882	0
7	332	837.601350145641	0
7	335	842.808892412795	0
7	338	850.859225738186	0
7	341	852.072682488855	0
7	344	856.159958446072	0
7	361	894.207907304644	16.434833717108
7	362	894.619108737342	0.971929571572
7	380	912.701129046605	16.410719421975
7	383	914.594886352062	18.151112721453
7	384	917.706756491783	18.100906472421
7	387	923.547896272782	17.057741449969
7	390	936.484742640881	27.638867707702
7	391	936.704935749094	27.636158268506
7	392	940.014618784338	29.107920588513
7	393	941.722088677921	28.220967874318
7	394	941.826821209059	18.370250236198
7	406	962.145290739961	37.654954985836
7	409	968.691049193835	24.254956894911
7	410	969.634018485098	15.737191814853
7	413	978.585430341042	22.800797234293
7	414	983.649668803015	24.246740428509
7	417	987.482941698199	19.827443567733
7	420	993.198829525447	15.471302550861
7	421	1000.401169588107	13.91782416857
7	424	1000.990064801832	8.335222364452
7	425	1004.093750684786	3.631564102944
7	428	1007.67114497375	1.494418030553
7	431	1012.200372809702	0.428384389332
7	436	1021.193016462047	8.680370086141
7	437	1021.429885443834	4.002478387203
7	440	1023.510871565721	0.177685680432
7	443	1035.575057615901	0
7	450	1048.972202077691	12.574659184984
7	451	1052.439631498736	14.068512192996
7	454	1053.556731603228	11.485424505751
7	455	1057.335279026649	4.023323425762
7	458	1068.628170045546	0
7	461	1069.251293031539	0.514040640639
7	464	1079.083287759089	2.524838428334
7	467	1085.269920578633	0
7	470	1090.503816550838	0
7	473	1108.756096424927	0
7	476	1110.62788698317	1.613846831403
7	479	1111.825117276107	0
7	482	1117.188075728243	0
7	511	1198.683697529651	80.110356492846
7	512	1202.054845022725	77.367696027116
7	513	1206.837204057077	76.711177250147
7	514	1210.604889750854	64.660392384388
7	515	1214.890693577887	23.816386661053
7	518	1224.317871195993	0
7	524	1239.415299962359	0
7	527	1241.319226478284	0
7	530	1246.698348383056	0
7	533	1249.075240055608	0
7	539	1265.971435024487	3.742752896134
7	594	1415.049671165314	133.59308483302
7	595	1417.444881232913	131.57626276882
7	596	1421.664486948954	133.66857687767
7	599	1430.298497144341	140.19348270228
7	604	1435.084528891397	138.02041386592
7	609	1447.859197469063	138.60819413687
7	616	1463.590331415537	140.61994994115
7	617	1467.926870749185	140.87257785302
7	618	1469.94336092318	132.5169874419
7	619	1470.899433917189	131.32878109152
7	620	1475.454287511262	121.88040633842
7	621	1476.459453622193	121.94286852961
7	622	1478.071500152042	56.226180614839
7	623	1478.433880186059	45.356424321477
7	624	1481.227051445965	46.656484511452
7	625	1482.30761200849	45.606738698559
7	626	1485.561271871263	41.262100778842
7	627	1486.112118618154	37.643158792705
7	630	1489.718385186734	38.134725296009
7	631	1493.633841143243	31.493170373844
7	632	1495.419661626437	8.868542328868
7	635	1496.223907441521	0
7	638	1523.68482419876	0
7	641	1535.830083928314	0
7	647	1567.953292562598	15.798012411868
7	650	1569.963386820928	0.849775002885
7	653	1574.59712260323	0
7	665	1606.260817498423	28.477195083726
7	666	1611.338833845214	28.012949919666
7	672	1624.434667067622	36.433687066518
7	673	1626.032315603843	33.436163248041
7	683	1645.764812133554	32.138622385063
7	684	1646.114489705041	17.125904755162
7	685	1646.353305514323	9.794117332233
7	688	1651.409993397645	10.768897158387
7	689	1653.066076692439	2.147657639483
7	698	1666.984750789281	3.199045974197
7	701	1667.835997537442	0.831693386846
7	706	1675.429824719202	0.784827800723
7	707	1681.346713758257	5.939845569646
7	710	1685.046700122903	1.425324916968
7	713	1691.870758945599	0
7	716	1720.321633944097	0
7	719	1728.242047121611	0
7	722	1733.304477625183	0
7	731	1747.09593500378	13.018694474974
7	734	1749.106217700249	12.983027167091
7	741	1763.301178346801	26.391414915553
7	744	1768.85545928252	23.811332572867
7	745	1776.12072392929	27.556494848153
7	746	1780.567375771677	31.297714725645
7	747	1780.633161777793	31.195179183365
7	748	1783.454754550918	30.110343040942
7	751	1784.676359117845	16.260365896281
7	752	1796.298368337052	12.08935807232
7	762	1803.356574835922	3.177897458681
7	763	1806.264452137623	5.306115971633
7	766	1817.905519228326	14.941946319198
7	769	1819.266815650399	10.591958356661
7	770	1821.680407887055	3.185541031553
7	773	1823.325570591196	0.255218781048
7	776	1825.915607124561	1.999591132482
7	779	1834.242923632817	0
7	800	1892.548757497493	7.87454607171
7	807	1905.880437032169	11.305668567885
7	814	1915.506173279123	17.571229972348
7	815	1917.446221032157	18.424811653726
7	816	1917.932547029286	9.660841022207
7	819	1920.380356992281	8.484927637249
7	822	1924.221755945048	9.497367130987
7	823	1930.148023438276	10.657032215489
7	824	1933.301820833675	10.060058415268
7	827	1944.914206401752	7.989823813432
7	845	1996.852564250049	35.351041324002
7	846	1998.913526827256	33.696865281522
7	847	2001.188969956339	25.045710273448
7	850	2004.098673490409	26.992588376256
7	855	2014.862596944173	12.813430257538
7	856	2017.70077005431	9.001971179964
7	857	2024.350821998109	9.52601702401
7	860	2026.435831902888	0
7	863	2033.645065085951	6.898445807704
7	866	2034.2767880203	0
7	874	2044.342819884699	3.510685576247
7	877	2044.991246993193	3.259745019416
7	878	2049.054608914127	4.660433350375
7	881	2057.540071414153	0
7	887	2071.946140817897	7.267491388844
7	890	2075.167217587777	2.727278515867
7	893	2100.643440090761	0
7	896	2109.735389103771	0
7	899	2114.55518655679	0
7	902	2119.70008837266	0
7	908	2141.252353958549	0
7	911	2145.214967111336	0
7	914	2156.225819555676	0
7	931	2190.714963304525	27.913127112811
7	932	2190.877734433701	14.478166637106
7	935	2206.400218154673	0
7	941	2212.910426022293	0
7	947	2219.057204148936	5.782866175691
7	961	2255.080039231463	31.257515292476
7	962	2255.538159204028	26.019776460374
7	963	2257.513056587147	20.156529701824
7	966	2261.911861727324	19.742464390094
7	967	2262.458367262407	12.646537081759
7	968	2262.479927014127	1.802779453446
7	980	2283.582348013558	7.200990664536
7	983	2292.905077387364	7.711422883725
7	1005	2319.539599053267	19.945941236325
7	1008	2321.430901917006	15.513342007538
7	1009	2321.962640671224	13.912668110037
7	1010	2322.673422500151	11.373213832742
7	1011	2322.760756639939	11.243443311952
7	1027	2360.608173579648	43.504184706411
7	1028	2363.488138839098	42.2356093612
7	1029	2366.922333530887	42.027873449648
7	1032	2372.14049129218	43.245105671825
7	1033	2380.75115344908	35.592443007214
7	1034	2386.624328719953	19.368973464335
7	1037	2398.894491721386	5.409974865536
7	1040	2409.027012630994	0
7	1043	2414.534346640401	0
7	1048	2421.443238382614	2.540546340075
7	1049	2423.336915986768	3.843499055331
7	1052	2432.165685310105	0
7	1060	2443.554657097163	6.168109220482
7	1061	2447.994899375231	8.679711728495
7	1067	2461.210077954654	0
7	1070	2464.126858247645	0.526113797013
7	1073	2468.747123379018	3.860508250621
8	161	389.085904699125	37
8	162	393.057101626774	38
8	165	401.857598750158	39
8	180	465.464527499829	40
8	181	465.547855775233	41
8	184	471.183841255121	42
8	185	471.276169559861	43
8	186	471.680734175725	44
8	189	494.89955654877	45
8	192	502.690024405574	46
8	204	548.769846559163	47
8	207	560.066968527906	48
8	210	572.483846608994	49
8	215	582.817640405173	50
8	216	589.351879802236	51
8	234	634.98410188504	52
8	243	645.589488939457	53
8	244	645.939099536474	54
8	247	651.242541895613	55
8	258	679.875885418524	56
8	264	690.55284482776	57
8	265	693.96643630442	58
8	266	694.482606233244	59
8	269	706.776275615664	60
8	270	709.181026518499	61
8	273	710.156588864892	62
8	276	712.290124505076	63
8	279	718.410959977062	64
8	283	725.532062908825	65
8	284	728.269624076705	66
8	285	731.241276041265	67
8	296	783.874643463872	68
8	299	786.247896153485	69
8	302	788.737393894345	70
8	305	792.929043352392	71
8	306	793.132846701422	72
8	309	794.972709106469	73
8	312	797.254896456671	74
8	315	798.018642911777	75
8	321	801.059971959124	76
8	324	806.336145234736	77
8	327	814.393566937885	78
8	333	838.960351250319	79
8	336	844.766550739641	80
8	339	851.041842189007	81
8	342	852.5643442583	82
8	345	857.321374315722	83
8	362	894.619108737342	84
8	383	914.594886352062	85
8	384	917.706756491783	86
8	387	923.547896272782	87
8	391	936.704935749094	88
8	392	940.014618784338	89
8	393	941.722088677921	90
8	394	941.826821209059	91
8	409	968.691049193835	92
8	410	969.634018485098	93
8	413	978.585430341042	94
8	414	983.649668803015	95
8	417	987.482941698199	96
8	420	993.198829525447	97
8	421	1000.401169588107	98
8	424	1000.990064801832	99
8	425	1004.093750684786	100
8	428	1007.67114497375	101
8	437	1021.429885443834	102
8	440	1023.510871565721	103
8	441	1026.610080112405	104
8	451	1052.439631498736	105
8	454	1053.556731603228	106
8	455	1057.335279026649	107
8	456	1058.247234962946	108
8	461	1069.251293031539	109
8	464	1079.083287759089	110
8	465	1081.914763630705	111
8	468	1085.49830852643	112
8	471	1094.903269342322	113
8	476	1110.62788698317	114
8	477	1111.348280715412	115
8	480	1112.875333730095	116
8	512	1202.054845022725	117
8	513	1206.837204057077	118
8	514	1210.604889750854	119
8	515	1214.890693577887	120
8	516	1217.328149309669	121
8	519	1228.852742116529	122
8	525	1241.105491036131	123
8	528	1242.116479882789	124
8	531	1246.915436910729	125
8	534	1249.627577382209	126
8	540	1269.502295630008	127
8	595	1417.444881232913	128
8	596	1421.664486948954	129
8	599	1430.298497144341	130
8	604	1435.084528891397	131
8	609	1447.859197469063	132
8	617	1467.926870749185	133
8	618	1469.94336092318	134
8	619	1470.899433917189	135
8	620	1475.454287511262	136
8	621	1476.459453622193	137
8	622	1478.071500152042	138
8	623	1478.433880186059	139
8	624	1481.227051445965	140
8	625	1482.30761200849	141
8	626	1485.561271871263	142
8	627	1486.112118618154	143
8	630	1489.718385186734	144
8	631	1493.633841143243	145
8	632	1495.419661626437	146
8	633	1495.891247069956	147
8	636	1497.948011845983	148
8	639	1529.144615921946	149
8	642	1536.592719700798	150
8	650	1569.963386820928	151
8	651	1570.480919403621	152
8	666	1611.338833845214	153
8	673	1626.032315603843	154
8	684	1646.114489705041	155
8	685	1646.353305514323	156
8	688	1651.409993397645	157
8	689	1653.066076692439	158
8	690	1653.39004499893	159
8	701	1667.835997537442	160
8	706	1675.429824719202	161
8	707	1681.346713758257	162
8	710	1685.046700122903	163
8	711	1689.858612230485	164
8	714	1692.003571041536	165
8	717	1723.176249531762	166
8	720	1730.066793363307	167
8	734	1749.106217700249	168
8	744	1768.85545928252	169
8	745	1776.12072392929	170
8	746	1780.567375771677	171
8	747	1780.633161777793	172
8	748	1783.454754550918	173
8	751	1784.676359117845	174
8	752	1796.298368337052	175
8	753	1797.891831509174	176
8	763	1806.264452137623	177
8	766	1817.905519228326	178
8	770	1821.680407887055	179
8	773	1823.325570591196	180
8	776	1825.915607124561	181
8	777	1830.600690493285	182
8	780	1838.205336527838	183
8	814	1915.506173279123	184
8	815	1917.446221032157	185
8	816	1917.932547029286	186
8	819	1920.380356992281	187
8	822	1924.221755945048	188
8	823	1930.148023438276	189
8	824	1933.301820833675	190
8	827	1944.914206401752	191
8	828	1948.445086322495	192
8	846	1998.913526827256	193
8	847	2001.188969956339	194
8	850	2004.098673490409	195
8	856	2017.70077005431	196
8	857	2024.350821998109	197
8	858	2024.366798355818	198
8	863	2033.645065085951	199
8	864	2034.103276415899	200
8	867	2034.760062571342	201
8	877	2044.991246993193	202
8	878	2049.054608914127	203
8	879	2052.226427599269	204
8	882	2058.379504749518	205
8	891	2080.364996948266	206
8	894	2101.69713468038	207
8	897	2111.759962061512	208
8	900	2115.716643902313	209
8	903	2120.705573643606	210
8	909	2142.633227277348	211
8	912	2146.254180247545	212
8	915	2161.13052740357	213
8	932	2190.877734433701	214
8	933	2197.783779339349	215
8	936	2206.608474650555	216
8	948	2220.341285856948	217
8	962	2255.538159204028	218
8	963	2257.513056587147	219
8	966	2261.911861727324	220
8	967	2262.458367262407	221
8	968	2262.479927014127	222
8	969	2265.633285258934	223
8	984	2294.731590709921	224
8	1008	2321.430901917006	225
8	1009	2321.962640671224	226
8	1010	2322.673422500151	227
8	1011	2322.760756639939	228
8	1028	2363.488138839098	229
8	1029	2366.922333530887	230
8	1033	2380.75115344908	231
8	1034	2386.624328719953	232
8	1037	2398.894491721386	233
8	1038	2406.153866414319	234
8	1041	2409.280872776055	235
8	1048	2421.443238382614	236
8	1049	2423.336915986768	237
8	1050	2423.854214049277	238
8	1053	2433.996197173191	239
8	1061	2447.994899375231	240
8	1062	2453.266578435664	241
8	1070	2464.126858247645	242
8	1073	2468.747123379018	243
8	1074	2469.414865414926	244
9	161	389.085904699125	9.477809385771
9	162	393.057101626774	7.900059593228
9	165	401.857598750158	2.629365100676
9	180	465.464527499829	39.170109746959
9	181	465.547855775233	21.887573044719
9	184	471.183841255121	22.301070905534
9	185	471.276169559861	13.138792133028
9	186	471.680734175725	5.85421523717
9	189	494.89955654877	0.066300969178
9	192	502.690024405574	2.867354658362
9	204	548.769846559163	3.396721474178
9	207	560.066968527906	3.740404808467
9	210	572.483846608994	0.242090005854
9	215	582.817640405173	6.953861160978
9	216	589.351879802236	11.470046833952
9	234	634.98410188504	16.377639572477
9	243	645.589488939457	24.299399301793
9	244	645.939099536474	21.349517891388
9	247	651.242541895613	24.082733278754
9	258	679.875885418524	41.180296785476
9	264	690.55284482776	48.901239714998
9	265	693.96643630442	45.519871281083
9	266	694.482606233244	41.820471232133
9	269	706.776275615664	50.226525804914
9	270	709.181026518499	29.784641943249
9	273	710.156588864892	28.168366781878
9	276	712.290124505076	29.317004984219
9	279	718.410959977062	23.473445010684
9	283	725.532062908825	13.773249967128
9	284	728.269624076705	13.524560794269
9	285	731.241276041265	8.631564924049
9	296	783.874643463872	3.348639528804
9	299	786.247896153485	4.203743240138
9	302	788.737393894345	3.618691568877
9	305	792.929043352392	6.100110891872
9	306	793.132846701422	0.921111298179
9	309	794.972709106469	0.321815360213
9	312	797.254896456671	1.090250737682
9	315	798.018642911777	0.099435623473
9	321	801.059971959124	0.400795402186
9	324	806.336145234736	4.190584166239
9	327	814.393566937885	3.388381959065
9	333	838.960351250319	1.359001104678
9	336	844.766550739641	1.957658326846
9	339	851.041842189007	0.182616450821
9	342	852.5643442583	0.491661769445
9	345	857.321374315722	1.16141586965
9	362	894.619108737342	16.846035149806
9	383	914.594886352062	18.304476727432
9	384	917.706756491783	21.262982861174
9	387	923.547896272782	23.94204625342
9	391	936.704935749094	27.859060815915
9	392	940.014618784338	30.94584130375
9	393	941.722088677921	30.815390482096
9	394	941.826821209059	28.325700405456
9	409	968.691049193835	44.20071343971
9	410	969.634018485098	25.197926186174
9	413	978.585430341042	24.688603670797
9	414	983.649668803015	27.865035696266
9	417	987.482941698199	28.080013323693
9	420	993.198829525447	25.543331394981
9	421	1000.401169588107	22.673642613521
9	424	1000.990064801832	14.506719382295
9	425	1004.093750684786	11.438908247406
9	428	1007.67114497375	7.208958391908
9	437	1021.429885443834	8.917239067928
9	440	1023.510871565721	6.08346450909
9	441	1026.610080112405	3.276894227116
9	451	1052.439631498736	16.042088606029
9	454	1053.556731603228	15.185612297488
9	455	1057.335279026649	15.263971929172
9	456	1058.247234962946	4.935279362059
9	461	1069.251293031539	0.623122985993
9	464	1079.083287759089	10.346035368189
9	465	1081.914763630705	5.35631429995
9	468	1085.49830852643	0.228387947797
9	471	1094.903269342322	4.399452791484
9	476	1110.62788698317	1.871790558243
9	477	1111.348280715412	2.334240563645
9	480	1112.875333730095	1.050216453988
9	512	1202.054845022725	83.48150398592
9	513	1206.837204057077	82.150055061468
9	514	1210.604889750854	80.478862943924
9	515	1214.890693577887	68.946196211421
9	516	1217.328149309669	26.253842392835
9	519	1228.852742116529	4.534870920536
9	525	1241.105491036131	1.690191073772
9	528	1242.116479882789	0.797253404505
9	531	1246.915436910729	0.217088527673
9	534	1249.627577382209	0.552337326601
9	540	1269.502295630008	7.273613501655
9	595	1417.444881232913	135.98829490062
9	596	1421.664486948954	135.79586848486
9	599	1430.298497144341	142.30258707306
9	604	1435.084528891397	144.97951444934
9	609	1447.859197469063	150.79508244358
9	617	1467.926870749185	144.9564892748
9	618	1469.94336092318	142.88906802701
9	619	1470.899433917189	133.47306043591
9	620	1475.454287511262	135.88363468559
9	621	1476.459453622193	122.88557244935
9	622	1478.071500152042	123.55491505946
9	623	1478.433880186059	56.588560648856
9	624	1481.227051445965	48.149595581383
9	625	1482.30761200849	47.737045073977
9	626	1485.561271871263	48.860398561332
9	627	1486.112118618154	41.812947525733
9	630	1489.718385186734	41.249425361285
9	631	1493.633841143243	42.050181252518
9	632	1495.419661626437	33.278990857038
9	633	1495.891247069956	9.340127772387
9	636	1497.948011845983	1.724104404462
9	639	1529.144615921946	5.459791723186
9	642	1536.592719700798	0.762635772484
9	650	1569.963386820928	17.808106670198
9	651	1570.480919403621	1.367307585578
9	666	1611.338833845214	33.555211430517
9	673	1626.032315603843	38.031335602739
9	684	1646.114489705041	32.48829995655
9	685	1646.353305514323	17.364720564444
9	688	1651.409993397645	14.850805215555
9	689	1653.066076692439	12.424980453181
9	690	1653.39004499893	2.471625945974
9	701	1667.835997537442	4.050292722358
9	706	1675.429824719202	8.425520568606
9	707	1681.346713758257	6.701716839778
9	710	1685.046700122903	9.639831934292
9	711	1689.858612230485	6.23723702455
9	714	1692.003571041536	0.132812095937
9	717	1723.176249531762	2.854615587665
9	720	1730.066793363307	1.824746241696
9	734	1749.106217700249	15.028977171443
9	744	1768.85545928252	31.945695851272
9	745	1776.12072392929	31.076597219637
9	746	1780.567375771677	32.00314669054
9	747	1780.633161777793	31.363500731761
9	748	1783.454754550918	34.01677195649
9	751	1784.676359117845	31.331947607869
9	752	1796.298368337052	27.882375115488
9	753	1797.891831509174	13.682821244442
9	763	1806.264452137623	6.085774760382
9	766	1817.905519228326	16.947183062336
9	770	1821.680407887055	13.005550593317
9	773	1823.325570591196	4.830703735694
9	776	1825.915607124561	2.845255314413
9	777	1830.600690493285	6.684674501206
9	780	1838.205336527838	3.962412895021
9	814	1915.506173279123	20.931404814839
9	815	1917.446221032157	19.511277725382
9	816	1917.932547029286	18.911137650855
9	819	1920.380356992281	12.108650985202
9	822	1924.221755945048	12.326326590016
9	823	1930.148023438276	15.423634624215
9	824	1933.301820833675	13.810829610888
9	827	1944.914206401752	21.672443983345
9	828	1948.445086322495	11.520703734175
9	846	1998.913526827256	37.412003901209
9	847	2001.188969956339	35.972308410605
9	850	2004.098673490409	27.955413807518
9	856	2017.70077005431	15.651603367675
9	857	2024.350821998109	15.652023123763
9	858	2024.366798355818	9.541993381719
9	863	2033.645065085951	7.209233183063
9	864	2034.103276415899	7.356657137652
9	867	2034.760062571342	0.483274551042
9	877	2044.991246993193	4.159112684741
9	878	2049.054608914127	7.32310694035
9	879	2052.226427599269	7.832252035517
9	882	2058.379504749518	0.839433335365
9	891	2080.364996948266	7.925057876356
9	894	2101.69713468038	1.053694589619
9	897	2111.759962061512	2.024572957741
9	900	2115.716643902313	1.161457345523
9	903	2120.705573643606	1.005485270946
9	909	2142.633227277348	1.380873318799
9	912	2146.254180247545	1.039213136209
9	915	2161.13052740357	4.904707847894
9	932	2190.877734433701	28.075898241987
9	933	2197.783779339349	21.384211542754
9	936	2206.608474650555	0.208256495882
9	948	2220.341285856948	7.066947883703
9	962	2255.538159204028	31.715635265041
9	963	2257.513056587147	27.994673843493
9	966	2261.911861727324	24.555334842001
9	967	2262.458367262407	20.288969925177
9	968	2262.479927014127	12.668096833479
9	969	2265.633285258934	4.956137698253
9	984	2294.731590709921	9.537936206282
9	1008	2321.430901917006	21.837244100064
9	1009	2321.962640671224	16.045080761756
9	1010	2322.673422500151	14.623449938964
9	1011	2322.760756639939	11.46054797253
9	1028	2363.488138839098	46.384149965861
9	1029	2366.922333530887	45.669804052989
9	1033	2380.75115344908	51.855767828725
9	1034	2386.624328719953	41.465618278087
9	1037	2398.894491721386	31.639136465768
9	1038	2406.153866414319	12.669349558469
9	1041	2409.280872776055	0.253860145061
9	1048	2421.443238382614	6.908891742213
9	1049	2423.336915986768	4.434223944229
9	1050	2423.854214049277	4.36079711784
9	1053	2433.996197173191	1.830511863086
9	1061	2447.994899375231	10.60835149855
9	1062	2453.266578435664	13.951390788928
9	1070	2464.126858247645	2.916780292991
9	1073	2468.747123379018	5.146378928386
9	1074	2469.414865414926	4.528250286529
10	202	545.373125084985	6
10	249	652.662135001111	7
10	260	681.988222083014	8
10	281	722.609711117216	9
10	364	896.29040962463	10
10	389	924.490335754125	11
10	396	944.436092298924	12
10	430	1011.77198842037	13
10	433	1012.512646375906	14
10	447	1038.37111930574	15
10	486	1124.687148995609	16
10	611	1448.468959825449	17
10	657	1583.325883925548	18
10	668	1613.626189748491	19
10	675	1628.988584949879	20
10	724	1734.077240528806	21
10	738	1749.437982594428	22
10	768	1818.494866855502	23
10	802	1894.574768464284	24
10	852	2008.698798874346	25
10	889	2072.43993907191	26
10	943	2213.274337973245	27
10	982	2285.193654503639	28
10	1015	2328.895385620355	29
10	1031	2367.255355255618	30
11	1075	2500	0.0976
12	1075	2500	0.0456

