version 2
run experiments_hard_game_mode1-327-20230311-19:40:31-6304
attr configname experiments_hard_game_mode1
attr datetime 20230311-19:40:31
attr experiment experiments_hard_game_mode1
attr inifile omnetpp.ini
attr iterationvars "$0=8, $1=3, $2=0"
attr iterationvarsf 8,3,0-
attr measurement "$0=8, $1=3, $2=0"
attr network Network
attr processid 6304
attr repetition 27
attr replication #27
attr resultdir results
attr runnumber 327
attr seedset 27
param *.boss.arrival_mean 20
param *.boss.service_mean 8
param *.minion.arrival_mean 10
param *.minion.service_mean 3
param *.player.recover_rate_x 0
param **.minion.arrival_distribution 0
param **.minion.service_distribution 0
param **.boss.arrival_distribution 0
param **.boss.service_distribution 0

vector 0 Network.player boss_jobs_number_stat:vector ETV
attr source signal_boss_jobs_number
vector 1 Network.player boss_jobs_queue_number_stat:vector ETV
attr source signal_boss_jobs_queue_number
vector 2 Network.player boss_waiting_time_stat:vector ETV
attr source signal_boss_waiting_time
vector 3 Network.player boss_defeated_stat:vector ETV
attr source signal_boss_defeated
vector 4 Network.player boss_response_time_stat:vector ETV
attr source signal_boss_response_time
vector 5 Network.player minion_jobs_number_stat:vector ETV
attr source signal_minion_jobs_number
vector 6 Network.player minion_jobs_queue_number_stat:vector ETV
attr source signal_minion_jobs_queue_number
vector 7 Network.player minion_waiting_time_stat:vector ETV
attr source signal_minion_waiting_time
vector 8 Network.player minion_defeated_stat:vector ETV
attr source signal_minion_defeated
vector 9 Network.player minion_response_time_stat:vector ETV
attr source signal_minion_response_time
vector 10 Network.player minion_recovered_stat:vector ETV
attr source signal_minion_recovered
vector 11 Network.player minion_throughput:vector ETV
attr source signal_minion_throughput
vector 12 Network.player boss_throughput:vector ETV
attr source signal_boss_throughput
0	152	368.831334544424	1
0	155	389.110670426301	1
0	157	392.470448185346	2
0	164	406.857955342912	1
0	175	426.413797271532	1
0	177	428.216150320548	2
0	179	429.56556717974	3
0	188	439.368663954059	3
0	193	453.418493226684	3
0	196	460.280800586182	3
0	202	465.421436393306	4
0	204	468.331227174635	5
0	234	532.267433263168	1
0	236	532.47057314743	2
0	250	551.950976185058	1
0	255	562.599858163725	1
0	265	566.167079330092	2
0	276	579.735833390176	1
0	282	587.83685848517	1
0	284	588.269454985046	2
0	286	589.0392234944	3
0	290	605.436577269174	2
0	297	613.330361908421	1
0	299	614.946250003507	2
0	305	625.020069418922	1
0	314	635.493773863116	1
0	316	651.93908874367	2
0	321	659.479702327961	2
0	323	660.616830717591	3
0	329	690.058304817686	2
0	338	724.440579512485	2
0	348	742.817448148488	1
0	352	750.436630718249	2
0	355	761.240283547267	2
0	357	768.129381117159	3
0	362	776.291255989424	3
0	382	836.22542674111	1
0	384	836.732694464763	2
0	406	886.875913427531	1
0	408	888.751654418823	2
0	415	906.16981819263	1
0	428	944.66435003739	1
0	454	972.102428593869	1
0	463	985.612944754038	1
0	467	992.436786322198	1
0	472	998.179883676915	1
0	475	1002.472414686305	1
0	495	1031.121101478372	1
0	507	1059.823730250331	1
0	513	1075.364437874632	2
0	556	1170.367082354032	1
0	560	1180.109766243292	1
0	573	1212.664506770435	1
0	587	1233.325160215043	1
0	602	1269.88515367764	1
0	604	1273.651998237192	2
0	607	1278.05293541854	2
0	615	1302.754338639653	3
0	617	1305.574118968634	4
0	621	1306.39506238908	5
0	625	1314.661552737215	6
0	638	1332.983630237907	4
0	651	1359.150555686224	2
0	655	1363.697256601952	1
0	692	1444.719652389594	1
0	696	1450.44504109149	2
0	698	1450.821689742854	3
0	703	1461.008519765219	3
0	720	1486.539293398296	1
0	731	1511.564798431682	1
0	737	1522.912315959582	1
0	758	1554.359213467081	1
0	769	1573.55463600345	1
0	785	1618.60610114374	1
0	794	1647.732977010864	1
0	796	1652.716300240126	2
0	815	1699.903565993872	1
0	817	1700.164731177748	2
0	820	1704.09610134274	2
0	836	1732.70694833244	1
0	841	1739.431147144398	1
0	845	1743.465202265492	2
0	849	1749.865499275879	3
0	862	1781.419902188234	1
0	868	1794.03587162119	2
0	914	1854.253817291772	1
0	935	1890.882005542659	1
0	937	1890.959832848247	2
0	944	1906.259346134547	1
0	953	1951.970516732074	1
0	959	1972.812470886184	2
0	979	2016.313752534131	1
0	987	2026.634220104932	1
0	1013	2113.398607569763	1
0	1016	2122.859661153812	1
0	1037	2162.021322230943	1
0	1040	2165.890783281384	1
0	1042	2172.746428742143	2
0	1052	2189.245132141111	1
0	1067	2233.879336630663	1
0	1072	2239.267804364735	1
0	1084	2252.616090301519	1
0	1113	2345.378507754397	1
0	1120	2358.900332232856	1
0	1125	2370.717925181556	1
0	1139	2418.046391651931	1
0	1142	2423.759721043991	1
0	1148	2453.422693129747	1
0	1150	2458.491186840242	2
0	1160	2480.169364514395	1
1	152	368.831334544424	0
1	153	377.219952699725	0
1	155	389.110670426301	0
1	157	392.470448185346	1
1	158	393.471584850959	1
1	161	400.836033648824	0
1	164	406.857955342912	0
1	165	409.039589871283	0
1	175	426.413797271532	0
1	177	428.216150320548	1
1	179	429.56556717974	2
1	184	436.379745020853	2
1	188	439.368663954059	2
1	189	439.67550908759	2
1	193	453.418493226684	2
1	194	459.926037560839	2
1	196	460.280800586182	2
1	202	465.421436393306	3
1	204	468.331227174635	4
1	209	497.358696186471	4
1	210	498.237544633254	3
1	211	500.40914306994	2
1	216	506.41463835794	1
1	219	507.092068907243	0
1	234	532.267433263168	0
1	236	532.47057314743	1
1	237	534.915706406742	1
1	242	543.775322025272	0
1	250	551.950976185058	0
1	253	560.252348862912	0
1	255	562.599858163725	0
1	265	566.167079330092	1
1	268	570.366740085021	1
1	271	571.935332874453	0
1	276	579.735833390176	0
1	277	582.300269686845	0
1	282	587.83685848517	0
1	284	588.269454985046	1
1	286	589.0392234944	2
1	287	598.02911062029	2
1	288	603.051303836786	1
1	290	605.436577269174	1
1	291	606.889279517037	1
1	292	607.897121616025	0
1	297	613.330361908421	0
1	299	614.946250003507	1
1	300	621.160725985902	1
1	301	621.775407744008	0
1	305	625.020069418922	0
1	308	627.087283942831	0
1	314	635.493773863116	0
1	316	651.93908874367	1
1	317	653.976629671	1
1	321	659.479702327961	1
1	323	660.616830717591	2
1	324	665.665183899592	2
1	325	678.302762702601	1
1	329	690.058304817686	1
1	332	711.709799581285	1
1	338	724.440579512485	1
1	339	726.398984711508	1
1	342	731.592503707123	0
1	348	742.817448148488	0
1	352	750.436630718249	1
1	353	756.32561978321	1
1	355	761.240283547267	1
1	357	768.129381117159	2
1	358	768.734608476168	2
1	362	776.291255989424	2
1	371	806.378821590294	2
1	374	815.908470439626	1
1	377	822.7967156341	0
1	382	836.22542674111	0
1	384	836.732694464763	1
1	389	851.078466837572	1
1	392	864.524516889779	0
1	406	886.875913427531	0
1	408	888.751654418823	1
1	409	897.238827451343	1
1	410	901.614843142161	0
1	415	906.16981819263	0
1	416	908.690854958284	0
1	428	944.66435003739	0
1	429	944.887003552534	0
1	454	972.102428593869	0
1	461	985.154130438103	0
1	463	985.612944754038	0
1	464	990.456037516867	0
1	467	992.436786322198	0
1	468	997.16550608971	0
1	472	998.179883676915	0
1	473	999.070251379358	0
1	475	1002.472414686305	0
1	482	1018.801937064897	0
1	495	1031.121101478372	0
1	500	1044.716880422932	0
1	507	1059.823730250331	0
1	513	1075.364437874632	1
1	514	1082.059810652993	1
1	515	1091.631227650387	0
1	556	1170.367082354032	0
1	557	1173.220628439049	0
1	560	1180.109766243292	0
1	561	1186.774290736471	0
1	573	1212.664506770435	0
1	574	1214.853543639357	0
1	587	1233.325160215043	0
1	588	1235.889307323672	0
1	602	1269.88515367764	0
1	604	1273.651998237192	1
1	605	1276.285384977453	1
1	607	1278.05293541854	1
1	615	1302.754338639653	2
1	617	1305.574118968634	3
1	621	1306.39506238908	4
1	625	1314.661552737215	5
1	634	1328.164886526936	5
1	635	1331.558145384093	4
1	636	1332.746535758117	3
1	638	1332.983630237907	3
1	647	1343.210045371376	3
1	648	1350.85478335332	2
1	649	1354.27069764919	1
1	651	1359.150555686224	1
1	652	1359.579968655524	1
1	653	1362.388453476408	0
1	655	1363.697256601952	0
1	656	1367.851171054929	0
1	692	1444.719652389594	0
1	696	1450.44504109149	1
1	698	1450.821689742854	2
1	699	1450.865620332593	2
1	703	1461.008519765219	2
1	704	1461.27680899576	2
1	705	1461.765748319488	1
1	706	1464.884221811779	0
1	720	1486.539293398296	0
1	721	1494.830617930736	0
1	731	1511.564798431682	0
1	732	1515.658680678531	0
1	737	1522.912315959582	0
1	746	1531.789899495434	0
1	758	1554.359213467081	0
1	761	1557.432362601828	0
1	769	1573.55463600345	0
1	770	1573.616237636394	0
1	785	1618.60610114374	0
1	792	1642.139361089405	0
1	794	1647.732977010864	0
1	796	1652.716300240126	1
1	797	1663.075399059895	1
1	806	1683.153095999696	0
1	815	1699.903565993872	0
1	817	1700.164731177748	1
1	818	1700.550932756318	1
1	820	1704.09610134274	1
1	823	1714.00031088218	1
1	826	1717.446992819561	0
1	836	1732.70694833244	0
1	837	1732.984318326968	0
1	841	1739.431147144398	0
1	845	1743.465202265492	1
1	849	1749.865499275879	2
1	850	1752.336435437636	2
1	857	1775.30657209127	1
1	858	1776.639529428596	0
1	862	1781.419902188234	0
1	868	1794.03587162119	1
1	873	1805.456337462422	1
1	874	1808.508481166271	0
1	914	1854.253817291772	0
1	919	1867.397404708694	0
1	935	1890.882005542659	0
1	937	1890.959832848247	1
1	938	1893.075139883603	1
1	939	1898.326238007313	0
1	944	1906.259346134547	0
1	945	1909.839351314343	0
1	953	1951.970516732074	0
1	959	1972.812470886184	1
1	962	1979.20234093715	1
1	967	1994.36440301001	0
1	979	2016.313752534131	0
1	984	2020.630010271853	0
1	987	2026.634220104932	0
1	994	2029.853386284619	0
1	1013	2113.398607569763	0
1	1014	2116.470273470136	0
1	1016	2122.859661153812	0
1	1017	2125.671726891708	0
1	1037	2162.021322230943	0
1	1038	2162.153958234389	0
1	1040	2165.890783281384	0
1	1042	2172.746428742143	1
1	1043	2173.647970069031	1
1	1044	2173.959409759095	0
1	1052	2189.245132141111	0
1	1053	2192.282349703834	0
1	1067	2233.879336630663	0
1	1068	2234.315743504621	0
1	1072	2239.267804364735	0
1	1075	2241.709585914367	0
1	1084	2252.616090301519	0
1	1085	2253.711457636411	0
1	1113	2345.378507754397	0
1	1118	2358.820765785405	0
1	1120	2358.900332232856	0
1	1121	2359.171956978055	0
1	1125	2370.717925181556	0
1	1128	2384.252418295645	0
1	1139	2418.046391651931	0
1	1140	2420.100212422008	0
1	1142	2423.759721043991	0
1	1143	2430.954082159128	0
1	1148	2453.422693129747	0
1	1150	2458.491186840242	1
1	1151	2459.703194944469	1
1	1154	2465.416225052542	0
1	1160	2480.169364514395	0
1	1163	2481.743576549616	0
2	152	368.831334544424	0
2	155	389.110670426301	0
2	158	393.471584850959	1.001136665613
2	164	406.857955342912	0
2	175	426.413797271532	0
2	184	436.379745020853	8.163594700305
2	189	439.67550908759	10.10994190785
2	194	459.926037560839	20.55737360678
2	209	497.358696186471	43.940202959787
2	210	498.237544633254	37.956744047072
2	211	500.40914306994	34.987706676634
2	216	506.41463835794	38.083411183305
2	234	532.267433263168	0
2	237	534.915706406742	2.445133259312
2	250	551.950976185058	0
2	255	562.599858163725	0
2	268	570.366740085021	4.199660754929
2	276	579.735833390176	0
2	282	587.83685848517	0
2	287	598.02911062029	9.759655635244
2	288	603.051303836786	14.012080342386
2	291	606.889279517037	1.452702247863
2	297	613.330361908421	0
2	300	621.160725985902	6.214475982395
2	305	625.020069418922	0
2	314	635.493773863116	0
2	317	653.976629671	2.03754092733
2	324	665.665183899592	6.185481571631
2	325	678.302762702601	17.68593198501
2	332	711.709799581285	21.651494763599
2	339	726.398984711508	1.958405199023
2	348	742.817448148488	0
2	353	756.32561978321	5.888989064961
2	358	768.734608476168	7.494324928901
2	371	806.378821590294	38.249440473135
2	374	815.908470439626	39.617214450202
2	382	836.22542674111	0
2	389	851.078466837572	14.345772372809
2	406	886.875913427531	0
2	409	897.238827451343	8.48717303252
2	415	906.16981819263	0
2	428	944.66435003739	0
2	454	972.102428593869	0
2	463	985.612944754038	0
2	467	992.436786322198	0
2	472	998.179883676915	0
2	475	1002.472414686305	0
2	495	1031.121101478372	0
2	507	1059.823730250331	0
2	514	1082.059810652993	6.695372778361
2	556	1170.367082354032	0
2	560	1180.109766243292	0
2	573	1212.664506770435	0
2	587	1233.325160215043	0
2	602	1269.88515367764	0
2	605	1276.285384977453	2.633386740261
2	634	1328.164886526936	50.111951108396
2	635	1331.558145384093	28.80380674444
2	636	1332.746535758117	27.172416789483
2	647	1343.210045371376	36.814982982296
2	648	1350.85478335332	36.193230616105
2	649	1354.27069764919	21.287067411283
2	652	1359.579968655524	0.4294129693
2	655	1363.697256601952	0
2	692	1444.719652389594	0
2	699	1450.865620332593	0.420579241103
2	704	1461.27680899576	10.455119252906
2	705	1461.765748319488	0.757228554269
2	720	1486.539293398296	0
2	731	1511.564798431682	0
2	737	1522.912315959582	0
2	758	1554.359213467081	0
2	769	1573.55463600345	0
2	785	1618.60610114374	0
2	794	1647.732977010864	0
2	797	1663.075399059895	10.359098819769
2	815	1699.903565993872	0
2	818	1700.550932756318	0.38620157857
2	823	1714.00031088218	9.90420953944
2	836	1732.70694833244	0
2	841	1739.431147144398	0
2	850	1752.336435437636	8.871233172144
2	857	1775.30657209127	25.441072815391
2	862	1781.419902188234	0
2	873	1805.456337462422	11.420465841232
2	914	1854.253817291772	0
2	935	1890.882005542659	0
2	938	1893.075139883603	2.115307035356
2	944	1906.259346134547	0
2	953	1951.970516732074	0
2	962	1979.20234093715	6.389870050966
2	979	2016.313752534131	0
2	987	2026.634220104932	0
2	1013	2113.398607569763	0
2	1016	2122.859661153812	0
2	1037	2162.021322230943	0
2	1040	2165.890783281384	0
2	1043	2173.647970069031	0.901541326888
2	1052	2189.245132141111	0
2	1067	2233.879336630663	0
2	1072	2239.267804364735	0
2	1084	2252.616090301519	0
2	1113	2345.378507754397	0
2	1120	2358.900332232856	0
2	1125	2370.717925181556	0
2	1139	2418.046391651931	0
2	1142	2423.759721043991	0
2	1148	2453.422693129747	0
2	1151	2459.703194944469	1.212008104227
2	1160	2480.169364514395	0
3	153	377.219952699725	14
3	158	393.471584850959	15
3	161	400.836033648824	16
3	165	409.039589871283	17
3	184	436.379745020853	18
3	189	439.67550908759	19
3	194	459.926037560839	20
3	209	497.358696186471	21
3	210	498.237544633254	22
3	211	500.40914306994	23
3	216	506.41463835794	24
3	219	507.092068907243	25
3	237	534.915706406742	26
3	242	543.775322025272	27
3	253	560.252348862912	28
3	268	570.366740085021	29
3	271	571.935332874453	30
3	277	582.300269686845	31
3	287	598.02911062029	32
3	288	603.051303836786	33
3	291	606.889279517037	34
3	292	607.897121616025	35
3	300	621.160725985902	36
3	301	621.775407744008	37
3	308	627.087283942831	38
3	317	653.976629671	39
3	324	665.665183899592	40
3	325	678.302762702601	41
3	332	711.709799581285	42
3	339	726.398984711508	43
3	342	731.592503707123	44
3	353	756.32561978321	45
3	358	768.734608476168	46
3	371	806.378821590294	47
3	374	815.908470439626	48
3	377	822.7967156341	49
3	389	851.078466837572	50
3	392	864.524516889779	51
3	409	897.238827451343	52
3	410	901.614843142161	53
3	416	908.690854958284	54
3	429	944.887003552534	55
3	461	985.154130438103	56
3	464	990.456037516867	57
3	468	997.16550608971	58
3	473	999.070251379358	59
3	482	1018.801937064897	60
3	500	1044.716880422932	61
3	514	1082.059810652993	62
3	515	1091.631227650387	63
3	557	1173.220628439049	64
3	561	1186.774290736471	65
3	574	1214.853543639357	66
3	588	1235.889307323672	67
3	605	1276.285384977453	68
3	634	1328.164886526936	69
3	635	1331.558145384093	70
3	636	1332.746535758117	71
3	647	1343.210045371376	72
3	648	1350.85478335332	73
3	649	1354.27069764919	74
3	652	1359.579968655524	75
3	653	1362.388453476408	76
3	656	1367.851171054929	77
3	699	1450.865620332593	78
3	704	1461.27680899576	79
3	705	1461.765748319488	80
3	706	1464.884221811779	81
3	721	1494.830617930736	82
3	732	1515.658680678531	83
3	746	1531.789899495434	84
3	761	1557.432362601828	85
3	770	1573.616237636394	86
3	792	1642.139361089405	87
3	797	1663.075399059895	88
3	806	1683.153095999696	89
3	818	1700.550932756318	90
3	823	1714.00031088218	91
3	826	1717.446992819561	92
3	837	1732.984318326968	93
3	850	1752.336435437636	94
3	857	1775.30657209127	95
3	858	1776.639529428596	96
3	873	1805.456337462422	97
3	874	1808.508481166271	98
3	919	1867.397404708694	99
3	938	1893.075139883603	100
3	939	1898.326238007313	101
3	945	1909.839351314343	102
3	962	1979.20234093715	103
3	967	1994.36440301001	104
3	984	2020.630010271853	105
3	994	2029.853386284619	106
3	1014	2116.470273470136	107
3	1017	2125.671726891708	108
3	1038	2162.153958234389	109
3	1043	2173.647970069031	110
3	1044	2173.959409759095	111
3	1053	2192.282349703834	112
3	1068	2234.315743504621	113
3	1075	2241.709585914367	114
3	1085	2253.711457636411	115
3	1118	2358.820765785405	116
3	1121	2359.171956978055	117
3	1128	2384.252418295645	118
3	1140	2420.100212422008	119
3	1143	2430.954082159128	120
3	1151	2459.703194944469	121
3	1154	2465.416225052542	122
3	1163	2481.743576549616	123
4	153	377.219952699725	8.388618155301
4	158	393.471584850959	4.360914424658
4	161	400.836033648824	8.365585463478
4	165	409.039589871283	2.181634528371
4	184	436.379745020853	9.965947749321
4	189	439.67550908759	11.459358767042
4	194	459.926037560839	30.360470381099
4	209	497.358696186471	57.990032232412
4	210	498.237544633254	44.81905140657
4	211	500.40914306994	40.128342483758
4	216	506.41463835794	40.993201964634
4	219	507.092068907243	38.760841732608
4	237	534.915706406742	2.648273143574
4	242	543.775322025272	11.304748877842
4	253	560.252348862912	8.301372677854
4	268	570.366740085021	7.766881921296
4	271	571.935332874453	5.768253544361
4	277	582.300269686845	2.564436296669
4	287	598.02911062029	10.19225213512
4	288	603.051303836786	14.78184885174
4	291	606.889279517037	17.850056022637
4	292	607.897121616025	2.460544346851
4	300	621.160725985902	7.830364077481
4	301	621.775407744008	6.829157740501
4	308	627.087283942831	2.067214523909
4	317	653.976629671	18.482855807884
4	324	665.665183899592	13.726095155922
4	325	678.302762702601	18.82306037464
4	332	711.709799581285	51.092968863694
4	339	726.398984711508	36.340679893822
4	342	731.592503707123	7.151924194638
4	353	756.32561978321	13.508171634722
4	358	768.734608476168	18.297977757919
4	371	806.378821590294	45.138538043027
4	374	815.908470439626	47.779089322467
4	377	822.7967156341	46.505459644676
4	389	851.078466837572	14.853040096462
4	392	864.524516889779	27.791822425016
4	409	897.238827451343	10.362914023812
4	410	901.614843142161	12.863188723338
4	416	908.690854958284	2.521036765654
4	429	944.887003552534	0.222653515144
4	461	985.154130438103	13.051701844234
4	464	990.456037516867	4.843092762829
4	468	997.16550608971	4.728719767512
4	473	999.070251379358	0.890367702443
4	482	1018.801937064897	16.329522378592
4	500	1044.716880422932	13.59577894456
4	514	1082.059810652993	22.236080402662
4	515	1091.631227650387	16.266789775755
4	557	1173.220628439049	2.853546085017
4	561	1186.774290736471	6.664524493179
4	574	1214.853543639357	2.189036868922
4	588	1235.889307323672	2.564147108629
4	605	1276.285384977453	6.400231299813
4	634	1328.164886526936	54.512888289744
4	635	1331.558145384093	53.505209965553
4	636	1332.746535758117	29.992197118464
4	647	1343.210045371376	37.635926402742
4	648	1350.85478335332	44.45972096424
4	649	1354.27069764919	39.609144911975
4	652	1359.579968655524	26.596338417617
4	653	1362.388453476408	3.237897790184
4	656	1367.851171054929	4.153914452977
4	699	1450.865620332593	6.145967942999
4	704	1461.27680899576	10.83176790427
4	705	1461.765748319488	10.944058576634
4	706	1464.884221811779	3.87570204656
4	721	1494.830617930736	8.29132453244
4	732	1515.658680678531	4.093882246849
4	746	1531.789899495434	8.877583535852
4	761	1557.432362601828	3.073149134747
4	770	1573.616237636394	0.061601632944
4	792	1642.139361089405	23.533259945665
4	797	1663.075399059895	15.342422049031
4	806	1683.153095999696	30.43679575957
4	818	1700.550932756318	0.647366762446
4	823	1714.00031088218	13.835579704432
4	826	1717.446992819561	13.350891476821
4	837	1732.984318326968	0.277369994528
4	850	1752.336435437636	12.905288293238
4	857	1775.30657209127	31.841369825778
4	858	1776.639529428596	26.774030152717
4	873	1805.456337462422	24.036435274188
4	874	1808.508481166271	14.472609545081
4	919	1867.397404708694	13.143587416922
4	938	1893.075139883603	2.193134340944
4	939	1898.326238007313	7.366405159066
4	945	1909.839351314343	3.580005179796
4	962	1979.20234093715	27.231824205076
4	967	1994.36440301001	21.551932123826
4	984	2020.630010271853	4.316257737722
4	994	2029.853386284619	3.219166179687
4	1014	2116.470273470136	3.071665900373
4	1017	2125.671726891708	2.812065737896
4	1038	2162.153958234389	0.132636003446
4	1043	2173.647970069031	7.757186787647
4	1044	2173.959409759095	1.212981016952
4	1053	2192.282349703834	3.037217562723
4	1068	2234.315743504621	0.436406873958
4	1075	2241.709585914367	2.441781549632
4	1085	2253.711457636411	1.095367334892
4	1118	2358.820765785405	13.442258031008
4	1121	2359.171956978055	0.271624745199
4	1128	2384.252418295645	13.534493114089
4	1140	2420.100212422008	2.053820770077
4	1143	2430.954082159128	7.194361115137
4	1151	2459.703194944469	6.280501814722
4	1154	2465.416225052542	6.9250382123
4	1163	2481.743576549616	1.574212035221
5	160	397.949897162909	1
5	167	411.471568794108	1
5	170	420.230523895315	1
5	173	423.626370630007	1
5	181	433.979021401061	2
5	183	434.997459550596	3
5	186	436.463358371075	4
5	191	447.3390123704	5
5	198	460.684561441791	6
5	200	462.209260645508	7
5	206	471.80022684556	8
5	208	482.12454206374	9
5	213	501.94602011595	10
5	215	504.152873383937	11
5	218	506.764314853358	12
5	224	516.720497587459	10
5	230	525.084643806652	7
5	239	535.727868267657	6
5	241	537.018404049543	7
5	245	549.634151508763	7
5	248	551.56278072711	7
5	252	559.039735221251	8
5	257	562.877230825547	9
5	259	562.954784115561	10
5	261	565.008561718757	11
5	263	565.430729754966	12
5	267	568.095931702788	13
5	270	571.345060115002	14
5	279	582.639845148548	12
5	294	608.459123519515	12
5	303	622.936509287057	12
5	307	626.569211957683	13
5	310	631.689727490417	14
5	319	659.407904956321	13
5	327	679.657796540349	14
5	331	701.327193298871	15
5	334	713.90688556752	16
5	336	720.086850441601	17
5	341	727.457895586696	18
5	344	733.313309239065	19
5	350	749.354740548087	18
5	360	776.276508363408	19
5	364	777.28756776415	20
5	366	787.378396625648	21
5	368	790.643643360153	22
5	370	800.042271453348	23
5	373	810.570050040013	24
5	376	817.725022293353	25
5	386	839.515907787457	23
5	388	841.688057020289	24
5	391	862.791215186079	25
5	395	869.66179205242	25
5	399	876.497427822597	24
5	401	877.513300832293	25
5	404	886.270071100297	25
5	412	902.631208475954	26
5	421	920.651580677701	23
5	424	936.116745149452	23
5	431	945.211657223258	22
5	440	958.429144938276	16
5	444	965.565444506313	15
5	446	965.738090244711	16
5	449	966.252998812531	16
5	452	969.063236927235	16
5	456	973.705196395811	17
5	458	975.394861851765	18
5	460	981.092227947627	19
5	470	997.320396551664	19
5	477	1004.131180005746	20
5	479	1009.808859567802	21
5	481	1017.930388621933	22
5	488	1022.419777073105	19
5	491	1025.300882535409	19
5	497	1037.939473070161	18
5	499	1039.229428256462	19
5	502	1049.658067412039	20
5	509	1061.06979822698	18
5	511	1071.919528734719	19
5	518	1095.56391038071	19
5	523	1103.766454948256	17
5	525	1110.542400832551	18
5	529	1123.489569023027	17
5	532	1124.218693505945	17
5	546	1152.481030913731	6
5	550	1158.036682929179	5
5	563	1197.501637819124	1
5	565	1200.101138425325	2
5	569	1211.222097662782	1
5	571	1211.487149992353	2
5	578	1222.187040243271	1
5	581	1229.137359880271	1
5	583	1230.742420810067	2
5	590	1241.579059115042	1
5	592	1243.485386794217	2
5	596	1259.835760388708	1
5	598	1261.215077139916	2
5	609	1281.144771545962	1
5	611	1286.813517328929	2
5	613	1290.596789691155	3
5	619	1305.962453132044	4
5	623	1312.995428447974	5
5	627	1317.376687031108	6
5	629	1320.216093915217	7
5	631	1324.53062450491	8
5	633	1325.881155680585	9
5	640	1335.272079502913	10
5	642	1335.806599765196	11
5	644	1336.515749204007	12
5	646	1342.118909752105	13
5	663	1384.84673323077	9
5	665	1386.893093362784	10
5	667	1391.798389368981	11
5	673	1403.202839834223	8
5	675	1403.920456823309	9
5	683	1420.273671390911	4
5	689	1440.173971765543	1
5	694	1449.518260083194	1
5	701	1460.539974187747	2
5	708	1467.848024405061	3
5	710	1469.095230486552	4
5	712	1469.985964243131	5
5	716	1480.056475120775	4
5	718	1481.268096005576	5
5	725	1497.204046517625	4
5	734	1518.875082245208	1
5	739	1525.623965836859	1
5	741	1527.782095723479	2
5	743	1529.596622400465	3
5	745	1531.339929549102	4
5	749	1539.152779654656	4
5	752	1540.895297695028	4
5	756	1552.853280549139	3
5	760	1554.383510647309	4
5	767	1572.961662525789	1
5	772	1575.714470806213	2
5	775	1583.828528454689	2
5	779	1598.809142560443	1
5	782	1613.696400737282	1
5	787	1621.907817106086	1
5	789	1622.31002925285	2
5	791	1624.358444580792	3
5	799	1663.757812045068	4
5	801	1666.416554936188	5
5	803	1672.64424859245	6
5	805	1680.526224448561	7
5	822	1710.318132843612	1
5	825	1714.293339977835	2
5	828	1718.084805929546	3
5	831	1725.484517705623	3
5	833	1726.975676381114	4
5	843	1743.294389927774	2
5	847	1744.421660029402	3
5	852	1755.941372109301	4
5	854	1763.668176453331	5
5	856	1770.221910112845	6
5	864	1790.113433138279	5
5	866	1791.583001313832	6
5	870	1801.182068619676	7
5	872	1804.051889999432	8
5	881	1816.993400954675	4
5	886	1819.834835112653	2
5	888	1821.339737626092	3
5	893	1825.14610524439	1
5	896	1828.541154669257	1
5	898	1828.717307722878	2
5	900	1829.424264379244	3
5	903	1834.169884143891	3
5	906	1839.70340363286	3
5	911	1843.468980196812	1
5	916	1855.716236927823	1
5	918	1861.806249823189	2
5	921	1869.715884528952	3
5	924	1871.377560180694	3
5	928	1873.028429102896	2
5	932	1877.997101666317	1
5	941	1903.84832920382	1
5	947	1910.23864665529	1
5	950	1923.432083544034	1
5	955	1960.039365907734	1
5	957	1968.288958189991	2
5	961	1975.326106130925	3
5	964	1980.980090044125	4
5	966	1982.684070999175	5
5	969	1999.747928399395	6
5	975	2010.133410106158	3
5	981	2016.520771429637	2
5	983	2016.753743487101	3
5	989	2027.642227590007	3
5	991	2027.966526499892	4
5	993	2028.769498076468	5
5	997	2033.860208532856	5
5	1004	2049.487973869718	1
5	1007	2060.097357441063	1
5	1010	2069.15897862647	1
5	1019	2134.481129799226	1
5	1021	2142.074008915878	2
5	1024	2146.781749050434	2
5	1026	2146.784535038275	3
5	1028	2148.086814447921	4
5	1034	2158.500431566153	1
5	1046	2177.132411439339	1
5	1048	2177.799656478916	2
5	1055	2193.954006118779	1
5	1058	2206.945878337797	1
5	1060	2208.441259711246	2
5	1063	2209.854623402569	2
5	1070	2237.548623821418	1
5	1074	2241.407922421277	2
5	1077	2241.759293760181	3
5	1080	2244.136904210264	3
5	1088	2258.445932998195	1
5	1090	2258.665064005915	2
5	1094	2297.678040884525	1
5	1096	2298.970300673345	2
5	1098	2302.107353899143	3
5	1102	2309.250515592818	2
5	1106	2319.217539614216	1
5	1109	2341.010863998471	1
5	1111	2343.787560148528	2
5	1115	2356.269138156631	3
5	1117	2357.424688540216	4
5	1127	2371.83423005954	3
5	1133	2405.260191258795	1
5	1136	2409.872830752608	1
5	1145	2435.258806490311	1
5	1153	2465.030252498576	1
5	1157	2475.340337087485	1
5	1162	2480.296612191078	1
5	1165	2486.589377076387	2
5	1169	2495.328009140238	1
6	160	397.949897162909	0
6	162	402.538853677613	0
6	167	411.471568794108	0
6	168	411.526688730672	0
6	170	420.230523895315	0
6	171	421.636650385759	0
6	173	423.626370630007	0
6	181	433.979021401061	1
6	183	434.997459550596	2
6	186	436.463358371075	3
6	191	447.3390123704	4
6	198	460.684561441791	5
6	200	462.209260645508	6
6	206	471.80022684556	7
6	208	482.12454206374	8
6	213	501.94602011595	9
6	215	504.152873383937	10
6	218	506.764314853358	11
6	220	513.217074296326	11
6	221	515.163421932744	10
6	222	516.280082876071	9
6	224	516.720497587459	9
6	225	516.935316856202	9
6	226	522.463205449509	8
6	227	523.556187228094	7
6	228	523.624143157088	6
6	230	525.084643806652	6
6	231	529.22945847113	6
6	232	531.839238803276	5
6	239	535.727868267657	5
6	241	537.018404049543	6
6	243	546.555596351151	6
6	245	549.634151508763	6
6	246	551.362942816884	6
6	248	551.56278072711	6
6	252	559.039735221251	7
6	257	562.877230825547	8
6	259	562.954784115561	9
6	261	565.008561718757	10
6	263	565.430729754966	11
6	267	568.095931702788	12
6	270	571.345060115002	13
6	272	577.073094503552	13
6	273	578.207510540223	12
6	274	578.941831673057	11
6	279	582.639845148548	11
6	280	586.655452434421	11
6	294	608.459123519515	11
6	295	611.94903789017	11
6	303	622.936509287057	11
6	307	626.569211957683	12
6	310	631.689727490417	13
6	311	634.062443086531	13
6	312	635.434983968408	12
6	319	659.407904956321	12
6	327	679.657796540349	13
6	331	701.327193298871	14
6	334	713.90688556752	15
6	336	720.086850441601	16
6	341	727.457895586696	17
6	344	733.313309239065	18
6	345	734.419233255761	18
6	346	741.355595385763	17
6	350	749.354740548087	17
6	360	776.276508363408	18
6	364	777.28756776415	19
6	366	787.378396625648	20
6	368	790.643643360153	21
6	370	800.042271453348	22
6	373	810.570050040013	23
6	376	817.725022293353	24
6	378	824.820310797299	24
6	379	828.707135244362	23
6	380	832.56415004792	22
6	386	839.515907787457	22
6	388	841.688057020289	23
6	391	862.791215186079	24
6	393	867.104909354633	24
6	395	869.66179205242	24
6	396	870.618427489339	24
6	397	872.865013913365	23
6	399	876.497427822597	23
6	401	877.513300832293	24
6	402	885.142965444236	24
6	404	886.270071100297	24
6	412	902.631208475954	25
6	413	905.960787257934	25
6	417	909.440288304193	24
6	418	911.909167460964	23
6	419	916.050836393555	22
6	421	920.651580677701	22
6	422	933.655218742196	22
6	424	936.116745149452	22
6	425	938.04917114554	22
6	426	944.426447351668	21
6	431	945.211657223258	21
6	432	946.3139725469	21
6	433	947.843771740529	20
6	434	949.20847234302	19
6	435	952.327963298421	18
6	436	957.362108725875	17
6	437	957.412448476104	16
6	438	957.862260196198	15
6	440	958.429144938276	15
6	441	958.775684775867	15
6	442	963.152642479412	14
6	444	965.565444506313	14
6	446	965.738090244711	15
6	447	966.130038498838	15
6	449	966.252998812531	15
6	450	966.297172629193	15
6	452	969.063236927235	15
6	456	973.705196395811	16
6	458	975.394861851765	17
6	460	981.092227947627	18
6	465	991.475975820888	18
6	470	997.320396551664	18
6	477	1004.131180005746	19
6	479	1009.808859567802	20
6	481	1017.930388621933	21
6	483	1020.524233291738	21
6	484	1021.925612543284	20
6	485	1022.217974807448	19
6	486	1022.390998768311	18
6	488	1022.419777073105	18
6	489	1024.164791141676	18
6	491	1025.300882535409	18
6	492	1027.980654102564	18
6	493	1028.151503250766	17
6	497	1037.939473070161	17
6	499	1039.229428256462	18
6	502	1049.658067412039	19
6	503	1051.278461675749	19
6	504	1054.554852309724	18
6	505	1056.427826493282	17
6	509	1061.06979822698	17
6	511	1071.919528734719	18
6	516	1091.925669016865	18
6	518	1095.56391038071	18
6	519	1095.786825962857	18
6	520	1096.196207201229	17
6	521	1097.679030223589	16
6	523	1103.766454948256	16
6	525	1110.542400832551	17
6	526	1110.644141376008	17
6	527	1113.884773458122	16
6	529	1123.489569023027	16
6	530	1123.735535455421	16
6	532	1124.218693505945	16
6	533	1125.477808031289	16
6	534	1127.620621852848	15
6	535	1132.709456034191	14
6	536	1133.197124180471	13
6	537	1136.537909480314	12
6	538	1142.39658724988	11
6	539	1144.540382563252	10
6	540	1145.09834762528	9
6	541	1147.441115179449	8
6	542	1149.566504258125	7
6	543	1150.493761073533	6
6	544	1150.508548080402	5
6	546	1152.481030913731	5
6	547	1156.615536657665	5
6	548	1157.734812444006	4
6	550	1158.036682929179	4
6	551	1158.237125031132	4
6	552	1158.461047776812	3
6	553	1166.204307306013	2
6	554	1167.677196841038	1
6	558	1178.279151203954	0
6	563	1197.501637819124	0
6	565	1200.101138425325	1
6	566	1200.225464516131	1
6	567	1200.6362347952	0
6	569	1211.222097662782	0
6	571	1211.487149992353	1
6	575	1217.790895070494	1
6	576	1220.978989527432	0
6	578	1222.187040243271	0
6	579	1225.118633808958	0
6	581	1229.137359880271	0
6	583	1230.742420810067	1
6	584	1231.224625596375	1
6	585	1232.714634113103	0
6	590	1241.579059115042	0
6	592	1243.485386794217	1
6	593	1244.613035145301	1
6	594	1250.813592386461	0
6	596	1259.835760388708	0
6	598	1261.215077139916	1
6	599	1261.881851494197	1
6	600	1269.373884074087	0
6	609	1281.144771545962	0
6	611	1286.813517328929	1
6	613	1290.596789691155	2
6	619	1305.962453132044	3
6	623	1312.995428447974	4
6	627	1317.376687031108	5
6	629	1320.216093915217	6
6	631	1324.53062450491	7
6	633	1325.881155680585	8
6	640	1335.272079502913	9
6	642	1335.806599765196	10
6	644	1336.515749204007	11
6	646	1342.118909752105	12
6	657	1368.866433055802	12
6	658	1377.597741721362	11
6	659	1382.844891230034	10
6	660	1383.041764466757	9
6	661	1383.56648154984	8
6	663	1384.84673323077	8
6	665	1386.893093362784	9
6	667	1391.798389368981	10
6	668	1392.349671136532	10
6	669	1397.168933887081	9
6	670	1398.970527584853	8
6	671	1403.177278396951	7
6	673	1403.202839834223	7
6	675	1403.920456823309	8
6	676	1405.236513931322	8
6	677	1406.95014527749	7
6	678	1407.166535428558	6
6	679	1411.593056264249	5
6	680	1416.474169330256	4
6	681	1416.686264718868	3
6	683	1420.273671390911	3
6	684	1430.878401555571	3
6	685	1433.732575776863	2
6	686	1434.857130612971	1
6	687	1436.052089979645	0
6	689	1440.173971765543	0
6	690	1440.272575161654	0
6	694	1449.518260083194	0
6	701	1460.539974187747	1
6	708	1467.848024405061	2
6	710	1469.095230486552	3
6	712	1469.985964243131	4
6	713	1472.784610920843	4
6	714	1476.40424955467	3
6	716	1480.056475120775	3
6	718	1481.268096005576	4
6	722	1495.331501127954	4
6	723	1496.006974374457	3
6	725	1497.204046517625	3
6	726	1501.866715346779	3
6	727	1506.352251171614	2
6	728	1508.914879478901	1
6	729	1511.239353400625	0
6	734	1518.875082245208	0
6	735	1520.332780215637	0
6	739	1525.623965836859	0
6	741	1527.782095723479	1
6	743	1529.596622400465	2
6	745	1531.339929549102	3
6	747	1532.150965946134	3
6	749	1539.152779654656	3
6	750	1540.186154893448	3
6	752	1540.895297695028	3
6	753	1545.475388847849	3
6	754	1549.759557558435	2
6	756	1552.853280549139	2
6	760	1554.383510647309	3
6	762	1557.708307188762	3
6	763	1558.359707962403	2
6	764	1559.439727608281	1
6	765	1560.962114557748	0
6	767	1572.961662525789	0
6	772	1575.714470806213	1
6	773	1580.560417777777	1
6	775	1583.828528454689	1
6	776	1585.77707014166	1
6	777	1587.700911857178	0
6	779	1598.809142560443	0
6	780	1602.530315019035	0
6	782	1613.696400737282	0
6	783	1614.271803435251	0
6	787	1621.907817106086	0
6	789	1622.31002925285	1
6	791	1624.358444580792	2
6	799	1663.757812045068	3
6	801	1666.416554936188	4
6	803	1672.64424859245	5
6	805	1680.526224448561	6
6	807	1684.045827904473	6
6	808	1684.592252423516	5
6	809	1685.172947525915	4
6	810	1685.674657217211	3
6	811	1694.342169668449	2
6	812	1696.877367168548	1
6	813	1697.836295226934	0
6	822	1710.318132843612	0
6	825	1714.293339977835	1
6	828	1718.084805929546	2
6	829	1723.493863289688	2
6	831	1725.484517705623	2
6	833	1726.975676381114	3
6	834	1732.385984842845	3
6	838	1736.182508274467	2
6	839	1738.673979855405	1
6	843	1743.294389927774	1
6	847	1744.421660029402	2
6	852	1755.941372109301	3
6	854	1763.668176453331	4
6	856	1770.221910112845	5
6	859	1779.653500781237	5
6	860	1780.210159960829	4
6	864	1790.113433138279	4
6	866	1791.583001313832	5
6	870	1801.182068619676	6
6	872	1804.051889999432	7
6	875	1809.590722823764	7
6	876	1811.820256368749	6
6	877	1812.601549016819	5
6	878	1815.09634738786	4
6	879	1816.961758121239	3
6	881	1816.993400954675	3
6	882	1817.63117444286	3
6	883	1818.63414321662	2
6	884	1819.311565148368	1
6	886	1819.834835112653	1
6	888	1821.339737626092	2
6	889	1822.639738450075	2
6	890	1824.175524755214	1
6	891	1825.044822123523	0
6	893	1825.14610524439	0
6	894	1825.55701347694	0
6	896	1828.541154669257	0
6	898	1828.717307722878	1
6	900	1829.424264379244	2
6	901	1829.863619596195	2
6	903	1834.169884143891	2
6	904	1834.304855660614	2
6	906	1839.70340363286	2
6	907	1840.171187211553	2
6	908	1840.216109494128	1
6	909	1841.616217842664	0
6	911	1843.468980196812	0
6	912	1849.253774419244	0
6	916	1855.716236927823	0
6	918	1861.806249823189	1
6	921	1869.715884528952	2
6	922	1870.481729723541	2
6	924	1871.377560180694	2
6	925	1872.284599945419	2
6	926	1872.961434896138	1
6	928	1873.028429102896	1
6	929	1874.36530954134	1
6	930	1874.791405993698	0
6	932	1877.997101666317	0
6	933	1878.587384147986	0
6	941	1903.84832920382	0
6	942	1904.143650317871	0
6	947	1910.23864665529	0
6	948	1912.108047799759	0
6	950	1923.432083544034	0
6	951	1923.639660793074	0
6	955	1960.039365907734	0
6	957	1968.288958189991	1
6	961	1975.326106130925	2
6	964	1980.980090044125	3
6	966	1982.684070999175	4
6	969	1999.747928399395	5
6	970	2003.012703340302	5
6	971	2004.306641293162	4
6	972	2008.29560080763	3
6	973	2009.131282738478	2
6	975	2010.133410106158	2
6	976	2014.920644861154	2
6	977	2015.470434430381	1
6	981	2016.520771429637	1
6	983	2016.753743487101	2
6	985	2021.784081712315	2
6	989	2027.642227590007	2
6	991	2027.966526499892	3
6	993	2028.769498076468	4
6	995	2032.017207977359	4
6	997	2033.860208532856	4
6	998	2035.172599402611	4
6	999	2037.525036902591	3
6	1000	2039.515290081818	2
6	1001	2040.45095906573	1
6	1002	2043.03341813588	0
6	1004	2049.487973869718	0
6	1005	2049.894975366944	0
6	1007	2060.097357441063	0
6	1008	2061.900872830533	0
6	1010	2069.15897862647	0
6	1011	2073.995436204668	0
6	1019	2134.481129799226	0
6	1021	2142.074008915878	1
6	1022	2146.304039907718	1
6	1024	2146.781749050434	1
6	1026	2146.784535038275	2
6	1028	2148.086814447921	3
6	1029	2150.726714833383	3
6	1030	2151.679381971879	2
6	1031	2154.086823386672	1
6	1032	2158.277803598535	0
6	1034	2158.500431566153	0
6	1035	2158.584913052378	0
6	1046	2177.132411439339	0
6	1048	2177.799656478916	1
6	1049	2178.733230832379	1
6	1050	2179.518824967618	0
6	1055	2193.954006118779	0
6	1056	2198.064957825427	0
6	1058	2206.945878337797	0
6	1060	2208.441259711246	1
6	1061	2209.557466546582	1
6	1063	2209.854623402569	1
6	1064	2210.753425315769	1
6	1065	2213.757666885775	0
6	1070	2237.548623821418	0
6	1074	2241.407922421277	1
6	1077	2241.759293760181	2
6	1078	2242.471502730714	2
6	1080	2244.136904210264	2
6	1081	2246.970479759322	2
6	1082	2252.126547185695	1
6	1086	2256.579040529996	0
6	1088	2258.445932998195	0
6	1090	2258.665064005915	1
6	1091	2259.608528347582	1
6	1092	2260.810514316841	0
6	1094	2297.678040884525	0
6	1096	2298.970300673345	1
6	1098	2302.107353899143	2
6	1099	2308.93048815507	2
6	1100	2309.174601752251	1
6	1102	2309.250515592818	1
6	1103	2312.11747101272	1
6	1104	2312.902872529903	0
6	1106	2319.217539614216	0
6	1107	2324.241721814115	0
6	1109	2341.010863998471	0
6	1111	2343.787560148528	1
6	1115	2356.269138156631	2
6	1117	2357.424688540216	3
6	1122	2367.222660691771	3
6	1123	2369.1459151689	2
6	1127	2371.83423005954	2
6	1129	2387.60670605943	2
6	1130	2393.354692741239	1
6	1131	2397.168130812404	0
6	1133	2405.260191258795	0
6	1134	2405.674169586937	0
6	1136	2409.872830752608	0
6	1137	2413.442563512245	0
6	1145	2435.258806490311	0
6	1146	2435.813149437551	0
6	1153	2465.030252498576	0
6	1155	2466.476801753062	0
6	1157	2475.340337087485	0
6	1158	2479.755444185186	0
6	1162	2480.296612191078	0
6	1165	2486.589377076387	1
6	1166	2486.908950146532	1
6	1167	2488.031087810733	0
6	1169	2495.328009140238	0
6	1170	2498.738222627525	0
7	161	400.836033648824	2.886136485915
7	167	411.471568794108	0
7	170	420.230523895315	0
7	173	423.626370630007	0
7	219	507.092068907243	80.678271635711
7	220	513.217074296326	79.238052895265
7	221	515.163421932744	80.165962382148
7	222	516.280082876071	79.816724504996
7	225	516.935316856202	69.596304485802
7	226	522.463205449509	61.778644007718
7	227	523.556187228094	61.346926582586
7	228	523.624143157088	51.823916311528
7	231	529.22945847113	47.10491640739
7	232	531.839238803276	29.893218687326
7	242	543.775322025272	39.622448641335
7	243	546.555596351151	39.791281497793
7	246	551.362942816884	34.642445229425
7	253	560.252348862912	35.16770505626
7	271	571.935332874453	39.667899611285
7	272	577.073094503552	41.345226235895
7	273	578.207510540223	41.18910649068
7	274	578.941831673057	29.307680164294
7	277	582.300269686845	30.737488959735
7	280	586.655452434421	34.704476249363
7	292	607.897121616025	48.857386394774
7	295	611.94903789017	49.349179726445
7	301	621.775407744008	58.898176918461
7	308	627.087283942831	64.13249982727
7	311	634.062443086531	69.053881367774
7	312	635.434983968408	70.004254213442
7	342	731.592503707123	163.49657200434
7	345	734.419233255761	163.07417314076
7	346	741.355595385763	161.61976199559
7	377	822.7967156341	240.15687048555
7	378	824.820310797299	236.98345231213
7	379	828.707135244362	220.24801172485
7	380	832.56415004792	219.2337881395
7	392	864.524516889779	241.58800760272
7	393	867.104909354633	242.08483993571
7	396	870.618427489339	244.04921553166
7	397	872.865013913365	241.17528642295
7	402	885.142965444236	249.64919158112
7	410	901.614843142161	242.20693818584
7	413	905.960787257934	226.30299071759
7	416	908.690854958284	207.36366165941
7	417	909.440288304193	195.53340273667
7	418	911.909167460964	191.82231701936
7	419	916.050836393555	188.59294080686
7	422	933.655218742196	200.34190950313
7	425	938.04917114554	195.23172299705
7	426	944.426447351668	195.07170680358
7	429	944.887003552534	168.61049518913
7	432	946.3139725469	169.02640478275
7	433	947.843771740529	160.46537511488
7	434	949.20847234302	158.56482898287
7	435	952.327963298421	152.28569184507
7	436	957.362108725875	146.79205868586
7	437	957.412448476104	139.68742618275
7	438	957.862260196198	121.63683345509
7	441	958.775684775867	119.25977698841
7	442	963.152642479412	121.46458545912
7	447	966.130038498838	103.33882331276
7	450	966.297172629193	96.635380576773
7	461	985.154130438103	108.65670261551
7	464	990.456037516867	112.94273668457
7	465	991.475975820888	105.20590472059
7	468	997.16550608971	110.28959266218
7	473	999.070251379358	96.439042903404
7	482	1018.801937064897	112.63211887227
7	483	1020.524233291738	99.872652614037
7	484	1021.925612543284	85.808867393832
7	485	1022.217974807448	77.553624770058
7	486	1022.390998768311	77.179341545053
7	489	1024.164791141676	65.7356462034
7	492	1027.980654102564	62.415209596251
7	493	1028.151503250766	62.413413006055
7	500	1044.716880422932	78.463881610401
7	503	1051.278461675749	82.215224748514
7	504	1054.554852309724	82.452423715855
7	505	1056.427826493282	82.722630097471
7	515	1091.631227650387	116.23636579862
7	516	1091.925669016865	110.83344106924
7	519	1095.786825962857	110.17388120882
7	520	1096.196207201229	103.75942087903
7	521	1097.679030223589	100.35863367192
7	526	1110.644141376008	112.46425769909
7	527	1113.884773458122	111.41235877182
7	530	1123.735535455421	119.60435544967
7	533	1125.477808031289	115.66894846349
7	534	1127.620621852848	109.69023323091
7	535	1132.709456034191	110.28967896109
7	536	1133.197124180471	107.89624164506
7	537	1136.537909480314	105.41680800194
7	538	1142.39658724988	104.45711417972
7	539	1144.540382563252	105.31095430679
7	540	1145.09834762528	95.440280213241
7	541	1147.441115179449	87.617384929118
7	542	1149.566504258125	88.496706031145
7	543	1150.493761073533	78.574232338814
7	544	1150.508548080402	54.944637699692
7	547	1156.615536657665	52.849081709409
7	548	1157.734812444006	47.192411611455
7	551	1158.237125031132	34.747556008105
7	552	1158.461047776812	34.242354270867
7	553	1166.204307306013	13.723276392282
7	554	1167.677196841038	9.640513911859
7	557	1173.220628439049	2.853546085017
7	563	1197.501637819124	0
7	566	1200.225464516131	0.124326090806
7	569	1211.222097662782	0
7	574	1214.853543639357	3.366393647004
7	575	1217.790895070494	5.126388300059
7	578	1222.187040243271	0
7	581	1229.137359880271	0
7	584	1231.224625596375	0.482204786308
7	590	1241.579059115042	0
7	593	1244.613035145301	1.127648351084
7	596	1259.835760388708	0
7	599	1261.881851494197	0.666774354281
7	653	1362.388453476408	81.243681930446
7	656	1367.851171054929	81.037653726
7	657	1368.866433055802	78.269643364647
7	658	1377.597741721362	71.635288589318
7	659	1382.844891230034	69.84946278206
7	660	1383.041764466757	65.665077435649
7	661	1383.56648154984	63.350387634623
7	668	1392.349671136532	67.819046631622
7	669	1397.168933887081	71.287778206496
7	670	1398.970527584853	63.69844808194
7	671	1403.177278396951	67.370678631755
7	676	1405.236513931322	68.720764727315
7	677	1406.95014527749	64.831235525385
7	678	1407.166535428558	43.469278826606
7	679	1411.593056264249	26.746323033479
7	680	1416.474169330256	29.581075967472
7	681	1416.686264718868	24.887875349887
7	684	1430.878401555571	27.675561721348
7	685	1433.732575776863	29.812118953554
7	686	1434.857130612971	14.58345922206
7	689	1440.173971765543	0
7	706	1464.884221811779	15.365961728585
7	713	1472.784610920843	12.244636733096
7	714	1476.40424955467	8.556225149609
7	721	1494.830617930736	25.735387444184
7	722	1495.331501127954	25.345536884823
7	723	1496.006974374457	15.950499253682
7	726	1501.866715346779	20.598619341203
7	727	1506.352251171614	19.812957773318
7	728	1508.914879478901	11.710832961276
7	734	1518.875082245208	0
7	746	1531.789899495434	6.165933658575
7	747	1532.150965946134	4.368870222655
7	750	1540.186154893448	10.589532492983
7	753	1545.475388847849	14.135459298747
7	754	1549.759557558435	10.606777903779
7	761	1557.432362601828	16.5370649068
7	762	1557.708307188762	4.855026639623
7	763	1558.359707962403	4.000494495322
7	764	1559.439727608281	5.056216960972
7	767	1572.961662525789	0
7	770	1573.616237636394	0.061601632944
7	773	1580.560417777777	4.845946971564
7	776	1585.77707014166	1.948541686971
7	779	1598.809142560443	0
7	782	1613.696400737282	0
7	792	1642.139361089405	20.231543983319
7	806	1683.153095999696	60.843066746846
7	807	1684.045827904473	59.687383323681
7	808	1684.592252423516	36.859275412652
7	809	1685.172947525915	21.415135480847
7	810	1685.674657217211	19.258102281023
7	811	1694.342169668449	21.697921075999
7	812	1696.877367168548	16.351142719987
7	826	1717.446992819561	7.128859975949
7	829	1723.493863289688	9.200523311853
7	834	1732.385984842845	14.301178913299
7	837	1732.984318326968	7.499800621345
7	838	1736.182508274467	9.206831893353
7	839	1738.673979855405	5.967031522965
7	858	1776.639529428596	37.208382284198
7	859	1779.653500781237	36.359110853463
7	860	1780.210159960829	35.788499931427
7	874	1808.508481166271	52.56710905697
7	875	1809.590722823764	45.922546370433
7	876	1811.820256368749	41.598346255904
7	877	1812.601549016819	31.181646828585
7	878	1815.09634738786	24.982914249581
7	879	1816.961758121239	25.378756807407
7	882	1817.63117444286	16.449105823184
7	883	1818.63414321662	14.582253217188
7	884	1819.311565148368	2.318164193693
7	889	1822.639738450075	2.804903337422
7	890	1824.175524755214	2.835787129122
7	893	1825.14610524439	0
7	896	1828.541154669257	0
7	901	1829.863619596195	1.146311873317
7	904	1834.304855660614	4.88059128137
7	907	1840.171187211553	6.001303067662
7	908	1840.216109494128	0.512705861268
7	911	1843.468980196812	0
7	919	1867.397404708694	11.681167780871
7	922	1870.481729723541	8.675479900352
7	925	1872.284599945419	2.568715416467
7	926	1872.961434896138	1.583874715444
7	929	1874.36530954134	1.336880438444
7	932	1877.997101666317	0
7	941	1903.84832920382	0
7	947	1910.23864665529	0
7	950	1923.432083544034	0
7	967	1994.36440301001	34.325037102276
7	970	2003.012703340302	34.723745150311
7	971	2004.306641293162	28.980535162237
7	972	2008.29560080763	27.315510763505
7	973	2009.131282738478	26.447211739303
7	976	2014.920644861154	15.172716461759
7	977	2015.470434430381	5.337024324223
7	984	2020.630010271853	4.316257737722
7	985	2021.784081712315	5.263310282678
7	994	2029.853386284619	13.099642797518
7	995	2032.017207977359	5.382987872427
7	998	2035.172599402611	7.530371812604
7	999	2037.525036902591	9.558510402699
7	1000	2039.515290081818	10.74579200535
7	1001	2040.45095906573	6.590750532874
7	1004	2049.487973869718	0
7	1007	2060.097357441063	0
7	1010	2069.15897862647	0
7	1019	2134.481129799226	0
7	1022	2146.304039907718	4.23003099184
7	1029	2150.726714833383	3.944965782949
7	1030	2151.679381971879	4.894846933604
7	1031	2154.086823386672	6.000008938751
7	1034	2158.500431566153	0
7	1046	2177.132411439339	0
7	1049	2178.733230832379	0.933574353463
7	1055	2193.954006118779	0
7	1058	2206.945878337797	0
7	1061	2209.557466546582	1.116206835336
7	1064	2210.753425315769	0.8988019132
7	1070	2237.548623821418	0
7	1075	2241.709585914367	2.441781549632
7	1078	2242.471502730714	1.063580309437
7	1081	2246.970479759322	5.211185999141
7	1082	2252.126547185695	7.989642975431
7	1085	2253.711457636411	1.095367334892
7	1088	2258.445932998195	0
7	1091	2259.608528347582	0.943464341667
7	1094	2297.678040884525	0
7	1099	2308.93048815507	9.960187481725
7	1100	2309.174601752251	7.067247853108
7	1103	2312.11747101272	2.866955419902
7	1106	2319.217539614216	0
7	1109	2341.010863998471	0
7	1118	2358.820765785405	15.033205636877
7	1121	2359.171956978055	13.793449223658
7	1122	2367.222660691771	10.95352253514
7	1123	2369.1459151689	11.721226628684
7	1128	2384.252418295645	25.352086062789
7	1129	2387.60670605943	16.888780877874
7	1130	2393.354692741239	21.520462681699
7	1133	2405.260191258795	0
7	1136	2409.872830752608	0
7	1145	2435.258806490311	0
7	1154	2465.416225052542	0.385972553966
7	1157	2475.340337087485	0
7	1163	2481.743576549616	1.446964358538
7	1166	2486.908950146532	0.319573070145
7	1169	2495.328009140238	0
8	162	402.538853677613	38
8	168	411.526688730672	39
8	171	421.636650385759	40
8	220	513.217074296326	41
8	221	515.163421932744	42
8	222	516.280082876071	43
8	225	516.935316856202	44
8	226	522.463205449509	45
8	227	523.556187228094	46
8	228	523.624143157088	47
8	231	529.22945847113	48
8	232	531.839238803276	49
8	243	546.555596351151	50
8	246	551.362942816884	51
8	272	577.073094503552	52
8	273	578.207510540223	53
8	274	578.941831673057	54
8	280	586.655452434421	55
8	295	611.94903789017	56
8	311	634.062443086531	57
8	312	635.434983968408	58
8	345	734.419233255761	59
8	346	741.355595385763	60
8	378	824.820310797299	61
8	379	828.707135244362	62
8	380	832.56415004792	63
8	393	867.104909354633	64
8	396	870.618427489339	65
8	397	872.865013913365	66
8	402	885.142965444236	67
8	413	905.960787257934	68
8	417	909.440288304193	69
8	418	911.909167460964	70
8	419	916.050836393555	71
8	422	933.655218742196	72
8	425	938.04917114554	73
8	426	944.426447351668	74
8	432	946.3139725469	75
8	433	947.843771740529	76
8	434	949.20847234302	77
8	435	952.327963298421	78
8	436	957.362108725875	79
8	437	957.412448476104	80
8	438	957.862260196198	81
8	441	958.775684775867	82
8	442	963.152642479412	83
8	447	966.130038498838	84
8	450	966.297172629193	85
8	465	991.475975820888	86
8	483	1020.524233291738	87
8	484	1021.925612543284	88
8	485	1022.217974807448	89
8	486	1022.390998768311	90
8	489	1024.164791141676	91
8	492	1027.980654102564	92
8	493	1028.151503250766	93
8	503	1051.278461675749	94
8	504	1054.554852309724	95
8	505	1056.427826493282	96
8	516	1091.925669016865	97
8	519	1095.786825962857	98
8	520	1096.196207201229	99
8	521	1097.679030223589	100
8	526	1110.644141376008	101
8	527	1113.884773458122	102
8	530	1123.735535455421	103
8	533	1125.477808031289	104
8	534	1127.620621852848	105
8	535	1132.709456034191	106
8	536	1133.197124180471	107
8	537	1136.537909480314	108
8	538	1142.39658724988	109
8	539	1144.540382563252	110
8	540	1145.09834762528	111
8	541	1147.441115179449	112
8	542	1149.566504258125	113
8	543	1150.493761073533	114
8	544	1150.508548080402	115
8	547	1156.615536657665	116
8	548	1157.734812444006	117
8	551	1158.237125031132	118
8	552	1158.461047776812	119
8	553	1166.204307306013	120
8	554	1167.677196841038	121
8	558	1178.279151203954	122
8	566	1200.225464516131	123
8	567	1200.6362347952	124
8	575	1217.790895070494	125
8	576	1220.978989527432	126
8	579	1225.118633808958	127
8	584	1231.224625596375	128
8	585	1232.714634113103	129
8	593	1244.613035145301	130
8	594	1250.813592386461	131
8	599	1261.881851494197	132
8	600	1269.373884074087	133
8	657	1368.866433055802	134
8	658	1377.597741721362	135
8	659	1382.844891230034	136
8	660	1383.041764466757	137
8	661	1383.56648154984	138
8	668	1392.349671136532	139
8	669	1397.168933887081	140
8	670	1398.970527584853	141
8	671	1403.177278396951	142
8	676	1405.236513931322	143
8	677	1406.95014527749	144
8	678	1407.166535428558	145
8	679	1411.593056264249	146
8	680	1416.474169330256	147
8	681	1416.686264718868	148
8	684	1430.878401555571	149
8	685	1433.732575776863	150
8	686	1434.857130612971	151
8	687	1436.052089979645	152
8	690	1440.272575161654	153
8	713	1472.784610920843	154
8	714	1476.40424955467	155
8	722	1495.331501127954	156
8	723	1496.006974374457	157
8	726	1501.866715346779	158
8	727	1506.352251171614	159
8	728	1508.914879478901	160
8	729	1511.239353400625	161
8	735	1520.332780215637	162
8	747	1532.150965946134	163
8	750	1540.186154893448	164
8	753	1545.475388847849	165
8	754	1549.759557558435	166
8	762	1557.708307188762	167
8	763	1558.359707962403	168
8	764	1559.439727608281	169
8	765	1560.962114557748	170
8	773	1580.560417777777	171
8	776	1585.77707014166	172
8	777	1587.700911857178	173
8	780	1602.530315019035	174
8	783	1614.271803435251	175
8	807	1684.045827904473	176
8	808	1684.592252423516	177
8	809	1685.172947525915	178
8	810	1685.674657217211	179
8	811	1694.342169668449	180
8	812	1696.877367168548	181
8	813	1697.836295226934	182
8	829	1723.493863289688	183
8	834	1732.385984842845	184
8	838	1736.182508274467	185
8	839	1738.673979855405	186
8	859	1779.653500781237	187
8	860	1780.210159960829	188
8	875	1809.590722823764	189
8	876	1811.820256368749	190
8	877	1812.601549016819	191
8	878	1815.09634738786	192
8	879	1816.961758121239	193
8	882	1817.63117444286	194
8	883	1818.63414321662	195
8	884	1819.311565148368	196
8	889	1822.639738450075	197
8	890	1824.175524755214	198
8	891	1825.044822123523	199
8	894	1825.55701347694	200
8	901	1829.863619596195	201
8	904	1834.304855660614	202
8	907	1840.171187211553	203
8	908	1840.216109494128	204
8	909	1841.616217842664	205
8	912	1849.253774419244	206
8	922	1870.481729723541	207
8	925	1872.284599945419	208
8	926	1872.961434896138	209
8	929	1874.36530954134	210
8	930	1874.791405993698	211
8	933	1878.587384147986	212
8	942	1904.143650317871	213
8	948	1912.108047799759	214
8	951	1923.639660793074	215
8	970	2003.012703340302	216
8	971	2004.306641293162	217
8	972	2008.29560080763	218
8	973	2009.131282738478	219
8	976	2014.920644861154	220
8	977	2015.470434430381	221
8	985	2021.784081712315	222
8	995	2032.017207977359	223
8	998	2035.172599402611	224
8	999	2037.525036902591	225
8	1000	2039.515290081818	226
8	1001	2040.45095906573	227
8	1002	2043.03341813588	228
8	1005	2049.894975366944	229
8	1008	2061.900872830533	230
8	1011	2073.995436204668	231
8	1022	2146.304039907718	232
8	1029	2150.726714833383	233
8	1030	2151.679381971879	234
8	1031	2154.086823386672	235
8	1032	2158.277803598535	236
8	1035	2158.584913052378	237
8	1049	2178.733230832379	238
8	1050	2179.518824967618	239
8	1056	2198.064957825427	240
8	1061	2209.557466546582	241
8	1064	2210.753425315769	242
8	1065	2213.757666885775	243
8	1078	2242.471502730714	244
8	1081	2246.970479759322	245
8	1082	2252.126547185695	246
8	1086	2256.579040529996	247
8	1091	2259.608528347582	248
8	1092	2260.810514316841	249
8	1099	2308.93048815507	250
8	1100	2309.174601752251	251
8	1103	2312.11747101272	252
8	1104	2312.902872529903	253
8	1107	2324.241721814115	254
8	1122	2367.222660691771	255
8	1123	2369.1459151689	256
8	1129	2387.60670605943	257
8	1130	2393.354692741239	258
8	1131	2397.168130812404	259
8	1134	2405.674169586937	260
8	1137	2413.442563512245	261
8	1146	2435.813149437551	262
8	1155	2466.476801753062	263
8	1158	2479.755444185186	264
8	1166	2486.908950146532	265
8	1167	2488.031087810733	266
8	1170	2498.738222627525	267
9	162	402.538853677613	4.588956514704
9	168	411.526688730672	0.055119936564
9	171	421.636650385759	1.406126490444
9	220	513.217074296326	86.803277024794
9	221	515.163421932744	81.184400531683
9	222	516.280082876071	81.282623325475
9	225	516.935316856202	80.471958485127
9	226	522.463205449509	75.124193079109
9	227	523.556187228094	62.871625786303
9	228	523.624143157088	61.41488251158
9	231	529.22945847113	57.42923162557
9	232	531.839238803276	49.714696739536
9	243	546.555596351151	42.402722967214
9	246	551.362942816884	44.598627963526
9	272	577.073094503552	44.805661240384
9	273	578.207510540223	42.479642272566
9	274	578.941831673057	41.923427623514
9	280	586.655452434421	35.092671707311
9	295	611.94903789017	52.909302668919
9	311	634.062443086531	71.10765897097
9	312	635.434983968408	70.426422249651
9	345	734.419233255761	166.32330155297
9	346	741.355595385763	170.01053527076
9	378	824.820310797299	242.18046564875
9	379	828.707135244362	240.87027675919
9	380	832.56415004792	224.10502652841
9	393	867.104909354633	244.16840006758
9	396	870.618427489339	245.59835807042
9	397	872.865013913365	246.29580195568
9	402	885.142965444236	253.45323795382
9	413	905.960787257934	246.55288230161
9	417	909.440288304193	208.11309500532
9	418	911.909167460964	198.00228189344
9	419	916.050836393555	195.96398595195
9	422	933.655218742196	206.1973231555
9	425	938.04917114554	204.73586190648
9	426	944.426447351668	201.60899920318
9	432	946.3139725469	170.03746418349
9	433	947.843771740529	170.55620397638
9	434	949.20847234302	161.83007571737
9	435	952.327963298421	161.68431993827
9	436	957.362108725875	157.31983727253
9	437	957.412448476104	146.84239843609
9	438	957.862260196198	140.13723790284
9	441	958.775684775867	122.55025803476
9	442	963.152642479412	123.63673469195
9	447	966.130038498838	124.44198147855
9	450	966.297172629193	103.50595744311
9	465	991.475975820888	113.96267498859
9	483	1020.524233291738	114.35441509911
9	484	1021.925612543284	101.27403186558
9	485	1022.217974807448	86.101229657996
9	486	1022.390998768311	77.726648730921
9	489	1024.164791141676	78.953133918418
9	492	1027.980654102564	69.551509164288
9	493	1028.151503250766	62.586058744453
9	503	1051.278461675749	85.025462863218
9	504	1054.554852309724	85.491615382489
9	505	1056.427826493282	84.325397899413
9	516	1091.925669016865	116.5308071651
9	519	1095.786825962857	114.69459801523
9	520	1096.196207201229	110.58326244719
9	521	1097.679030223589	105.24224390139
9	526	1110.644141376008	113.32374482434
9	527	1113.884773458122	115.70488978121
9	530	1123.735535455421	121.26312076912
9	533	1125.477808031289	121.34662802554
9	534	1127.620621852848	117.81176228505
9	535	1132.709456034191	114.77906741226
9	536	1133.197124180471	110.77734710737
9	537	1136.537909480314	111.2370269449
9	538	1142.39658724988	111.27548577151
9	539	1144.540382563252	106.60090949309
9	540	1145.09834762528	105.86891936882
9	541	1147.441115179449	97.78304776741
9	542	1149.566504258125	89.742774007794
9	543	1150.493761073533	89.423962846553
9	544	1150.508548080402	78.589019345683
9	547	1156.615536657665	61.051626276955
9	548	1157.734812444006	53.96835749575
9	551	1158.237125031132	47.694724198581
9	552	1158.461047776812	34.971478753785
9	553	1166.204307306013	41.985613800068
9	554	1167.677196841038	15.196165927307
9	558	1178.279151203954	7.912068849922
9	566	1200.225464516131	2.723826697007
9	567	1200.6362347952	0.535096369875
9	575	1217.790895070494	6.303745078141
9	576	1220.978989527432	8.314482756997
9	579	1225.118633808958	2.931593565687
9	584	1231.224625596375	2.087265716104
9	585	1232.714634113103	1.972213303036
9	593	1244.613035145301	3.033976030259
9	594	1250.813592386461	7.328205592244
9	599	1261.881851494197	2.046091105489
9	600	1269.373884074087	8.158806934171
9	657	1368.866433055802	82.052915726873
9	658	1377.597741721362	87.000952030207
9	659	1382.844891230034	76.88243809799
9	660	1383.041764466757	70.046336018783
9	661	1383.56648154984	66.189794518732
9	668	1392.349671136532	72.133577221315
9	669	1397.168933887081	72.638309382171
9	670	1398.970527584853	73.089371904268
9	671	1403.177278396951	67.905198894038
9	676	1405.236513931322	69.429914166126
9	677	1406.95014527749	70.434396073483
9	678	1407.166535428558	65.047625676453
9	679	1411.593056264249	47.895799662297
9	680	1416.474169330256	31.627436099486
9	681	1416.686264718868	29.793171356084
9	684	1430.878401555571	39.08001218659
9	685	1433.732575776863	30.52973594264
9	686	1434.857130612971	30.936673789662
9	687	1436.052089979645	15.778418588734
9	690	1440.272575161654	0.098603396111
9	713	1472.784610920843	23.266350837649
9	714	1476.40424955467	15.864275366923
9	722	1495.331501127954	26.236270641402
9	723	1496.006974374457	26.021010131326
9	726	1501.866715346779	21.810240226004
9	727	1506.352251171614	25.084155166038
9	728	1508.914879478901	22.375586080605
9	729	1511.239353400625	14.035306883
9	735	1520.332780215637	1.457697970429
9	747	1532.150965946134	6.527000109275
9	750	1540.186154893448	12.404059169969
9	753	1545.475388847849	15.878766447384
9	754	1549.759557558435	18.419628009333
9	762	1557.708307188762	16.813009493734
9	763	1558.359707962403	5.506427413264
9	764	1559.439727608281	5.0805141412
9	765	1560.962114557748	6.578603910439
9	773	1580.560417777777	7.005781774327
9	776	1585.77707014166	10.062599335447
9	777	1587.700911857178	3.872383402489
9	780	1602.530315019035	3.721172458592
9	783	1614.271803435251	0.575402697969
9	807	1684.045827904473	61.735798651623
9	808	1684.592252423516	60.233807842724
9	809	1685.172947525915	37.439970515051
9	810	1685.674657217211	21.916845172143
9	811	1694.342169668449	27.925614732261
9	812	1696.877367168548	24.233118576098
9	813	1697.836295226934	17.310070778373
9	829	1723.493863289688	13.175730446076
9	834	1732.385984842845	18.09264486501
9	838	1736.182508274467	10.697990568844
9	839	1738.673979855405	11.698303474291
9	859	1779.653500781237	40.222353636839
9	860	1780.210159960829	36.915770033055
9	875	1809.590722823764	53.649350714463
9	876	1811.820256368749	48.152079915418
9	877	1812.601549016819	42.379638903974
9	878	1815.09634738786	33.676445199626
9	879	1816.961758121239	26.84832498296
9	882	1817.63117444286	26.048173129028
9	883	1818.63414321662	17.452074596944
9	884	1819.311565148368	15.259675148936
9	889	1822.639738450075	5.6463374954
9	890	1824.175524755214	4.340689642561
9	891	1825.044822123523	3.705084497431
9	894	1825.55701347694	0.41090823255
9	901	1829.863619596195	1.322464926938
9	904	1834.304855660614	5.587547937736
9	907	1840.171187211553	10.746922832309
9	908	1840.216109494128	6.046225350237
9	909	1841.616217842664	1.912814209804
9	912	1849.253774419244	5.784794222432
9	922	1870.481729723541	14.765492795718
9	925	1872.284599945419	10.47835012223
9	926	1872.961434896138	3.245550367186
9	929	1874.36530954134	2.987749360646
9	930	1874.791405993698	1.762976890802
9	933	1878.587384147986	0.590282481669
9	942	1904.143650317871	0.295321114051
9	948	1912.108047799759	1.869401144469
9	951	1923.639660793074	0.20757724904
9	970	2003.012703340302	42.973337432568
9	971	2004.306641293162	36.017683103171
9	972	2008.29560080763	32.969494676705
9	973	2009.131282738478	28.151192694353
9	976	2014.920644861154	32.236573861979
9	977	2015.470434430381	15.722506030986
9	985	2021.784081712315	5.470329178184
9	995	2032.017207977359	15.263464490258
9	998	2035.172599402611	8.538379297679
9	999	2037.525036902591	9.882809312584
9	1000	2039.515290081818	11.548763581926
9	1001	2040.45095906573	11.681460989262
9	1002	2043.03341813588	9.173209603024
9	1005	2049.894975366944	0.407001497226
9	1008	2061.900872830533	1.80351538947
9	1011	2073.995436204668	4.836457578198
9	1022	2146.304039907718	11.822910108492
9	1029	2150.726714833383	8.652705917505
9	1030	2151.679381971879	4.897632921445
9	1031	2154.086823386672	7.302288348397
9	1032	2158.277803598535	10.190989150614
9	1035	2158.584913052378	0.084481486225
9	1049	2178.733230832379	1.60081939304
9	1050	2179.518824967618	1.719168488702
9	1056	2198.064957825427	4.110951706648
9	1061	2209.557466546582	2.611588208785
9	1064	2210.753425315769	2.312165604523
9	1065	2213.757666885775	3.903043483206
9	1078	2242.471502730714	3.203698365979
9	1081	2246.970479759322	5.562557338045
9	1082	2252.126547185695	10.367253425514
9	1086	2256.579040529996	3.962950228477
9	1091	2259.608528347582	1.162595349387
9	1092	2260.810514316841	2.145450310926
9	1099	2308.93048815507	11.252447270545
9	1100	2309.174601752251	10.204301078906
9	1103	2312.11747101272	10.010117113577
9	1104	2312.902872529903	3.652356937085
9	1107	2324.241721814115	5.024182199899
9	1122	2367.222660691771	21.844152937374
9	1123	2369.1459151689	12.876777012269
9	1129	2387.60670605943	28.706373826574
9	1130	2393.354692741239	22.636767559683
9	1131	2397.168130812404	25.333900752864
9	1134	2405.674169586937	0.413978328142
9	1137	2413.442563512245	3.569732759637
9	1146	2435.813149437551	0.55434294724
9	1155	2466.476801753062	1.446549254486
9	1158	2479.755444185186	4.415107097701
9	1166	2486.908950146532	6.612337955454
9	1167	2488.031087810733	1.441710734346
9	1170	2498.738222627525	3.410213487287
10	175	426.413797271532	5
10	234	532.267433263168	6
10	250	551.950976185058	7
10	255	562.599858163725	8
10	276	579.735833390176	9
10	282	587.83685848517	10
10	297	613.330361908421	11
10	305	625.020069418922	12
10	314	635.493773863116	13
10	348	742.817448148488	14
10	382	836.22542674111	15
10	406	886.875913427531	16
10	415	906.16981819263	17
10	428	944.66435003739	18
10	454	972.102428593869	19
10	463	985.612944754038	20
10	467	992.436786322198	21
10	472	998.179883676915	22
10	475	1002.472414686305	23
10	495	1031.121101478372	24
10	507	1059.823730250331	25
10	556	1170.367082354032	26
10	573	1212.664506770435	27
10	655	1363.697256601952	28
10	720	1486.539293398296	29
10	758	1554.359213467081	30
10	769	1573.55463600345	31
10	794	1647.732977010864	32
10	836	1732.70694833244	33
10	841	1739.431147144398	34
10	862	1781.419902188234	35
10	979	2016.313752534131	36
10	987	2026.634220104932	37
10	1072	2239.267804364735	38
10	1084	2252.616090301519	39
10	1113	2345.378507754397	40
10	1120	2358.900332232856	41
10	1125	2370.717925181556	42
11	1171	2500	0.1068
12	1171	2500	0.0492

