version 2
run experiments_hard_game_mode1-82-20230311-19:39:41-4968
attr configname experiments_hard_game_mode1
attr datetime 20230311-19:39:41
attr experiment experiments_hard_game_mode1
attr inifile omnetpp.ini
attr iterationvars "$0=7.5, $1=4, $2=0"
attr iterationvarsf 7.5,4,0-
attr measurement "$0=7.5, $1=4, $2=0"
attr network Network
attr processid 4968
attr repetition 22
attr replication #22
attr resultdir results
attr runnumber 82
attr seedset 22
param *.boss.arrival_mean 20
param *.boss.service_mean 7.5
param *.minion.arrival_mean 10
param *.minion.service_mean 4
param *.player.recover_rate_x 0
param **.minion.arrival_distribution 0
param **.minion.service_distribution 0
param **.boss.arrival_distribution 0
param **.boss.service_distribution 0

vector 0 Network.player minion_defeated_stat:vector ETV
attr source signal_minion_defeated
vector 1 Network.player minion_jobs_queue_number_stat:vector ETV
attr source signal_minion_jobs_queue_number
vector 2 Network.player minion_response_time_stat:vector ETV
attr source signal_minion_response_time
vector 3 Network.player minion_waiting_time_stat:vector ETV
attr source signal_minion_waiting_time
vector 4 Network.player boss_jobs_number_stat:vector ETV
attr source signal_boss_jobs_number
vector 5 Network.player boss_jobs_queue_number_stat:vector ETV
attr source signal_boss_jobs_queue_number
vector 6 Network.player minion_recovered_stat:vector ETV
attr source signal_minion_recovered
vector 7 Network.player boss_waiting_time_stat:vector ETV
attr source signal_boss_waiting_time
vector 8 Network.player minion_jobs_number_stat:vector ETV
attr source signal_minion_jobs_number
vector 9 Network.player boss_defeated_stat:vector ETV
attr source signal_boss_defeated
vector 10 Network.player boss_response_time_stat:vector ETV
attr source signal_boss_response_time
vector 11 Network.player minion_throughput:vector ETV
attr source signal_minion_throughput
vector 12 Network.player boss_throughput:vector ETV
attr source signal_boss_throughput
0	146	351.200250293354	30
0	159	364.45006946114	31
0	160	365.456280715159	32
0	165	369.836532356577	33
0	185	412.090465334961	34
0	186	414.348769306369	35
0	189	417.446107702798	36
0	195	426.45629877526	37
0	196	426.982202813851	38
0	214	446.171395750353	39
0	215	446.432104192778	40
0	216	446.992997198639	41
0	235	472.277547630639	42
0	236	475.027025204454	43
0	237	484.188938391847	44
0	240	494.735278629654	45
0	241	495.70030723591	46
0	242	500.698291802718	47
0	243	507.258516265082	48
0	244	508.080592852912	49
0	245	509.004749170243	50
0	246	509.889287664581	51
0	250	516.728270934092	52
0	251	517.142558153315	53
0	252	517.728816881207	54
0	255	521.796469347364	55
0	266	552.719990337568	56
0	269	568.094358627191	57
0	273	575.863821471114	58
0	283	585.911823349586	59
0	284	588.934596738131	60
0	285	590.642051508849	61
0	291	595.905976929541	62
0	297	610.517513382587	63
0	300	619.659740787855	64
0	309	647.81124252357	65
0	315	683.145845585266	66
0	318	695.590244228597	67
0	323	706.916328860274	68
0	324	707.746667036471	69
0	327	713.607418787961	70
0	330	718.657278501955	71
0	333	728.226380004527	72
0	341	762.125567634451	73
0	352	773.64339379519	74
0	355	777.296924779454	75
0	356	777.743455593836	76
0	357	778.675136165736	77
0	363	809.233361007631	78
0	381	833.337076115601	79
0	386	848.360755541941	80
0	387	849.888820772641	81
0	391	854.06320248591	82
0	392	857.304288482764	83
0	393	867.171062762571	84
0	398	879.999850982623	85
0	399	880.192512143618	86
0	404	888.745619909005	87
0	407	892.038513176161	88
0	408	895.466989438738	89
0	413	903.338710885691	90
0	414	904.87067428853	91
0	420	918.433896991994	92
0	423	925.187744244835	93
0	435	954.301848621591	94
0	454	985.24516674693	95
0	458	998.349474690618	96
0	459	998.42731330685	97
0	460	1001.876361731657	98
0	461	1007.574995613323	99
0	464	1012.18485682709	100
0	465	1013.54818510882	101
0	470	1023.413344733949	102
0	471	1023.684814301464	103
0	482	1039.377027849628	104
0	483	1040.574409401525	105
0	484	1041.081200866568	106
0	487	1044.044924651232	107
0	506	1076.116860353708	108
0	507	1076.624678034452	109
0	508	1079.727497425751	110
0	509	1083.552237235693	111
0	512	1089.283662528339	112
0	513	1089.517464846575	113
0	516	1091.156315202237	114
0	517	1092.359811800555	115
0	518	1101.293402297103	116
0	519	1113.861047272228	117
0	522	1140.988128563548	118
0	525	1142.005931955785	119
0	535	1159.943123552216	120
0	536	1164.101992814036	121
0	540	1168.502195365724	122
0	545	1182.17587532186	123
0	552	1187.584786199156	124
0	553	1191.753597089022	125
0	561	1208.377914482914	126
0	562	1209.527103238911	127
0	565	1212.930035540218	128
0	566	1218.283731127264	129
0	567	1219.30200575647	130
0	575	1230.516665469738	131
0	576	1237.395480014393	132
0	591	1284.899604104997	133
0	594	1289.639107392016	134
0	606	1316.21298259219	135
0	609	1327.556466062745	136
0	610	1328.452844018564	137
0	611	1333.948126134202	138
0	612	1334.995852950697	139
0	617	1351.74631987021	140
0	620	1356.856000064028	141
0	621	1357.976012771614	142
0	627	1389.691801992869	143
0	638	1433.14643447967	144
0	639	1435.336859280196	145
0	645	1456.264439253404	146
0	648	1471.732750377276	147
0	651	1494.791469360552	148
0	654	1498.344464050541	149
0	662	1509.681676242035	150
0	665	1511.87137502694	151
0	669	1519.551694191832	152
0	672	1520.564099652094	153
0	680	1525.349732006866	154
0	681	1526.815245068835	155
0	689	1544.132580799224	156
0	690	1550.397933664599	157
0	693	1563.038378761224	158
0	699	1572.113303181438	159
0	702	1596.221208901504	160
0	707	1626.763937709491	161
0	711	1639.590398050345	162
0	714	1658.157032116985	163
0	717	1669.324441197305	164
0	720	1679.103082521883	165
0	723	1696.18725042908	166
0	728	1708.518406383536	167
0	731	1708.996511039865	168
0	732	1711.965039138272	169
0	737	1726.861292580707	170
0	744	1732.215977812776	171
0	745	1732.75770278603	172
0	746	1733.597441985932	173
0	747	1734.66511941133	174
0	779	1807.360729603497	175
0	780	1814.803161906899	176
0	781	1815.869262251325	177
0	792	1835.947480626828	178
0	793	1837.031051809165	179
0	794	1840.27408189885	180
0	795	1841.049524261111	181
0	813	1886.121494648438	182
0	814	1886.340731017998	183
0	818	1899.432907122192	184
0	833	1927.932663239288	185
0	834	1929.215884111461	186
0	835	1932.880031254677	187
0	839	1946.431981683997	188
0	842	1952.036190375271	189
0	843	1956.724027071586	190
0	844	1959.978228808127	191
0	849	1972.123524083724	192
0	850	1972.300874270812	193
0	858	1976.9627893849	194
0	867	1990.810484997198	195
0	868	1990.978087339635	196
0	869	1993.529318007253	197
0	876	2000.056878584568	198
0	877	2001.404260311363	199
0	878	2014.85580242287	200
0	884	2024.559546497889	201
0	885	2024.90669592296	202
0	888	2037.898746617909	203
0	891	2043.832194072385	204
0	896	2056.814902794462	205
0	897	2057.617330355501	206
0	902	2068.484707218124	207
0	903	2069.637808885309	208
0	916	2100.610893666657	209
0	917	2101.279623490711	210
0	921	2120.539282918324	211
0	929	2143.75998929638	212
0	930	2146.136523635397	213
0	935	2149.007434746515	214
0	938	2151.266728410287	215
0	946	2167.878421543237	216
0	947	2168.401779853499	217
0	973	2217.250328501052	218
0	979	2225.639163578954	219
0	980	2232.176702717361	220
0	981	2232.940039416668	221
0	982	2251.717634865745	222
0	983	2255.974738135776	223
0	984	2257.175955759191	224
0	990	2283.978703896752	225
0	996	2298.658209437583	226
0	999	2307.12570546213	227
0	1002	2332.042283932511	228
0	1011	2359.374491680066	229
0	1022	2379.585086960895	230
0	1025	2383.184543434871	231
0	1028	2388.586913547486	232
0	1029	2396.696808902473	233
0	1038	2410.42781571098	234
0	1039	2412.635100565576	235
0	1040	2415.574020522656	236
0	1041	2416.021234974487	237
0	1050	2433.685361409029	238
0	1064	2475.808467902312	239
0	1065	2475.837136450814	240
0	1068	2483.813771996543	241
0	1069	2484.831398960091	242
0	1070	2486.738677059342	243
0	1074	2490.329039755888	244
0	1077	2493.518995223543	245
1	146	351.200250293354	1
1	152	357.110273761727	1
1	155	360.782346563254	2
1	157	360.900786523798	3
1	159	364.45006946114	3
1	160	365.456280715159	2
1	162	365.810453568358	2
1	164	367.412899786366	3
1	165	369.836532356577	3
1	169	376.122387271869	3
1	171	384.627559805106	4
1	173	385.834413027814	5
1	175	386.576892817182	6
1	179	401.181908524793	7
1	185	412.090465334961	7
1	186	414.348769306369	6
1	188	416.321708143119	6
1	189	417.446107702798	6
1	193	420.069603263322	6
1	195	426.45629877526	6
1	196	426.982202813851	5
1	203	432.528569256868	5
1	209	442.913448376436	6
1	211	444.803130129404	7
1	213	445.135584916655	8
1	214	446.171395750353	8
1	215	446.432104192778	7
1	216	446.992997198639	6
1	220	449.401489746978	6
1	222	451.221452777944	7
1	227	454.576488467537	8
1	229	460.202995459364	9
1	232	464.638686879267	10
1	234	467.223887546964	11
1	235	472.277547630639	11
1	236	475.027025204454	10
1	237	484.188938391847	9
1	239	484.831073808571	9
1	240	494.735278629654	9
1	241	495.70030723591	8
1	242	500.698291802718	7
1	243	507.258516265082	6
1	244	508.080592852912	5
1	245	509.004749170243	4
1	246	509.889287664581	3
1	250	516.728270934092	2
1	251	517.142558153315	1
1	252	517.728816881207	0
1	254	518.735864083602	0
1	255	521.796469347364	0
1	259	529.169429449537	0
1	265	552.701837662188	1
1	266	552.719990337568	1
1	268	557.823998198495	1
1	269	568.094358627191	1
1	273	575.863821471114	0
1	277	577.898028766112	0
1	279	583.100866190608	1
1	282	583.427779886505	2
1	283	585.911823349586	2
1	284	588.934596738131	1
1	285	590.642051508849	0
1	289	592.018243094432	0
1	291	595.905976929541	0
1	295	608.087541157606	0
1	297	610.517513382587	0
1	299	618.533539022096	0
1	300	619.659740787855	0
1	307	642.194701466183	0
1	309	647.81124252357	0
1	314	682.979150824183	0
1	315	683.145845585266	0
1	317	695.150857070289	0
1	318	695.590244228597	0
1	320	698.967478304851	0
1	322	701.57739216657	1
1	323	706.916328860274	1
1	324	707.746667036471	0
1	326	713.191993803831	0
1	327	713.607418787961	0
1	329	718.492683037777	0
1	330	718.657278501955	0
1	332	722.564048108325	0
1	333	728.226380004527	0
1	338	761.028255665413	0
1	340	761.487909032096	1
1	341	762.125567634451	1
1	343	765.478455412807	1
1	348	767.320131015934	2
1	352	773.64339379519	2
1	354	776.371885117411	2
1	355	777.296924779454	2
1	356	777.743455593836	1
1	357	778.675136165736	0
1	362	804.13294165697	0
1	363	809.233361007631	0
1	365	811.808337935243	0
1	370	817.455280928788	1
1	377	823.637458456528	2
1	380	831.508393944909	3
1	381	833.337076115601	3
1	383	834.067640015354	3
1	385	843.377789365346	4
1	386	848.360755541941	4
1	387	849.888820772641	3
1	391	854.06320248591	2
1	392	857.304288482764	1
1	393	867.171062762571	0
1	395	868.704436630748	0
1	397	878.544751053541	1
1	398	879.999850982623	1
1	399	880.192512143618	0
1	401	887.981957247444	0
1	403	888.398460733039	1
1	404	888.745619909005	1
1	406	890.884252885326	1
1	407	892.038513176161	1
1	408	895.466989438738	0
1	410	901.853393344468	0
1	412	902.25416399318	1
1	413	903.338710885691	1
1	414	904.87067428853	0
1	418	915.149172449138	0
1	420	918.433896991994	0
1	422	923.087460793294	0
1	423	925.187744244835	0
1	425	926.920114016937	0
1	427	927.865272905843	1
1	429	930.983038456167	2
1	433	948.024276580382	3
1	435	954.301848621591	3
1	445	970.800367903949	3
1	450	982.306886979273	4
1	452	983.530452524714	5
1	454	985.24516674693	5
1	458	998.349474690618	4
1	459	998.42731330685	3
1	460	1001.876361731657	2
1	461	1007.574995613323	1
1	463	1010.992334053645	1
1	464	1012.18485682709	1
1	465	1013.54818510882	0
1	467	1021.313715227685	0
1	469	1022.255844706883	1
1	470	1023.413344733949	1
1	471	1023.684814301464	0
1	473	1031.154393004607	0
1	475	1031.28886926745	1
1	477	1033.225056498623	2
1	479	1035.659953448519	3
1	481	1038.551823205842	4
1	482	1039.377027849628	4
1	483	1040.574409401525	3
1	484	1041.081200866568	2
1	486	1043.392157736558	2
1	487	1044.044924651232	2
1	489	1045.419253597348	2
1	493	1058.795578569949	3
1	495	1059.042887166149	4
1	499	1061.987326247723	5
1	501	1062.741491367953	6
1	504	1065.690552507971	7
1	506	1076.116860353708	7
1	507	1076.624678034452	6
1	508	1079.727497425751	5
1	509	1083.552237235693	4
1	511	1088.20665058496	4
1	512	1089.283662528339	4
1	513	1089.517464846575	3
1	515	1090.936952841159	3
1	516	1091.156315202237	3
1	517	1092.359811800555	2
1	518	1101.293402297103	1
1	519	1113.861047272228	0
1	521	1140.475554567249	0
1	522	1140.988128563548	0
1	524	1141.601879095854	0
1	525	1142.005931955785	0
1	530	1157.494283946164	0
1	532	1159.506583065727	1
1	534	1159.587698204853	2
1	535	1159.943123552216	2
1	536	1164.101992814036	1
1	540	1168.502195365724	0
1	542	1181.930640896007	0
1	544	1182.152906295878	1
1	545	1182.17587532186	1
1	547	1182.768867144938	1
1	549	1184.969599222507	2
1	551	1186.784380597366	3
1	552	1187.584786199156	3
1	553	1191.753597089022	2
1	555	1192.143366601033	2
1	557	1192.520514962675	3
1	561	1208.377914482914	3
1	562	1209.527103238911	2
1	564	1211.805728267594	2
1	565	1212.930035540218	2
1	566	1218.283731127264	1
1	567	1219.30200575647	0
1	569	1223.873945092779	0
1	571	1224.744438681014	1
1	575	1230.516665469738	1
1	576	1237.395480014393	0
1	589	1281.731393799702	0
1	591	1284.899604104997	0
1	593	1288.810266778806	0
1	594	1289.639107392016	0
1	596	1289.987153130249	0
1	598	1290.252851183042	1
1	603	1303.146600035626	2
1	605	1312.273084810844	3
1	606	1316.21298259219	3
1	608	1316.389124757649	3
1	609	1327.556466062745	3
1	610	1328.452844018564	2
1	611	1333.948126134202	1
1	612	1334.995852950697	0
1	614	1346.850799411842	0
1	616	1348.796696255572	1
1	617	1351.74631987021	1
1	619	1356.337181890864	1
1	620	1356.856000064028	1
1	621	1357.976012771614	0
1	626	1384.787550339199	0
1	627	1389.691801992869	0
1	629	1393.455638340852	0
1	636	1430.725391606938	1
1	638	1433.14643447967	1
1	639	1435.336859280196	0
1	644	1452.039160495682	0
1	645	1456.264439253404	0
1	647	1466.510899405055	0
1	648	1471.732750377276	0
1	650	1491.916215156343	0
1	651	1494.791469360552	0
1	653	1497.066978577859	0
1	654	1498.344464050541	0
1	658	1504.221754487347	0
1	661	1509.634805061608	1
1	662	1509.681676242035	1
1	664	1510.171494330509	1
1	665	1511.87137502694	1
1	669	1519.551694191832	0
1	671	1520.527234707304	0
1	672	1520.564099652094	0
1	677	1524.96445812091	0
1	679	1525.327820162718	1
1	680	1525.349732006866	1
1	681	1526.815245068835	0
1	685	1541.829508091436	0
1	688	1543.276083854784	1
1	689	1544.132580799224	1
1	690	1550.397933664599	0
1	692	1560.585597844298	0
1	693	1563.038378761224	0
1	698	1570.658007599415	0
1	699	1572.113303181438	0
1	701	1595.824246247895	0
1	702	1596.221208901504	0
1	704	1622.495889256859	0
1	706	1623.642751490942	1
1	707	1626.763937709491	1
1	711	1639.590398050345	0
1	713	1653.684944445692	0
1	714	1658.157032116985	0
1	716	1669.074259599486	0
1	717	1669.324441197305	0
1	719	1677.360257209685	0
1	720	1679.103082521883	0
1	722	1696.172959194833	0
1	723	1696.18725042908	0
1	725	1698.555926067567	0
1	727	1701.053979771413	1
1	728	1708.518406383536	1
1	730	1708.839332401317	1
1	731	1708.996511039865	1
1	732	1711.965039138272	0
1	734	1721.058067293559	0
1	736	1722.961603454763	1
1	737	1726.861292580707	1
1	739	1727.137787525301	1
1	741	1728.733597568893	2
1	743	1730.093735591804	3
1	744	1732.215977812776	3
1	745	1732.75770278603	2
1	746	1733.597441985932	1
1	747	1734.66511941133	0
1	751	1743.058090492531	0
1	756	1763.393878676221	1
1	760	1765.748169376143	2
1	763	1775.793398433086	3
1	765	1776.016775535124	4
1	771	1789.277059377877	5
1	775	1799.111210359416	6
1	777	1800.559418640174	7
1	779	1807.360729603497	7
1	780	1814.803161906899	6
1	781	1815.869262251325	5
1	786	1830.70500639445	5
1	790	1832.010909947143	6
1	792	1835.947480626828	6
1	793	1837.031051809165	5
1	794	1840.27408189885	4
1	795	1841.049524261111	3
1	801	1854.416367651413	3
1	804	1862.229586683131	4
1	807	1866.838260173935	5
1	811	1874.052896741215	6
1	813	1886.121494648438	6
1	814	1886.340731017998	5
1	818	1899.432907122192	4
1	820	1900.459589706337	4
1	826	1905.322787154266	5
1	828	1912.556391803308	6
1	832	1923.034351827729	7
1	833	1927.932663239288	7
1	834	1929.215884111461	6
1	835	1932.880031254677	5
1	839	1946.431981683997	4
1	841	1951.806771612204	4
1	842	1952.036190375271	4
1	843	1956.724027071586	3
1	844	1959.978228808127	2
1	846	1961.866252201993	2
1	848	1970.293660341468	3
1	849	1972.123524083724	3
1	850	1972.300874270812	2
1	852	1973.607775948638	2
1	854	1973.741657500567	3
1	858	1976.9627893849	3
1	866	1989.469899896957	3
1	867	1990.810484997198	3
1	868	1990.978087339635	2
1	869	1993.529318007253	1
1	871	1993.598979995522	1
1	873	1995.919065059989	2
1	875	1997.182016906037	3
1	876	2000.056878584568	3
1	877	2001.404260311363	2
1	878	2014.85580242287	1
1	883	2024.339075712373	1
1	884	2024.559546497889	1
1	885	2024.90669592296	0
1	887	2028.503767400147	0
1	888	2037.898746617909	0
1	890	2042.844716623217	0
1	891	2043.832194072385	0
1	893	2047.370582727142	0
1	895	2055.676399834504	1
1	896	2056.814902794462	1
1	897	2057.617330355501	0
1	899	2066.310848008636	0
1	901	2066.779377899461	1
1	902	2068.484707218124	1
1	903	2069.637808885309	0
1	909	2094.26848032071	0
1	911	2094.311972251083	1
1	913	2096.536844739733	2
1	916	2100.610893666657	2
1	917	2101.279623490711	1
1	921	2120.539282918324	0
1	925	2131.423627661612	0
1	928	2141.199999379404	1
1	929	2143.75998929638	1
1	930	2146.136523635397	0
1	932	2146.335326496691	0
1	934	2148.0452512445	1
1	935	2149.007434746515	1
1	937	2151.136001806825	1
1	938	2151.266728410287	1
1	942	2151.997696375118	1
1	945	2164.023702648272	2
1	946	2167.878421543237	2
1	947	2168.401779853499	1
1	952	2175.835942713852	1
1	956	2183.253664310616	2
1	958	2186.451739360042	3
1	962	2190.271191358363	4
1	966	2195.461831745553	5
1	973	2217.250328501052	5
1	977	2224.188134757312	5
1	979	2225.639163578954	5
1	980	2232.176702717361	4
1	981	2232.940039416668	3
1	982	2251.717634865745	2
1	983	2255.974738135776	1
1	984	2257.175955759191	0
1	989	2282.880082712992	0
1	990	2283.978703896752	0
1	995	2298.569973153469	0
1	996	2298.658209437583	0
1	998	2305.584008865002	0
1	999	2307.12570546213	0
1	1001	2327.57412025814	0
1	1002	2332.042283932511	0
1	1010	2355.384984240619	0
1	1011	2359.374491680066	0
1	1018	2374.355315969987	0
1	1021	2378.768449697843	1
1	1022	2379.585086960895	1
1	1024	2381.829432356643	1
1	1025	2383.184543434871	1
1	1027	2385.367600433471	1
1	1028	2388.586913547486	1
1	1029	2396.696808902473	0
1	1031	2398.60852433365	0
1	1033	2399.836363075805	1
1	1035	2402.207237734363	2
1	1037	2408.222033721261	3
1	1038	2410.42781571098	3
1	1039	2412.635100565576	2
1	1040	2415.574020522656	1
1	1041	2416.021234974487	0
1	1043	2418.017793774835	0
1	1050	2433.685361409029	0
1	1054	2456.153930869414	0
1	1056	2463.66316072287	1
1	1058	2469.955638397126	2
1	1060	2471.525547650354	3
1	1062	2471.855350292107	4
1	1064	2475.808467902312	4
1	1065	2475.837136450814	3
1	1067	2481.15861096232	3
1	1068	2483.813771996543	3
1	1069	2484.831398960091	2
1	1070	2486.738677059342	1
1	1074	2490.329039755888	0
1	1076	2491.824172234539	0
1	1077	2493.518995223543	0
2	146	351.200250293354	45.843752950916
2	159	364.45006946114	11.717349210765
2	160	365.456280715159	8.346006953432
2	165	369.836532356577	9.054185793323
2	185	412.090465334961	46.280011766603
2	186	414.348769306369	46.935869520003
2	189	417.446107702798	44.672675959043
2	195	426.45629877526	41.828738970154
2	196	426.982202813851	41.147789786037
2	214	446.171395750353	27.055590582447
2	215	446.432104192778	26.362500929456
2	216	446.992997198639	18.707084218793
2	235	472.277547630639	34.284226873574
2	236	475.027025204454	32.113576828018
2	237	484.188938391847	39.385808262443
2	240	494.735278629654	49.599693712999
2	241	495.70030723591	46.716144590651
2	242	500.698291802718	51.29680205574
2	243	507.258516265082	56.037063487138
2	244	508.080592852912	54.774308162115
2	245	509.004749170243	54.428260702706
2	246	509.889287664581	49.686292205217
2	250	516.728270934092	49.504383387128
2	251	517.142558153315	32.311484344744
2	252	517.728816881207	7.341690991353
2	255	521.796469347364	3.060605263762
2	266	552.719990337568	23.550560888031
2	269	568.094358627191	15.392520965003
2	273	575.863821471114	7.368857742836
2	283	585.911823349586	8.013794583474
2	284	588.934596738131	5.833730547523
2	285	590.642051508849	7.214271622344
2	291	595.905976929541	3.887733835109
2	297	610.517513382587	2.429972224981
2	300	619.659740787855	1.126201765759
2	309	647.81124252357	5.616541057387
2	315	683.145845585266	0.166694761083
2	318	695.590244228597	0.439387158308
2	323	706.916328860274	7.948850555423
2	324	707.746667036471	6.169274869901
2	327	713.607418787961	0.41542498413
2	330	718.657278501955	0.164595464178
2	333	728.226380004527	5.662331896202
2	341	762.125567634451	1.097311969038
2	352	773.64339379519	6.758971309353
2	355	777.296924779454	9.97679376352
2	356	777.743455593836	8.074402969789
2	357	778.675136165736	2.303251048325
2	363	809.233361007631	5.100419350661
2	381	833.337076115601	15.881795186813
2	386	848.360755541941	30.788565041897
2	387	849.888820772641	26.251362316113
2	391	854.06320248591	19.995562470556
2	392	857.304288482764	13.926499117418
2	393	867.171062762571	15.825706702755
2	398	879.999850982623	11.295414351875
2	399	880.192512143618	1.647761090077
2	404	888.745619909005	0.763662661561
2	407	892.038513176161	3.640052443122
2	408	895.466989438738	4.582736553412
2	413	903.338710885691	1.485317541223
2	414	904.87067428853	2.61651029535
2	420	918.433896991994	3.284724542856
2	423	925.187744244835	2.100283451541
2	435	954.301848621591	26.436575715748
2	454	985.24516674693	45.861316827757
2	458	998.349474690618	42.434040427893
2	459	998.42731330685	27.626945402901
2	460	1001.876361731657	19.569474752384
2	461	1007.574995613323	24.044543088609
2	464	1012.18485682709	25.304889416358
2	465	1013.54818510882	2.555851055175
2	470	1023.413344733949	2.099629506264
2	471	1023.684814301464	1.428969594581
2	482	1039.377027849628	8.222634845021
2	483	1040.574409401525	9.285540134075
2	484	1041.081200866568	7.856144367945
2	487	1044.044924651232	8.384971202713
2	506	1076.116860353708	32.72470261715
2	507	1076.624678034452	31.205424437104
2	508	1079.727497425751	23.842474307976
2	509	1083.552237235693	24.756658665744
2	512	1089.283662528339	30.24077536219
2	513	1089.517464846575	27.530138598852
2	516	1091.156315202237	28.414823834284
2	517	1092.359811800555	26.669259292584
2	518	1101.293402297103	13.086751712143
2	519	1113.861047272228	22.924094431069
2	522	1140.988128563548	0.512573996299
2	525	1142.005931955785	0.404052859931
2	535	1159.943123552216	2.448839606052
2	536	1164.101992814036	4.595409748309
2	540	1168.502195365724	2.792274027784
2	545	1182.17587532186	0.245234425853
2	552	1187.584786199156	5.431879903278
2	553	1191.753597089022	8.984729944084
2	561	1208.377914482914	21.593533885548
2	562	1209.527103238911	17.383736637878
2	565	1212.930035540218	20.409520577543
2	566	1218.283731127264	18.300283664942
2	567	1219.30200575647	7.496277488876
2	575	1230.516665469738	5.772226788724
2	576	1237.395480014393	10.171077472928
2	591	1284.899604104997	3.168210305295
2	594	1289.639107392016	0.82884061321
2	606	1316.21298259219	25.960131409148
2	609	1327.556466062745	31.164964310013
2	610	1328.452844018564	25.306243982938
2	611	1333.948126134202	21.675041323358
2	612	1334.995852950697	18.606728193048
2	617	1351.74631987021	4.895520458368
2	620	1356.856000064028	8.059303808456
2	621	1357.976012771614	1.63883088075
2	627	1389.691801992869	4.90425165367
2	638	1433.14643447967	28.147838474783
2	639	1435.336859280196	4.611467673258
2	645	1456.264439253404	4.225278757722
2	648	1471.732750377276	5.221850972221
2	651	1494.791469360552	2.875254204209
2	654	1498.344464050541	1.277485472682
2	662	1509.681676242035	5.459921754688
2	665	1511.87137502694	2.236569965332
2	669	1519.551694191832	7.002865134983
2	672	1520.564099652094	0.03686494479
2	680	1525.349732006866	0.385273885956
2	681	1526.815245068835	1.487424906117
2	689	1544.132580799224	2.303072707788
2	690	1550.397933664599	7.121849809815
2	693	1563.038378761224	2.452780916926
2	699	1572.113303181438	1.455295582023
2	702	1596.221208901504	0.396962653609
2	707	1626.763937709491	4.268048452632
2	711	1639.590398050345	8.661734068654
2	714	1658.157032116985	4.472087671293
2	717	1669.324441197305	0.250181597819
2	720	1679.103082521883	1.742825312198
2	723	1696.18725042908	0.014291234247
2	728	1708.518406383536	9.962480315969
2	731	1708.996511039865	7.942531268452
2	732	1711.965039138272	3.125706736955
2	737	1726.861292580707	5.803225287148
2	744	1732.215977812776	9.254374358013
2	745	1732.75770278603	5.619915260729
2	746	1733.597441985932	4.863844417039
2	747	1734.66511941133	4.571383819526
2	779	1807.360729603497	64.302639110966
2	780	1814.803161906899	51.409283230678
2	781	1815.869262251325	50.121092875182
2	792	1835.947480626828	46.670421248951
2	793	1837.031051809165	37.919841449749
2	794	1840.27408189885	39.714663258676
2	795	1841.049524261111	23.485573763012
2	813	1886.121494648438	54.110584701295
2	814	1886.340731017998	36.670993102898
2	818	1899.432907122192	37.203320439061
2	833	1927.932663239288	56.938015989013
2	834	1929.215884111461	55.162987370246
2	835	1932.880031254677	39.181725592322
2	839	1946.431981683997	41.952030921558
2	842	1952.036190375271	46.713403221005
2	843	1956.724027071586	44.167635268278
2	844	1959.978228808127	36.943876980398
2	849	1972.123524083724	36.977407001773
2	850	1972.300874270812	20.494102658608
2	858	1976.9627893849	6.669129043432
2	867	1990.810484997198	16.256476195307
2	868	1990.978087339635	9.169599213633
2	869	1993.529318007253	7.166855125827
2	876	2000.056878584568	10.586978687611
2	877	2001.404260311363	7.805280315841
2	878	2014.85580242287	18.936737362881
2	884	2024.559546497889	9.680072467103
2	885	2024.90669592296	0.567620210587
2	888	2037.898746617909	9.394979217762
2	891	2043.832194072385	0.987477449168
2	896	2056.814902794462	9.44432006732
2	897	2057.617330355501	1.940930520997
2	902	2068.484707218124	2.173859209488
2	903	2069.637808885309	2.858430985848
2	916	2100.610893666657	6.342413345947
2	917	2101.279623490711	6.967651239628
2	921	2120.539282918324	18.397060822843
2	929	2143.75998929638	12.336361634768
2	930	2146.136523635397	4.936524255993
2	935	2149.007434746515	2.672108249824
2	938	2151.266728410287	3.221477165787
2	946	2167.878421543237	16.223146785373
2	947	2168.401779853499	16.404083478381
2	973	2217.250328501052	41.4143857872
2	979	2225.639163578954	42.385499268338
2	980	2232.176702717361	45.724963357319
2	981	2232.940039416668	42.668848058305
2	982	2251.717634865745	56.255803120192
2	983	2255.974738135776	37.855878156394
2	984	2257.175955759191	32.987821001879
2	990	2283.978703896752	1.09862118376
2	996	2298.658209437583	0.088236284114
2	999	2307.12570546213	1.541696597128
2	1002	2332.042283932511	4.468163674371
2	1011	2359.374491680066	3.989507439447
2	1022	2379.585086960895	5.229770990908
2	1025	2383.184543434871	4.416093737028
2	1028	2388.586913547486	6.757481190843
2	1029	2396.696808902473	11.329208469002
2	1038	2410.42781571098	11.81929137733
2	1039	2412.635100565576	12.798737489771
2	1040	2415.574020522656	13.366782788293
2	1041	2416.021234974487	7.799201253226
2	1050	2433.685361409029	8.015664509301
2	1064	2475.808467902312	19.654537032898
2	1065	2475.837136450814	12.173975727944
2	1068	2483.813771996543	13.858133599417
2	1069	2484.831398960091	13.305851309737
2	1070	2486.738677059342	14.883326767235
2	1074	2490.329039755888	3.404657412276
2	1077	2493.518995223543	1.694822989004
3	146	351.200250293354	33.670498149375
3	158	363.901052316167	11.168332065792
3	159	364.45006946114	7.339795699413
3	160	365.456280715159	4.673934151905
3	165	369.836532356577	8.935745832779
3	184	411.494797320252	45.684343751894
3	185	412.090465334961	44.677565548595
3	186	414.348769306369	41.575337562614
3	189	417.446107702798	41.323720430929
3	194	423.738651564827	39.111091759721
3	195	426.45629877526	40.621885747446
3	196	426.982202813851	40.405309996669
3	199	431.431979945585	30.250071420792
3	204	432.817753975881	16.496045832762
3	207	440.743062503641	21.627257335735
3	214	446.171395750353	26.101792487031
3	215	446.432104192778	18.146191212932
3	216	446.992997198639	14.972306878092
3	223	452.072399789162	19.543830532294
3	230	462.595636532716	24.602315775651
3	235	472.277547630639	29.364099254203
3	236	475.027025204454	30.22389507505
3	237	484.188938391847	39.053353475192
3	240	494.735278629654	45.751115984395
3	241	495.70030723591	46.298817488932
3	242	500.698291802718	49.476839024774
3	243	507.258516265082	53.952231574285
3	244	508.080592852912	53.504104385375
3	245	509.004749170243	48.801753710879
3	246	509.889287664581	45.250600785314
3	249	515.034058822704	47.81017127574
3	250	516.728270934092	31.897197125521
3	251	517.142558153315	6.755432263461
3	254	518.735864083602	0
3	263	550.774835266716	21.605405817179
3	266	552.719990337568	0.01815267538
3	269	568.094358627191	10.270360428696
3	272	569.127721009461	0.632757281183
3	280	583.114804157997	5.216775391885
3	283	585.911823349586	2.810957158978
3	284	588.934596738131	5.506816851626
3	290	592.119352139448	0.101109045016
3	296	609.560490102877	1.472948945271
3	299	618.533539022096	0
3	308	647.029838910559	4.835137444376
3	314	682.979150824183	0
3	317	695.150857070289	0
3	320	698.967478304851	0
3	323	706.916328860274	5.338936693704
3	326	713.191993803831	0
3	329	718.492683037777	0
3	332	722.564048108325	0
3	338	761.028255665413	0
3	341	762.125567634451	0.637658602355
3	346	766.954812170076	1.476356757269
3	351	770.883789849957	3.99936736412
3	352	773.64339379519	6.323262779256
3	355	777.296924779454	7.627872155407
3	356	777.743455593836	1.371570476425
3	362	804.13294165697	0
3	365	811.808337935243	0
3	368	817.008129176047	1.105829749961
3	378	829.211167181339	11.755886252551
3	381	833.337076115601	15.764885615557
3	386	848.360755541941	24.723297085413
3	387	849.888820772641	18.380426827732
3	390	851.915520061857	17.847880046503
3	391	854.06320248591	10.685413120564
3	392	857.304288482764	5.958932422948
3	395	868.704436630748	0
3	398	879.999850982623	1.455099929082
3	401	887.981957247444	0
3	404	888.745619909005	0.347159175966
3	407	892.038513176161	1.154260290835
3	410	901.853393344468	0
3	413	903.338710885691	1.084546892511
3	419	916.826290637727	1.677118188589
3	422	923.087460793294	0
3	425	926.920114016937	0
3	434	950.416152142903	22.55087923706
3	435	954.301848621591	23.318810165424
3	453	985.054407011743	45.67055709257
3	454	985.24516674693	37.220890166548
3	457	993.149636950943	37.234202688218
3	458	998.349474690618	27.549106786669
3	459	998.42731330685	16.120426327577
3	460	1001.876361731657	18.345909206943
3	461	1007.574995613323	20.695028202591
3	464	1012.18485682709	1.192522773445
3	467	1021.313715227685	0
3	470	1023.413344733949	1.157500027066
3	473	1031.154393004607	0
3	482	1039.377027849628	8.088158582178
3	483	1040.574409401525	7.349352902902
3	484	1041.081200866568	5.421247418049
3	487	1044.044924651232	5.49310144539
3	505	1073.066762001159	29.674604264601
3	506	1076.116860353708	30.69760675636
3	507	1076.624678034452	20.739654916677
3	508	1079.727497425751	20.931918855802
3	509	1083.552237235693	24.509350069544
3	512	1089.283662528339	27.296336280616
3	513	1089.517464846575	26.775973478622
3	516	1091.156315202237	25.465762694266
3	517	1092.359811800555	4.153161215595
3	518	1101.293402297103	10.356449455944
3	521	1140.475554567249	0
3	524	1141.601879095854	0
3	530	1157.494283946164	0
3	535	1159.943123552216	0.436540486489
3	536	1164.101992814036	4.514294609183
3	539	1166.248207754575	0.538286416635
3	542	1181.930640896007	0
3	545	1182.17587532186	0.022969025982
3	552	1187.584786199156	4.815919054218
3	553	1191.753597089022	6.783997866515
3	560	1200.511414864515	13.727034267149
3	561	1208.377914482914	16.234547881881
3	562	1209.527103238911	17.006588276236
3	565	1212.930035540218	12.946588077896
3	566	1218.283731127264	6.47800285967
3	569	1223.873945092779	0
3	574	1230.317886813059	5.573448132045
3	575	1230.516665469738	3.292262928273
3	590	1283.134982159143	1.403588359441
3	593	1288.810266778806	0
3	596	1289.987153130249	0
3	601	1302.13121731194	11.878366128898
3	606	1316.21298259219	19.821480839458
3	609	1327.556466062745	24.409866027119
3	610	1328.452844018564	16.17975920772
3	611	1333.948126134202	17.559001376553
3	614	1346.850799411842	0
3	617	1351.74631987021	2.949623614638
3	620	1356.856000064028	0.518818173164
3	626	1384.787550339199	0
3	629	1393.455638340852	0
3	632	1404.837660001241	8.458988082902
3	637	1431.025321838315	26.026725833428
3	638	1433.14643447967	2.421042872732
3	644	1452.039160495682	0
3	647	1466.510899405055	0
3	650	1491.916215156343	0
3	653	1497.066978577859	0
3	659	1508.306218725264	4.084464237917
3	662	1509.681676242035	0.046871180427
3	665	1511.87137502694	1.699880696431
3	668	1518.044233485914	5.495404429065
3	671	1520.527234707304	0
3	677	1524.96445812091	0
3	680	1525.349732006866	0.021911844148
3	686	1541.927362075327	0.097853983891
3	689	1544.132580799224	0.85649694444
3	692	1560.585597844298	0
3	698	1570.658007599415	0
3	701	1595.824246247895	0
3	704	1622.495889256859	0
3	707	1626.763937709491	3.121186218549
3	710	1633.032949652409	2.104285670718
3	713	1653.684944445692	0
3	716	1669.074259599486	0
3	719	1677.360257209685	0
3	722	1696.172959194833	0
3	725	1698.555926067567	0
3	728	1708.518406383536	7.464426612123
3	731	1708.996511039865	0.157178638548
3	734	1721.058067293559	0
3	737	1726.861292580707	3.899689125944
3	744	1732.215977812776	5.078190287475
3	745	1732.75770278603	4.024105217137
3	746	1733.597441985932	3.503706394128
3	778	1806.994435894776	63.936345402245
3	779	1807.360729603497	43.966850927276
3	780	1814.803161906899	49.054992530756
3	781	1815.869262251325	40.075863818239
3	784	1822.49380961982	46.477034084696
3	791	1834.640098248142	45.363038870265
3	792	1835.947480626828	36.836270267412
3	793	1837.031051809165	36.471633168991
3	794	1840.27408189885	22.710131400751
3	795	1841.049524261111	10.344517866661
3	805	1863.088312821171	32.088230880279
3	812	1874.640542508675	42.629632561532
3	813	1886.121494648438	36.451756733338
3	814	1886.340731017998	31.924363366585
3	817	1895.018969582736	32.789382899605
3	818	1899.432907122192	32.594646948257
3	830	1915.811408999142	44.816761748867
3	833	1927.932663239288	53.879766498073
3	834	1929.215884111461	35.517578449106
3	835	1932.880031254677	32.42044154834
3	838	1945.838071605055	41.358120842616
3	839	1946.431981683997	41.109194529731
3	842	1952.036190375271	39.479798571963
3	843	1956.724027071586	33.689675243857
3	844	1959.978228808127	24.832111726176
3	849	1972.123524083724	20.31675247152
3	850	1972.300874270812	10.434622068819
3	857	1976.630271260843	6.336610919375
3	858	1976.9627893849	3.355013436262
3	861	1984.355188473751	10.613530973184
3	864	1989.423384737938	14.869375936047
3	867	1990.810484997198	9.001996871196
3	868	1990.978087339635	4.615624458209
3	869	1993.529318007253	4.059418110296
3	876	2000.056878584568	6.457898589046
3	877	2001.404260311363	5.485195251374
3	878	2014.85580242287	17.673785516833
3	881	2023.272837122886	8.3933630921
3	884	2024.559546497889	0.220470785516
3	887	2028.503767400147	0
3	890	2042.844716623217	0
3	893	2047.370582727142	0
3	896	2056.814902794462	1.138502959958
3	899	2066.310848008636	0
3	902	2068.484707218124	1.705329318663
3	915	2098.782475501458	4.513995180748
3	916	2100.610893666657	6.298921415574
3	917	2101.279623490711	4.742778750978
3	920	2120.388506673635	18.246284578154
3	926	2138.514278530275	7.090650868663
3	929	2143.75998929638	2.559989916976
3	932	2146.335326496691	0
3	935	2149.007434746515	0.962183502015
3	938	2151.266728410287	0.130726603462
3	943	2156.873637958018	5.218363200154
3	946	2167.878421543237	15.880725168119
3	947	2168.401779853499	4.378077205227
3	950	2172.73856060341	2.637905025304
3	972	2215.85055905288	40.014616339028
3	973	2217.250328501052	39.845371690043
3	978	2224.434114878144	41.180450567528
3	979	2225.639163578954	39.187424218912
3	980	2232.176702717361	41.905511358998
3	981	2232.940039416668	37.478207671115
3	982	2251.717634865745	33.598774886363
3	983	2255.974738135776	31.786603378464
3	989	2282.880082712992	0
3	995	2298.569973153469	0
3	998	2305.584008865002	0
3	1001	2327.57412025814	0
3	1010	2355.384984240619	0
3	1019	2376.486105303005	2.130789333018
3	1022	2379.585086960895	0.816637263052
3	1025	2383.184543434871	1.355111078228
3	1028	2388.586913547486	3.219313114015
3	1031	2398.60852433365	0
3	1038	2410.42781571098	10.591452635175
3	1039	2412.635100565576	10.427862831213
3	1040	2415.574020522656	7.351986801395
3	1043	2418.017793774835	0
3	1049	2432.459998881493	6.790301981765
3	1063	2472.902792285285	16.748861415871
3	1064	2475.808467902312	12.145307179442
3	1065	2475.837136450814	5.881498053688
3	1068	2483.813771996543	12.288224346189
3	1069	2484.831398960091	12.976048667984
3	1070	2486.738677059342	5.580066097022
3	1073	2489.966940842665	3.042558499053
3	1076	2491.824172234539	0
4	148	352.732720250375	1
4	150	355.433047855263	2
4	167	372.773431743755	1
4	177	389.911696294157	2
4	181	409.20090723275	3
4	191	419.115805167906	1
4	198	428.285912979846	1
4	201	432.020690320547	1
4	206	437.993320757065	1
4	218	448.984162645259	1
4	225	453.306284690797	1
4	248	510.387125889854	1
4	257	526.46961230785	1
4	261	533.563355917929	2
4	271	568.494963728278	1
4	275	577.631216787148	1
4	287	591.632646903891	1
4	293	601.54926800305	1
4	302	624.816116876814	1
4	305	640.060494979796	1
4	311	668.565266190094	1
4	335	746.322986805191	1
4	345	766.884422485837	1
4	350	769.669052624047	1
4	359	779.391853016187	1
4	367	815.902299426086	1
4	372	817.572190500044	1
4	374	818.393229417335	2
4	389	851.345356059816	1
4	416	906.013461760535	1
4	431	939.383849919173	1
4	437	955.915434262725	1
4	439	956.958761290858	2
4	441	957.461455670674	3
4	447	975.50190493379	2
4	456	986.879967410732	1
4	491	1055.885023117775	1
4	497	1059.630242846955	2
4	527	1145.316987997786	1
4	538	1165.70992133794	1
4	559	1199.983447462322	1
4	573	1227.224402541465	1
4	578	1250.640409287308	1
4	580	1253.598628145409	2
4	583	1273.121481900732	2
4	585	1278.10411848818	3
4	600	1296.391501752732	1
4	623	1373.490195164909	1
4	631	1396.378671918339	1
4	634	1404.998596004887	1
4	641	1441.491428769926	1
4	656	1500.224709875965	1
4	667	1512.548829056849	1
4	674	1521.35570542557	1
4	683	1537.225514547729	1
4	695	1568.230041862579	1
4	709	1630.928663981691	1
4	749	1737.19410452424	1
4	753	1743.875031036989	2
4	758	1764.137385416466	2
4	767	1777.384326312965	2
4	769	1784.016498561004	3
4	783	1817.563950498099	1
4	788	1831.000081940892	1
4	797	1849.6697379151	1
4	799	1850.828071912874	2
4	809	1870.994647250275	1
4	816	1893.698305662355	1
4	822	1904.479950762439	1
4	824	1904.750086054783	2
4	837	1935.146117081951	1
4	856	1974.554008801891	1
4	860	1981.808488126002	1
4	863	1986.362462881426	1
4	880	2014.879474030786	1
4	905	2072.110436258973	1
4	907	2082.323736446278	2
4	919	2102.142222095481	1
4	923	2130.15466470212	1
4	940	2151.655274757864	1
4	949	2170.100655578106	1
4	954	2177.404956811009	1
4	960	2189.05207409054	2
4	964	2191.23146393384	3
4	970	2209.341922937825	2
4	975	2218.118859979382	1
4	986	2267.984510232703	1
4	992	2295.117984520488	1
4	1004	2341.666917677911	1
4	1007	2343.790800771955	1
4	1013	2361.192018666655	1
4	1016	2371.777703174319	1
4	1045	2425.669696899728	1
4	1047	2426.874752860027	2
4	1052	2450.298982238692	1
4	1072	2486.924382343612	1
5	148	352.732720250375	0
5	150	355.433047855263	1
5	153	360.13712573091	1
5	158	363.901052316167	0
5	167	372.773431743755	0
5	177	389.911696294157	1
5	181	409.20090723275	2
5	182	409.259150107949	2
5	183	410.900989064985	1
5	184	411.494797320252	0
5	191	419.115805167906	0
5	194	423.738651564827	0
5	198	428.285912979846	0
5	199	431.431979945585	0
5	201	432.020690320547	0
5	204	432.817753975881	0
5	206	437.993320757065	0
5	207	440.743062503641	0
5	218	448.984162645259	0
5	223	452.072399789162	0
5	225	453.306284690797	0
5	230	462.595636532716	0
5	248	510.387125889854	0
5	249	515.034058822704	0
5	257	526.46961230785	0
5	261	533.563355917929	1
5	262	545.165221052405	1
5	263	550.774835266716	0
5	271	568.494963728278	0
5	272	569.127721009461	0
5	275	577.631216787148	0
5	280	583.114804157997	0
5	287	591.632646903891	0
5	290	592.119352139448	0
5	293	601.54926800305	0
5	296	609.560490102877	0
5	302	624.816116876814	0
5	303	631.36119101472	0
5	305	640.060494979796	0
5	308	647.029838910559	0
5	311	668.565266190094	0
5	312	676.86203576853	0
5	335	746.322986805191	0
5	336	746.621483605009	0
5	345	766.884422485837	0
5	346	766.954812170076	0
5	350	769.669052624047	0
5	351	770.883789849957	0
5	359	779.391853016187	0
5	360	783.5022611161	0
5	367	815.902299426086	0
5	368	817.008129176047	0
5	372	817.572190500044	0
5	374	818.393229417335	1
5	375	821.34599567726	1
5	378	829.211167181339	0
5	389	851.345356059816	0
5	390	851.915520061857	0
5	416	906.013461760535	0
5	419	916.826290637727	0
5	431	939.383849919173	0
5	434	950.416152142903	0
5	437	955.915434262725	0
5	439	956.958761290858	1
5	441	957.461455670674	2
5	442	968.629687869062	2
5	443	970.204165083346	1
5	447	975.50190493379	1
5	448	980.320959313152	1
5	453	985.054407011743	0
5	456	986.879967410732	0
5	457	993.149636950943	0
5	491	1055.885023117775	0
5	497	1059.630242846955	1
5	502	1063.796251323757	1
5	505	1073.066762001159	0
5	527	1145.316987997786	0
5	528	1145.378441127202	0
5	538	1165.70992133794	0
5	539	1166.248207754575	0
5	559	1199.983447462322	0
5	560	1200.511414864515	0
5	573	1227.224402541465	0
5	574	1230.317886813059	0
5	578	1250.640409287308	0
5	580	1253.598628145409	1
5	581	1260.946083012689	1
5	583	1273.121481900732	1
5	585	1278.10411848818	2
5	586	1279.721599682128	2
5	587	1281.006696667183	1
5	590	1283.134982159143	0
5	600	1296.391501752732	0
5	601	1302.13121731194	0
5	623	1373.490195164909	0
5	624	1378.737726940414	0
5	631	1396.378671918339	0
5	632	1404.837660001241	0
5	634	1404.998596004887	0
5	637	1431.025321838315	0
5	641	1441.491428769926	0
5	642	1446.989251911701	0
5	656	1500.224709875965	0
5	659	1508.306218725264	0
5	667	1512.548829056849	0
5	668	1518.044233485914	0
5	674	1521.35570542557	0
5	675	1524.145860668042	0
5	683	1537.225514547729	0
5	686	1541.927362075327	0
5	695	1568.230041862579	0
5	696	1570.308815723139	0
5	709	1630.928663981691	0
5	710	1633.032949652409	0
5	749	1737.19410452424	0
5	753	1743.875031036989	1
5	754	1749.692181702392	1
5	758	1764.137385416466	1
5	761	1767.881215086594	1
5	767	1777.384326312965	1
5	769	1784.016498561004	2
5	772	1794.144093219832	2
5	773	1794.998523278154	1
5	778	1806.994435894776	0
5	783	1817.563950498099	0
5	784	1822.49380961982	0
5	788	1831.000081940892	0
5	791	1834.640098248142	0
5	797	1849.6697379151	0
5	799	1850.828071912874	1
5	802	1860.028331749112	1
5	805	1863.088312821171	0
5	809	1870.994647250275	0
5	812	1874.640542508675	0
5	816	1893.698305662355	0
5	817	1895.018969582736	0
5	822	1904.479950762439	0
5	824	1904.750086054783	1
5	829	1914.935609758552	1
5	830	1915.811408999142	0
5	837	1935.146117081951	0
5	838	1945.838071605055	0
5	856	1974.554008801891	0
5	857	1976.630271260843	0
5	860	1981.808488126002	0
5	861	1984.355188473751	0
5	863	1986.362462881426	0
5	864	1989.423384737938	0
5	880	2014.879474030786	0
5	881	2023.272837122886	0
5	905	2072.110436258973	0
5	907	2082.323736446278	1
5	914	2097.334467600756	1
5	915	2098.782475501458	0
5	919	2102.142222095481	0
5	920	2120.388506673635	0
5	923	2130.15466470212	0
5	926	2138.514278530275	0
5	940	2151.655274757864	0
5	943	2156.873637958018	0
5	949	2170.100655578106	0
5	950	2172.73856060341	0
5	954	2177.404956811009	0
5	960	2189.05207409054	1
5	964	2191.23146393384	2
5	967	2203.829578492135	2
5	968	2209.179235820253	1
5	970	2209.341922937825	1
5	971	2213.655149839109	1
5	972	2215.85055905288	0
5	975	2218.118859979382	0
5	978	2224.434114878144	0
5	986	2267.984510232703	0
5	987	2273.669808356903	0
5	992	2295.117984520488	0
5	993	2298.205505216645	0
5	1004	2341.666917677911	0
5	1005	2342.808961525322	0
5	1007	2343.790800771955	0
5	1008	2344.234141534156	0
5	1013	2361.192018666655	0
5	1014	2368.366821699411	0
5	1016	2371.777703174319	0
5	1019	2376.486105303005	0
5	1045	2425.669696899728	0
5	1047	2426.874752860027	1
5	1048	2430.436853702599	1
5	1049	2432.459998881493	0
5	1052	2450.298982238692	0
5	1063	2472.902792285285	0
5	1072	2486.924382343612	0
5	1073	2489.966940842665	0
6	148	352.732720250375	7
6	167	372.773431743755	8
6	191	419.115805167906	9
6	198	428.285912979846	10
6	201	432.020690320547	11
6	206	437.993320757065	12
6	218	448.984162645259	13
6	225	453.306284690797	14
6	248	510.387125889854	15
6	271	568.494963728278	16
6	345	766.884422485837	17
6	350	769.669052624047	18
6	367	815.902299426086	19
6	372	817.572190500044	20
6	389	851.345356059816	21
6	431	939.383849919173	22
6	437	955.915434262725	23
6	456	986.879967410732	24
6	491	1055.885023117775	25
6	538	1165.70992133794	26
6	559	1199.983447462322	27
6	573	1227.224402541465	28
6	600	1296.391501752732	29
6	631	1396.378671918339	30
6	634	1404.998596004887	31
6	667	1512.548829056849	32
6	709	1630.928663981691	33
6	783	1817.563950498099	34
6	788	1831.000081940892	35
6	797	1849.6697379151	36
6	809	1870.994647250275	37
6	816	1893.698305662355	38
6	822	1904.479950762439	39
6	837	1935.146117081951	40
6	856	1974.554008801891	41
6	860	1981.808488126002	42
6	863	1986.362462881426	43
6	880	2014.879474030786	44
6	919	2102.142222095481	45
6	940	2151.655274757864	46
6	949	2170.100655578106	47
6	954	2177.404956811009	48
6	975	2218.118859979382	49
6	1045	2425.669696899728	50
6	1072	2486.924382343612	51
7	148	352.732720250375	0
7	153	360.13712573091	4.704077875647
7	167	372.773431743755	0
7	182	409.259150107949	19.347453813792
7	183	410.900989064985	1.700081832235
7	191	419.115805167906	0
7	198	428.285912979846	0
7	201	432.020690320547	0
7	206	437.993320757065	0
7	218	448.984162645259	0
7	225	453.306284690797	0
7	248	510.387125889854	0
7	257	526.46961230785	0
7	262	545.165221052405	11.601865134476
7	271	568.494963728278	0
7	275	577.631216787148	0
7	287	591.632646903891	0
7	293	601.54926800305	0
7	302	624.816116876814	0
7	305	640.060494979796	0
7	311	668.565266190094	0
7	335	746.322986805191	0
7	345	766.884422485837	0
7	350	769.669052624047	0
7	359	779.391853016187	0
7	367	815.902299426086	0
7	372	817.572190500044	0
7	375	821.34599567726	2.952766259925
7	389	851.345356059816	0
7	416	906.013461760535	0
7	431	939.383849919173	0
7	437	955.915434262725	0
7	442	968.629687869062	11.670926578204
7	443	970.204165083346	12.742709412672
7	448	980.320959313152	4.819054379362
7	456	986.879967410732	0
7	491	1055.885023117775	0
7	502	1063.796251323757	4.166008476802
7	527	1145.316987997786	0
7	538	1165.70992133794	0
7	559	1199.983447462322	0
7	573	1227.224402541465	0
7	578	1250.640409287308	0
7	581	1260.946083012689	7.34745486728
7	586	1279.721599682128	6.600117781396
7	587	1281.006696667183	2.902578179003
7	600	1296.391501752732	0
7	623	1373.490195164909	0
7	631	1396.378671918339	0
7	634	1404.998596004887	0
7	641	1441.491428769926	0
7	656	1500.224709875965	0
7	667	1512.548829056849	0
7	674	1521.35570542557	0
7	683	1537.225514547729	0
7	695	1568.230041862579	0
7	709	1630.928663981691	0
7	749	1737.19410452424	0
7	754	1749.692181702392	5.817150665403
7	761	1767.881215086594	3.743829670128
7	772	1794.144093219832	16.759766906867
7	773	1794.998523278154	10.98202471715
7	783	1817.563950498099	0
7	788	1831.000081940892	0
7	797	1849.6697379151	0
7	802	1860.028331749112	9.200259836238
7	809	1870.994647250275	0
7	816	1893.698305662355	0
7	822	1904.479950762439	0
7	829	1914.935609758552	10.185523703769
7	837	1935.146117081951	0
7	856	1974.554008801891	0
7	860	1981.808488126002	0
7	863	1986.362462881426	0
7	880	2014.879474030786	0
7	905	2072.110436258973	0
7	914	2097.334467600756	15.010731154478
7	919	2102.142222095481	0
7	923	2130.15466470212	0
7	940	2151.655274757864	0
7	949	2170.100655578106	0
7	954	2177.404956811009	0
7	967	2203.829578492135	14.777504401595
7	968	2209.179235820253	17.947771886413
7	971	2213.655149839109	4.313226901284
7	975	2218.118859979382	0
7	986	2267.984510232703	0
7	992	2295.117984520488	0
7	1004	2341.666917677911	0
7	1007	2343.790800771955	0
7	1013	2361.192018666655	0
7	1016	2371.777703174319	0
7	1045	2425.669696899728	0
7	1048	2430.436853702599	3.562100842572
7	1052	2450.298982238692	0
7	1072	2486.924382343612	0
8	152	357.110273761727	2
8	155	360.782346563254	3
8	157	360.900786523798	4
8	162	365.810453568358	3
8	164	367.412899786366	4
8	169	376.122387271869	4
8	171	384.627559805106	5
8	173	385.834413027814	6
8	175	386.576892817182	7
8	179	401.181908524793	8
8	188	416.321708143119	7
8	193	420.069603263322	7
8	203	432.528569256868	6
8	209	442.913448376436	7
8	211	444.803130129404	8
8	213	445.135584916655	9
8	220	449.401489746978	7
8	222	451.221452777944	8
8	227	454.576488467537	9
8	229	460.202995459364	10
8	232	464.638686879267	11
8	234	467.223887546964	12
8	239	484.831073808571	10
8	254	518.735864083602	1
8	259	529.169429449537	1
8	265	552.701837662188	2
8	268	557.823998198495	2
8	277	577.898028766112	1
8	279	583.100866190608	2
8	282	583.427779886505	3
8	289	592.018243094432	1
8	295	608.087541157606	1
8	299	618.533539022096	1
8	307	642.194701466183	1
8	314	682.979150824183	1
8	317	695.150857070289	1
8	320	698.967478304851	1
8	322	701.57739216657	2
8	326	713.191993803831	1
8	329	718.492683037777	1
8	332	722.564048108325	1
8	338	761.028255665413	1
8	340	761.487909032096	2
8	343	765.478455412807	2
8	348	767.320131015934	3
8	354	776.371885117411	3
8	362	804.13294165697	1
8	365	811.808337935243	1
8	370	817.455280928788	2
8	377	823.637458456528	3
8	380	831.508393944909	4
8	383	834.067640015354	4
8	385	843.377789365346	5
8	395	868.704436630748	1
8	397	878.544751053541	2
8	401	887.981957247444	1
8	403	888.398460733039	2
8	406	890.884252885326	2
8	410	901.853393344468	1
8	412	902.25416399318	2
8	418	915.149172449138	1
8	422	923.087460793294	1
8	425	926.920114016937	1
8	427	927.865272905843	2
8	429	930.983038456167	3
8	433	948.024276580382	4
8	445	970.800367903949	4
8	450	982.306886979273	5
8	452	983.530452524714	6
8	463	1010.992334053645	2
8	467	1021.313715227685	1
8	469	1022.255844706883	2
8	473	1031.154393004607	1
8	475	1031.28886926745	2
8	477	1033.225056498623	3
8	479	1035.659953448519	4
8	481	1038.551823205842	5
8	486	1043.392157736558	3
8	489	1045.419253597348	3
8	493	1058.795578569949	4
8	495	1059.042887166149	5
8	499	1061.987326247723	6
8	501	1062.741491367953	7
8	504	1065.690552507971	8
8	511	1088.20665058496	5
8	515	1090.936952841159	4
8	521	1140.475554567249	1
8	524	1141.601879095854	1
8	530	1157.494283946164	1
8	532	1159.506583065727	2
8	534	1159.587698204853	3
8	542	1181.930640896007	1
8	544	1182.152906295878	2
8	547	1182.768867144938	2
8	549	1184.969599222507	3
8	551	1186.784380597366	4
8	555	1192.143366601033	3
8	557	1192.520514962675	4
8	564	1211.805728267594	3
8	569	1223.873945092779	1
8	571	1224.744438681014	2
8	589	1281.731393799702	1
8	593	1288.810266778806	1
8	596	1289.987153130249	1
8	598	1290.252851183042	2
8	603	1303.146600035626	3
8	605	1312.273084810844	4
8	608	1316.389124757649	4
8	614	1346.850799411842	1
8	616	1348.796696255572	2
8	619	1356.337181890864	2
8	626	1384.787550339199	1
8	629	1393.455638340852	1
8	636	1430.725391606938	2
8	644	1452.039160495682	1
8	647	1466.510899405055	1
8	650	1491.916215156343	1
8	653	1497.066978577859	1
8	658	1504.221754487347	1
8	661	1509.634805061608	2
8	664	1510.171494330509	2
8	671	1520.527234707304	1
8	677	1524.96445812091	1
8	679	1525.327820162718	2
8	685	1541.829508091436	1
8	688	1543.276083854784	2
8	692	1560.585597844298	1
8	698	1570.658007599415	1
8	701	1595.824246247895	1
8	704	1622.495889256859	1
8	706	1623.642751490942	2
8	713	1653.684944445692	1
8	716	1669.074259599486	1
8	719	1677.360257209685	1
8	722	1696.172959194833	1
8	725	1698.555926067567	1
8	727	1701.053979771413	2
8	730	1708.839332401317	2
8	734	1721.058067293559	1
8	736	1722.961603454763	2
8	739	1727.137787525301	2
8	741	1728.733597568893	3
8	743	1730.093735591804	4
8	751	1743.058090492531	1
8	756	1763.393878676221	2
8	760	1765.748169376143	3
8	763	1775.793398433086	4
8	765	1776.016775535124	5
8	771	1789.277059377877	6
8	775	1799.111210359416	7
8	777	1800.559418640174	8
8	786	1830.70500639445	6
8	790	1832.010909947143	7
8	801	1854.416367651413	4
8	804	1862.229586683131	5
8	807	1866.838260173935	6
8	811	1874.052896741215	7
8	820	1900.459589706337	5
8	826	1905.322787154266	6
8	828	1912.556391803308	7
8	832	1923.034351827729	8
8	841	1951.806771612204	5
8	846	1961.866252201993	3
8	848	1970.293660341468	4
8	852	1973.607775948638	3
8	854	1973.741657500567	4
8	866	1989.469899896957	4
8	871	1993.598979995522	2
8	873	1995.919065059989	3
8	875	1997.182016906037	4
8	883	2024.339075712373	2
8	887	2028.503767400147	1
8	890	2042.844716623217	1
8	893	2047.370582727142	1
8	895	2055.676399834504	2
8	899	2066.310848008636	1
8	901	2066.779377899461	2
8	909	2094.26848032071	1
8	911	2094.311972251083	2
8	913	2096.536844739733	3
8	925	2131.423627661612	1
8	928	2141.199999379404	2
8	932	2146.335326496691	1
8	934	2148.0452512445	2
8	937	2151.136001806825	2
8	942	2151.997696375118	2
8	945	2164.023702648272	3
8	952	2175.835942713852	2
8	956	2183.253664310616	3
8	958	2186.451739360042	4
8	962	2190.271191358363	5
8	966	2195.461831745553	6
8	977	2224.188134757312	6
8	989	2282.880082712992	1
8	995	2298.569973153469	1
8	998	2305.584008865002	1
8	1001	2327.57412025814	1
8	1010	2355.384984240619	1
8	1018	2374.355315969987	1
8	1021	2378.768449697843	2
8	1024	2381.829432356643	2
8	1027	2385.367600433471	2
8	1031	2398.60852433365	1
8	1033	2399.836363075805	2
8	1035	2402.207237734363	3
8	1037	2408.222033721261	4
8	1043	2418.017793774835	1
8	1054	2456.153930869414	1
8	1056	2463.66316072287	2
8	1058	2469.955638397126	3
8	1060	2471.525547650354	4
8	1062	2471.855350292107	5
8	1067	2481.15861096232	4
8	1076	2491.824172234539	1
9	153	360.13712573091	19
9	158	363.901052316167	20
9	182	409.259150107949	21
9	183	410.900989064985	22
9	184	411.494797320252	23
9	194	423.738651564827	24
9	199	431.431979945585	25
9	204	432.817753975881	26
9	207	440.743062503641	27
9	223	452.072399789162	28
9	230	462.595636532716	29
9	249	515.034058822704	30
9	262	545.165221052405	31
9	263	550.774835266716	32
9	272	569.127721009461	33
9	280	583.114804157997	34
9	290	592.119352139448	35
9	296	609.560490102877	36
9	303	631.36119101472	37
9	308	647.029838910559	38
9	312	676.86203576853	39
9	336	746.621483605009	40
9	346	766.954812170076	41
9	351	770.883789849957	42
9	360	783.5022611161	43
9	368	817.008129176047	44
9	375	821.34599567726	45
9	378	829.211167181339	46
9	390	851.915520061857	47
9	419	916.826290637727	48
9	434	950.416152142903	49
9	442	968.629687869062	50
9	443	970.204165083346	51
9	448	980.320959313152	52
9	453	985.054407011743	53
9	457	993.149636950943	54
9	502	1063.796251323757	55
9	505	1073.066762001159	56
9	528	1145.378441127202	57
9	539	1166.248207754575	58
9	560	1200.511414864515	59
9	574	1230.317886813059	60
9	581	1260.946083012689	61
9	586	1279.721599682128	62
9	587	1281.006696667183	63
9	590	1283.134982159143	64
9	601	1302.13121731194	65
9	624	1378.737726940414	66
9	632	1404.837660001241	67
9	637	1431.025321838315	68
9	642	1446.989251911701	69
9	659	1508.306218725264	70
9	668	1518.044233485914	71
9	675	1524.145860668042	72
9	686	1541.927362075327	73
9	696	1570.308815723139	74
9	710	1633.032949652409	75
9	754	1749.692181702392	76
9	761	1767.881215086594	77
9	772	1794.144093219832	78
9	773	1794.998523278154	79
9	778	1806.994435894776	80
9	784	1822.49380961982	81
9	791	1834.640098248142	82
9	802	1860.028331749112	83
9	805	1863.088312821171	84
9	812	1874.640542508675	85
9	817	1895.018969582736	86
9	829	1914.935609758552	87
9	830	1915.811408999142	88
9	838	1945.838071605055	89
9	857	1976.630271260843	90
9	861	1984.355188473751	91
9	864	1989.423384737938	92
9	881	2023.272837122886	93
9	914	2097.334467600756	94
9	915	2098.782475501458	95
9	920	2120.388506673635	96
9	926	2138.514278530275	97
9	943	2156.873637958018	98
9	950	2172.73856060341	99
9	967	2203.829578492135	100
9	968	2209.179235820253	101
9	971	2213.655149839109	102
9	972	2215.85055905288	103
9	978	2224.434114878144	104
9	987	2273.669808356903	105
9	993	2298.205505216645	106
9	1005	2342.808961525322	107
9	1008	2344.234141534156	108
9	1014	2368.366821699411	109
9	1019	2376.486105303005	110
9	1048	2430.436853702599	111
9	1049	2432.459998881493	112
9	1063	2472.902792285285	113
9	1073	2489.966940842665	114
10	153	360.13712573091	7.404405480535
10	158	363.901052316167	8.468004460904
10	182	409.259150107949	36.485718364194
10	183	410.900989064985	20.989292770828
10	184	411.494797320252	2.293890087502
10	194	423.738651564827	4.622846396921
10	199	431.431979945585	3.146066965739
10	204	432.817753975881	0.797063655334
10	207	440.743062503641	2.749741746576
10	223	452.072399789162	3.088237143903
10	230	462.595636532716	9.289351841919
10	249	515.034058822704	4.64693293285
10	262	545.165221052405	18.695608744555
10	263	550.774835266716	17.211479348787
10	272	569.127721009461	0.632757281183
10	280	583.114804157997	5.483587370849
10	290	592.119352139448	0.486705235557
10	296	609.560490102877	8.011222099827
10	303	631.36119101472	6.545074137906
10	308	647.029838910559	6.969343930763
10	312	676.86203576853	8.296769578436
10	336	746.621483605009	0.298496799818
10	346	766.954812170076	0.070389684239
10	351	770.883789849957	1.21473722591
10	360	783.5022611161	4.110408099913
10	368	817.008129176047	1.105829749961
10	375	821.34599567726	3.773805177216
10	378	829.211167181339	10.817937764004
10	390	851.915520061857	0.570164002041
10	419	916.826290637727	10.812828877192
10	434	950.416152142903	11.03230222373
10	442	968.629687869062	12.714253606337
10	443	970.204165083346	13.245403792488
10	448	980.320959313152	22.859503642478
10	453	985.054407011743	9.552502077953
10	457	993.149636950943	6.269669540211
10	502	1063.796251323757	7.911228205982
10	505	1073.066762001159	13.436519154204
10	528	1145.378441127202	0.061453129416
10	539	1166.248207754575	0.538286416635
10	560	1200.511414864515	0.527967402193
10	574	1230.317886813059	3.093484271594
10	581	1260.946083012689	10.305673725381
10	586	1279.721599682128	26.122971536719
10	587	1281.006696667183	7.885214766451
10	590	1283.134982159143	5.030863670963
10	601	1302.13121731194	5.739715559208
10	624	1378.737726940414	5.247531775505
10	632	1404.837660001241	8.458988082902
10	637	1431.025321838315	26.026725833428
10	642	1446.989251911701	5.497823141775
10	659	1508.306218725264	8.081508849299
10	668	1518.044233485914	5.495404429065
10	675	1524.145860668042	2.790155242472
10	686	1541.927362075327	4.701847527598
10	696	1570.308815723139	2.07877386056
10	710	1633.032949652409	2.104285670718
10	754	1749.692181702392	12.498077178152
10	761	1767.881215086594	24.006184049605
10	772	1794.144093219832	30.006707803366
10	773	1794.998523278154	17.614196965189
10	778	1806.994435894776	22.977937333772
10	784	1822.49380961982	4.929859121721
10	791	1834.640098248142	3.64001630725
10	802	1860.028331749112	10.358593834012
10	805	1863.088312821171	12.260240908297
10	812	1874.640542508675	3.6458952584
10	817	1895.018969582736	1.320663920381
10	829	1914.935609758552	10.455658996113
10	830	1915.811408999142	11.061322944359
10	838	1945.838071605055	10.691954523104
10	857	1976.630271260843	2.076262458952
10	861	1984.355188473751	2.546700347749
10	864	1989.423384737938	3.060921856512
10	881	2023.272837122886	8.3933630921
10	914	2097.334467600756	25.224031341783
10	915	2098.782475501458	16.45873905518
10	920	2120.388506673635	18.246284578154
10	926	2138.514278530275	8.359613828155
10	943	2156.873637958018	5.218363200154
10	950	2172.73856060341	2.637905025304
10	967	2203.829578492135	26.424621681126
10	968	2209.179235820253	20.127161729713
10	971	2213.655149839109	22.423685905269
10	972	2215.85055905288	6.508636115055
10	978	2224.434114878144	6.315254898762
10	987	2273.669808356903	5.6852981242
10	993	2298.205505216645	3.087520696157
10	1005	2342.808961525322	1.142043847411
10	1008	2344.234141534156	0.443340762201
10	1014	2368.366821699411	7.174803032756
10	1019	2376.486105303005	4.708402128686
10	1048	2430.436853702599	4.767156802871
10	1049	2432.459998881493	5.585246021466
10	1063	2472.902792285285	22.603810046593
10	1073	2489.966940842665	3.042558499053
11	1078	2500	0.098
12	1078	2500	0.0456

