file 60269 1678560140                                           
version 2
run experiments_hard_game_mode1-842-20230311-19:42:20-9055
attr configname experiments_hard_game_mode1
attr datetime 20230311-19:42:20
attr experiment experiments_hard_game_mode1
attr inifile omnetpp.ini
attr iterationvars "$0=8.5, $1=7, $2=0"
attr iterationvarsf 8.5,7,0-
attr measurement "$0=8.5, $1=7, $2=0"
attr network Network
attr processid 9055
attr repetition 2
attr replication #2
attr resultdir results
attr runnumber 842
attr seedset 2
param *.boss.arrival_mean 20
param *.boss.service_mean 8.5
param *.minion.arrival_mean 10
param *.minion.service_mean 7
param *.player.recover_rate_x 0
param **.minion.arrival_distribution 0
param **.minion.service_distribution 0
param **.boss.arrival_distribution 0
param **.boss.service_distribution 0

vector 0 Network.player minion_defeated_stat:vector ETV
attr source signal_minion_defeated
vector 1 Network.player minion_jobs_queue_number_stat:vector ETV
attr source signal_minion_jobs_queue_number
vector 2 Network.player minion_response_time_stat:vector ETV
attr source signal_minion_response_time
vector 3 Network.player minion_waiting_time_stat:vector ETV
attr source signal_minion_waiting_time
vector 4 Network.player minion_jobs_number_stat:vector ETV
attr source signal_minion_jobs_number
vector 5 Network.player boss_jobs_number_stat:vector ETV
attr source signal_boss_jobs_number
vector 6 Network.player boss_jobs_queue_number_stat:vector ETV
attr source signal_boss_jobs_queue_number
vector 7 Network.player minion_recovered_stat:vector ETV
attr source signal_minion_recovered
vector 8 Network.player boss_waiting_time_stat:vector ETV
attr source signal_boss_waiting_time
vector 9 Network.player boss_defeated_stat:vector ETV
attr source signal_boss_defeated
vector 10 Network.player boss_response_time_stat:vector ETV
attr source signal_boss_response_time
vector 11 Network.player minion_throughput:vector ETV
attr source signal_minion_throughput
vector 12 Network.player boss_throughput:vector ETV
attr source signal_boss_throughput
0	2008 4082 158 1075 360.028198512595 2410.11545233995 150 24 173 14775 1736575
1	6090 9986 158 1131 360.028198512595 2491.854625862879 374 9 84 21235 1314369
2	16076 5935 158 1075 360.028198512595 2410.11545233995 150 101.51867553566 648.80784727038 68182.555116831 33907115.155938
3	22011 8510 158 1075 360.028198512595 2410.11545233995 215 84.4665647637 647.67647730495 94208.430588956 45810258.005539
4	30521 5980 160 1131 361.253872248248 2491.854625862879 224 10 85 12599 782521
5	36501 3271 162 1127 368.958402505989 2486.574186514758 127 1 5 231 561
6	39772 6444 162 1132 368.958402505989 2497.913600520083 250 0 4 202 438
7	46216 1750 162 1077 368.958402505989 2411.664070294826 66 7 72 2607 126929
8	47966 3974 162 1132 368.958402505989 2497.913600520083 124 0 54.739438024923 788.47130958406 17713.019773055
9	51940 3342 163 1132 369.936877273619 2497.913600520083 123 23 145 10332 1022950
10	55282 4947 163 1132 369.936877273619 2497.913600520083 123 0.051150909436 64.395648388342 1849.7485416111 49416.471520879
11	60229 20 1133 1133 2500 2500 1 0.0692 0.0692 0.0692 0.00478864
12	60249 19 1133 1133 2500 2500 1 0.058 0.058 0.058 0.003364

