file 59022 1678560019                                           
version 2
run experiments_hard_game_mode1-267-20230311-19:40:19-5979
attr configname experiments_hard_game_mode1
attr datetime 20230311-19:40:19
attr experiment experiments_hard_game_mode1
attr inifile omnetpp.ini
attr iterationvars "$0=7.5, $1=7, $2=0"
attr iterationvarsf 7.5,7,0-
attr measurement "$0=7.5, $1=7, $2=0"
attr network Network
attr processid 5979
attr repetition 27
attr replication #27
attr resultdir results
attr runnumber 267
attr seedset 27
param *.boss.arrival_mean 20
param *.boss.service_mean 7.5
param *.minion.arrival_mean 10
param *.minion.service_mean 7
param *.player.recover_rate_x 0
param **.minion.arrival_distribution 0
param **.minion.service_distribution 0
param **.boss.arrival_distribution 0
param **.boss.service_distribution 0

vector 0 Network.player boss_jobs_number_stat:vector ETV
attr source signal_boss_jobs_number
vector 1 Network.player boss_jobs_queue_number_stat:vector ETV
attr source signal_boss_jobs_queue_number
vector 2 Network.player boss_waiting_time_stat:vector ETV
attr source signal_boss_waiting_time
vector 3 Network.player boss_defeated_stat:vector ETV
attr source signal_boss_defeated
vector 4 Network.player boss_response_time_stat:vector ETV
attr source signal_boss_response_time
vector 5 Network.player minion_jobs_number_stat:vector ETV
attr source signal_minion_jobs_number
vector 6 Network.player minion_jobs_queue_number_stat:vector ETV
attr source signal_minion_jobs_queue_number
vector 7 Network.player minion_waiting_time_stat:vector ETV
attr source signal_minion_waiting_time
vector 8 Network.player minion_defeated_stat:vector ETV
attr source signal_minion_defeated
vector 9 Network.player minion_response_time_stat:vector ETV
attr source signal_minion_response_time
vector 10 Network.player minion_recovered_stat:vector ETV
attr source signal_minion_recovered
vector 11 Network.player minion_throughput:vector ETV
attr source signal_minion_throughput
vector 12 Network.player boss_throughput:vector ETV
attr source signal_boss_throughput
0	2011 2805 152 1086 368.831334544424 2480.169364514395 110 1 6 178 392
1	4816 5609 152 1089 368.831334544424 2481.645188297415 220 0 5 136 292
2	10425 3390 152 1086 368.831334544424 2480.169364514395 110 0 46.469467805315 604.06965643128 15328.695829944
3	13815 2938 153 1089 376.695664065018 2481.645188297415 110 14 123 7535 627055
4	16753 4264 153 1089 376.695664065018 2481.645188297415 110 0.057751530885 53.555976050229 1461.114243163 38501.132958889
5	21017 6129 160 1100 397.949897162909 2495.328009140238 230 1 92 12810 862632
6	27146 10438 160 1100 397.949897162909 2495.328009140238 390 0 91 22745 1562589
7	37584 8866 161 1098 400.103198447416 2490.915429952889 224 0 632.55982290921 97877.839659878 48647939.406189
8	46450 4411 162 1098 404.076445181256 2490.915429952889 160 38 197 18800 2550320
9	50861 6375 162 1098 404.076445181256 2490.915429952889 160 0.128613185316 633.20369361206 73419.952094357 37455248.999857
10	57236 1745 175 1086 426.413797271532 2480.169364514395 63 12 74 2709 137319
11	58981 20 1101 1101 2500 2500 1 0.0788 0.0788 0.0788 0.00620944
12	59001 20 1101 1101 2500 2500 1 0.0492 0.0492 0.0492 0.00242064

