version 2
run experiments_hard_game_mode1-209-20230311-19:40:07-5688
attr configname experiments_hard_game_mode1
attr datetime 20230311-19:40:07
attr experiment experiments_hard_game_mode1
attr inifile omnetpp.ini
attr iterationvars "$0=7.5, $1=6, $2=0"
attr iterationvarsf 7.5,6,0-
attr measurement "$0=7.5, $1=6, $2=0"
attr network Network
attr processid 5688
attr repetition 29
attr replication #29
attr resultdir results
attr runnumber 209
attr seedset 29
param *.boss.arrival_mean 20
param *.boss.service_mean 7.5
param *.minion.arrival_mean 10
param *.minion.service_mean 6
param *.player.recover_rate_x 0
param **.minion.arrival_distribution 0
param **.minion.service_distribution 0
param **.boss.arrival_distribution 0
param **.boss.service_distribution 0

vector 0 Network.player minion_defeated_stat:vector ETV
attr source signal_minion_defeated
vector 1 Network.player minion_jobs_queue_number_stat:vector ETV
attr source signal_minion_jobs_queue_number
vector 2 Network.player minion_response_time_stat:vector ETV
attr source signal_minion_response_time
vector 3 Network.player minion_waiting_time_stat:vector ETV
attr source signal_minion_waiting_time
vector 4 Network.player boss_jobs_number_stat:vector ETV
attr source signal_boss_jobs_number
vector 5 Network.player boss_jobs_queue_number_stat:vector ETV
attr source signal_boss_jobs_queue_number
vector 6 Network.player minion_recovered_stat:vector ETV
attr source signal_minion_recovered
vector 7 Network.player boss_waiting_time_stat:vector ETV
attr source signal_boss_waiting_time
vector 8 Network.player boss_defeated_stat:vector ETV
attr source signal_boss_defeated
vector 9 Network.player boss_response_time_stat:vector ETV
attr source signal_boss_response_time
vector 10 Network.player minion_jobs_number_stat:vector ETV
attr source signal_minion_jobs_number
vector 11 Network.player minion_throughput:vector ETV
attr source signal_minion_throughput
vector 12 Network.player boss_throughput:vector ETV
attr source signal_boss_throughput
0	136	354.145811507344	25
0	140	371.60787585024	26
0	141	374.640727272988	27
0	152	393.75255916988	28
0	155	410.03360782349	29
0	156	411.01502665873	30
0	157	411.803475508508	31
0	158	419.690004470933	32
0	171	456.580150859649	33
0	176	465.836559812146	34
0	177	471.975427597072	35
0	178	473.961082603569	36
0	179	481.903476458867	37
0	180	487.162206660218	38
0	181	492.176990156776	39
0	182	492.413198845862	40
0	183	492.579855396671	41
0	188	503.851826356447	42
0	189	504.036482965927	43
0	190	504.845612197655	44
0	191	504.978214136012	45
0	192	510.712923452736	46
0	204	550.832425989107	47
0	207	563.807373336373	48
0	210	572.725936614849	49
0	234	638.177406494517	50
0	235	638.592818626408	51
0	238	639.274986587101	52
0	253	671.184103677744	53
0	256	681.790988396023	54
0	262	694.92194938336	55
0	265	701.097747405126	56
0	266	708.962119782536	57
0	273	715.789302735856	58
0	280	750.154633130052	59
0	284	758.61740587678	60
0	285	770.859076820752	61
0	292	785.199883030181	62
0	295	787.792678797336	63
0	298	793.267801133095	64
0	299	794.271018446559	65
0	313	802.682191162268	66
0	314	809.379470219876	67
0	317	814.125975599102	68
0	323	839.148153559281	69
0	324	839.555760257341	70
0	325	840.199390977767	71
0	326	842.379892453131	72
0	327	842.578763700077	73
0	330	843.328630623911	74
0	331	844.130221428283	75
0	336	852.51138976076	76
0	339	859.28815367889	77
0	346	872.094113154956	78
0	347	872.459346056598	79
0	356	892.114793078202	80
0	359	895.547060029417	81
0	376	909.456746375356	82
0	377	910.279149240752	83
0	382	917.409265626242	84
0	383	919.209990570334	85
0	403	973.393434307021	86
0	404	973.833820523446	87
0	407	980.453186593933	88
0	408	983.868126381099	89
0	409	984.077591443374	90
0	412	991.182072205631	91
0	413	992.125467301282	92
0	416	993.33125891329	93
0	421	1011.234082625178	94
0	432	1030.797345782619	95
0	442	1047.918185605784	96
0	445	1054.125557371693	97
0	446	1061.280345949621	98
0	451	1070.580317938844	99
0	454	1080.170889067598	100
0	457	1087.434975104534	101
0	460	1091.596947348309	102
0	461	1097.795364441676	103
0	462	1105.621688030338	104
0	469	1112.556546872427	105
0	474	1119.387453474626	106
0	500	1184.929388658236	107
0	501	1186.175634630223	108
0	504	1205.839624085324	109
0	505	1211.502575828557	110
0	506	1211.95935172415	111
0	507	1220.758257307117	112
0	510	1224.501838423602	113
0	511	1225.942625888087	114
0	512	1228.043058796062	115
0	516	1238.261659435285	116
0	519	1240.519058761144	117
0	524	1248.054430148697	118
0	527	1256.626037802763	119
0	533	1273.312724735225	120
0	582	1384.82402064184	121
0	583	1386.41852745085	122
0	584	1386.852704506195	123
0	585	1387.957379159397	124
0	589	1397.891236441416	125
0	593	1407.418848434807	126
0	594	1415.858059866889	127
0	599	1433.126080257664	128
0	604	1442.698143751775	129
0	614	1468.838942614925	130
0	615	1477.51202128222	131
0	616	1481.545001630209	132
0	617	1483.457147618227	133
0	620	1492.566854806374	134
0	621	1494.577187028236	135
0	624	1497.801280087934	136
0	625	1500.712292017374	137
0	626	1516.923375160903	138
0	627	1517.648135228937	139
0	628	1523.234477748749	140
0	631	1525.3955988738	141
0	632	1531.902918599347	142
0	633	1533.004612093128	143
0	643	1569.912993924934	144
0	644	1573.484634891322	145
0	645	1574.427805778361	146
0	650	1577.876014587285	147
0	661	1602.957681975416	148
0	668	1626.179386674992	149
0	669	1627.214451840377	150
0	682	1652.389007525309	151
0	686	1659.350839941138	152
0	694	1668.306154162569	153
0	701	1689.26361064723	154
0	704	1699.376986413874	155
0	705	1702.689153003461	156
0	706	1703.337089616444	157
0	707	1706.970717421758	158
0	708	1709.185829896687	159
0	709	1710.888323393009	160
0	712	1726.07597775653	161
0	737	1770.006435035149	162
0	738	1770.272059227022	163
0	739	1775.981290402351	164
0	740	1779.630782885742	165
0	743	1785.196874085925	166
0	744	1789.029389391758	167
0	745	1795.336104726366	168
0	757	1817.055388038097	169
0	761	1819.235872126863	170
0	762	1821.553019481301	171
0	767	1823.996228615156	172
0	773	1848.432510010978	173
0	774	1855.471253206841	174
0	781	1870.206567159643	175
0	802	1908.680369347765	176
0	807	1918.050536085214	177
0	812	1925.975361875255	178
0	813	1928.769631637629	179
0	814	1932.88668820916	180
0	817	1953.271703522101	181
0	840	2014.433511277183	182
0	843	2018.313606783252	183
0	844	2019.28625877751	184
0	845	2024.181878703501	185
0	850	2031.864676609035	186
0	862	2049.807115302841	187
0	873	2075.736354995482	188
0	874	2079.858280149895	189
0	875	2084.409166408061	190
0	876	2090.228573476201	191
0	881	2112.728928131673	192
0	884	2118.405274351948	193
0	887	2121.318809308372	194
0	888	2121.35076202379	195
0	892	2138.437281733863	196
0	893	2139.403830835948	197
0	896	2142.78389456686	198
0	897	2144.080748783849	199
0	900	2152.207472625718	200
0	903	2158.551109996002	201
0	904	2160.229976666731	202
0	921	2193.463735326597	203
0	922	2195.571124505835	204
0	923	2199.620270421317	205
0	924	2201.943185112364	206
0	925	2203.954155654256	207
0	931	2211.197104067381	208
0	951	2248.25985498104	209
0	956	2262.071944792335	210
0	957	2268.828330373074	211
0	958	2269.244843364837	212
0	970	2281.517083705583	213
0	993	2315.648942882454	214
0	996	2319.598737648691	215
0	1001	2328.396347929045	216
0	1016	2353.974916670606	217
0	1017	2360.28163316022	218
0	1018	2364.96971824608	219
0	1022	2374.067288762553	220
0	1023	2380.058068109524	221
0	1024	2382.195896667626	222
0	1025	2385.978502395103	223
0	1026	2387.041979903539	224
0	1027	2388.463543561392	225
0	1028	2388.638211840968	226
0	1035	2418.128794115599	227
0	1040	2423.888724634498	228
0	1041	2430.757114018076	229
0	1051	2442.642795907136	230
0	1052	2454.389146448881	231
0	1062	2470.662761649014	232
0	1063	2471.170481939136	233
0	1064	2484.988265423562	234
0	1065	2488.77562063187	235
0	1066	2489.810216756887	236
0	1067	2493.471240483059	237
1	136	354.145811507344	11
1	140	371.60787585024	10
1	141	374.640727272988	9
1	147	379.608095313354	9
1	150	385.157042033546	10
1	152	393.75255916988	10
1	154	399.228233649482	10
1	155	410.03360782349	10
1	156	411.01502665873	9
1	157	411.803475508508	8
1	158	419.690004470933	7
1	162	426.29441775287	7
1	166	443.660282730514	8
1	168	448.882770349587	9
1	171	456.580150859649	9
1	173	458.137377426833	9
1	175	465.826518938555	10
1	176	465.836559812146	10
1	177	471.975427597072	9
1	178	473.961082603569	8
1	179	481.903476458867	7
1	180	487.162206660218	6
1	181	492.176990156776	5
1	182	492.413198845862	4
1	183	492.579855396671	3
1	185	494.833255579592	3
1	187	499.822669747212	4
1	188	503.851826356447	4
1	189	504.036482965927	3
1	190	504.845612197655	2
1	191	504.978214136012	1
1	192	510.712923452736	0
1	200	545.209727119979	0
1	204	550.832425989107	0
1	206	556.326563719439	0
1	207	563.807373336373	0
1	209	572.24175660314	0
1	210	572.725936614849	0
1	212	575.863779244195	0
1	214	577.881832968284	1
1	223	618.606462312563	2
1	226	621.290089637664	3
1	228	624.589581645086	4
1	231	627.159808616859	5
1	233	636.156734196456	6
1	234	638.177406494517	6
1	235	638.592818626408	5
1	237	638.695588633048	5
1	238	639.274986587101	5
1	240	639.503912377234	5
1	242	641.651605112762	6
1	244	648.446565023337	7
1	248	656.54974981075	8
1	253	671.184103677744	8
1	255	679.39638457525	8
1	256	681.790988396023	8
1	260	682.973119520857	8
1	262	694.92194938336	8
1	264	694.937514966378	8
1	265	701.097747405126	8
1	266	708.962119782536	7
1	268	709.632194269071	7
1	270	711.758812941697	8
1	272	714.745063282436	9
1	273	715.789302735856	9
1	280	750.154633130052	8
1	284	758.61740587678	7
1	285	770.859076820752	6
1	287	780.526003935068	6
1	289	782.044152913347	7
1	291	785.118702325468	8
1	292	785.199883030181	8
1	294	786.82893246052	8
1	295	787.792678797336	8
1	297	792.211735403243	8
1	298	793.267801133095	8
1	299	794.271018446559	7
1	301	794.650893746256	7
1	303	796.164645718989	8
1	305	797.919207288304	9
1	310	800.659176556938	10
1	312	802.145561068497	11
1	313	802.682191162268	11
1	314	809.379470219876	10
1	316	811.00518497882	10
1	317	814.125975599102	10
1	322	837.601350145641	10
1	323	839.148153559281	10
1	324	839.555760257341	9
1	325	840.199390977767	8
1	326	842.379892453131	7
1	327	842.578763700077	6
1	329	842.808892412795	6
1	330	843.328630623911	6
1	331	844.130221428283	5
1	333	850.859225738186	5
1	335	852.072682488855	6
1	336	852.51138976076	6
1	338	856.159958446072	6
1	339	859.28815367889	6
1	346	872.094113154956	5
1	347	872.459346056598	4
1	353	877.773073587536	4
1	356	892.114793078202	4
1	358	893.64717916577	4
1	359	895.547060029417	4
1	363	896.443773630609	4
1	365	899.605850019362	5
1	370	906.490154822813	6
1	372	908.845874933179	7
1	374	909.068777480588	8
1	376	909.456746375356	8
1	377	910.279149240752	7
1	379	910.906698195825	7
1	381	913.501120803603	8
1	382	917.409265626242	8
1	383	919.209990570334	7
1	385	923.456570972861	7
1	395	953.896826670245	8
1	397	955.784633106749	9
1	400	959.402928374506	10
1	402	967.655498130466	11
1	403	973.393434307021	11
1	404	973.833820523446	10
1	406	977.727526974586	10
1	407	980.453186593933	10
1	408	983.868126381099	9
1	409	984.077591443374	8
1	411	986.483345419537	8
1	412	991.182072205631	8
1	413	992.125467301282	7
1	415	992.65484243738	7
1	416	993.33125891329	7
1	418	1000.462186581842	7
1	420	1006.176726943197	8
1	421	1011.234082625178	8
1	428	1017.427407056631	8
1	431	1023.333185885289	9
1	432	1030.797345782619	9
1	434	1035.575057615901	9
1	436	1036.397542892707	10
1	440	1042.071307097477	11
1	442	1047.918185605784	11
1	444	1053.311955600887	11
1	445	1054.125557371693	11
1	446	1061.280345949621	10
1	448	1068.628170045546	10
1	450	1068.7372523909	11
1	451	1070.580317938844	11
1	453	1076.558449330755	11
1	454	1080.170889067598	11
1	456	1085.269920578633	11
1	457	1087.434975104534	11
1	459	1090.503816550838	11
1	460	1091.596947348309	11
1	461	1097.795364441676	10
1	462	1105.621688030338	9
1	464	1108.756096424927	9
1	466	1109.014040151767	10
1	468	1111.825117276107	11
1	469	1112.556546872427	11
1	471	1117.188075728243	11
1	473	1118.573341036805	12
1	474	1119.387453474626	12
1	478	1130.12602680693	12
1	485	1145.944497366466	13
1	500	1184.929388658236	13
1	501	1186.175634630223	12
1	503	1191.074306916834	12
1	504	1205.839624085324	12
1	505	1211.502575828557	11
1	506	1211.95935172415	10
1	507	1220.758257307117	9
1	509	1224.317871195993	9
1	510	1224.501838423602	9
1	511	1225.942625888087	8
1	512	1228.043058796062	7
1	516	1238.261659435285	6
1	518	1239.415299962359	6
1	519	1240.519058761144	6
1	521	1241.319226478284	6
1	523	1246.698348383056	7
1	524	1248.054430148697	7
1	526	1249.075240055608	7
1	527	1256.626037802763	7
1	531	1262.228682128353	7
1	533	1273.312724735225	7
1	537	1281.456586332296	7
1	541	1285.868618464094	8
1	543	1287.995910071284	9
1	545	1290.105014442061	10
1	553	1297.064115025479	11
1	559	1309.251003332188	12
1	563	1322.970381474386	13
1	565	1327.054292896169	14
1	569	1337.426373481282	15
1	571	1339.570652825673	16
1	577	1353.57388117284	17
1	579	1354.516585092584	18
1	582	1384.82402064184	18
1	583	1386.41852745085	17
1	584	1386.852704506195	16
1	585	1387.957379159397	15
1	589	1397.891236441416	14
1	593	1407.418848434807	13
1	594	1415.858059866889	12
1	596	1421.845319537203	12
1	598	1433.077455864582	13
1	599	1433.126080257664	13
1	601	1434.570566934513	13
1	603	1436.700873309931	14
1	604	1442.698143751775	14
1	606	1444.299171092421	14
1	610	1451.583659890725	15
1	613	1462.140670769399	16
1	614	1468.838942614925	16
1	615	1477.51202128222	15
1	616	1481.545001630209	14
1	617	1483.457147618227	13
1	619	1486.551119297569	13
1	620	1492.566854806374	13
1	621	1494.577187028236	12
1	623	1496.223907441521	12
1	624	1497.801280087934	12
1	625	1500.712292017374	11
1	626	1516.923375160903	10
1	627	1517.648135228937	9
1	628	1523.234477748749	8
1	630	1523.68482419876	8
1	631	1525.3955988738	8
1	632	1531.902918599347	7
1	633	1533.004612093128	6
1	635	1535.830083928314	6
1	639	1552.15528015073	7
1	642	1569.113611818043	8
1	643	1569.912993924934	8
1	644	1573.484634891322	7
1	645	1574.427805778361	6
1	647	1574.59712260323	6
1	649	1577.783622414697	7
1	650	1577.876014587285	7
1	656	1588.000980001104	7
1	659	1592.596152355802	8
1	661	1602.957681975416	8
1	668	1626.179386674992	7
1	669	1627.214451840377	6
1	675	1636.55918818209	6
1	678	1640.641096239258	7
1	681	1650.918419052956	8
1	682	1652.389007525309	8
1	686	1659.350839941138	7
1	690	1663.785704815084	7
1	693	1667.004304150596	8
1	694	1668.306154162569	8
1	696	1674.644996918479	8
1	698	1675.406868188611	9
1	700	1683.621375205935	10
1	701	1689.26361064723	10
1	703	1691.870758945599	10
1	704	1699.376986413874	10
1	705	1702.689153003461	9
1	706	1703.337089616444	8
1	707	1706.970717421758	7
1	708	1709.185829896687	6
1	709	1710.888323393009	5
1	711	1720.321633944097	5
1	712	1726.07597775653	5
1	714	1728.242047121611	5
1	716	1733.304477625183	6
1	720	1736.123190533158	7
1	722	1736.909763431248	8
1	725	1745.044126709653	9
1	727	1748.564229081137	10
1	729	1749.269661046032	11
1	733	1753.344411509976	12
1	736	1768.415993221564	13
1	737	1770.006435035149	13
1	738	1770.272059227022	12
1	739	1775.981290402351	11
1	740	1779.630782885742	10
1	742	1784.209010264732	10
1	743	1785.196874085925	10
1	744	1789.029389391758	9
1	745	1795.336104726366	8
1	749	1800.178677377241	8
1	751	1800.95833616599	9
1	754	1802.963572909128	10
1	756	1808.674857293738	11
1	757	1817.055388038097	11
1	761	1819.235872126863	10
1	762	1821.553019481301	9
1	764	1823.070351810148	9
1	766	1823.916015992079	10
1	767	1823.996228615156	10
1	769	1834.242923632817	10
1	773	1848.432510010978	10
1	774	1855.471253206841	9
1	781	1870.206567159643	8
1	791	1884.674211425783	8
1	796	1897.934943306775	9
1	798	1899.021409378431	10
1	801	1908.271706007079	11
1	802	1908.680369347765	11
1	804	1911.895429355032	11
1	806	1914.724388814061	12
1	807	1918.050536085214	12
1	809	1919.490991222787	12
1	811	1923.241762418407	13
1	812	1925.975361875255	13
1	813	1928.769631637629	12
1	814	1932.88668820916	11
1	816	1936.92438258832	11
1	817	1953.271703522101	11
1	823	1961.501522926047	11
1	826	1965.216661545734	12
1	828	1976.143259682891	13
1	830	1977.106085114153	14
1	836	2002.049166686635	15
1	840	2014.433511277183	15
1	842	2014.824804974099	15
1	843	2018.313606783252	15
1	844	2019.28625877751	14
1	845	2024.181878703501	13
1	847	2026.435831902888	13
1	849	2026.746619278247	14
1	850	2031.864676609035	14
1	852	2034.2767880203	14
1	856	2040.832134308452	15
1	858	2041.731501973777	16
1	861	2044.394175563752	17
1	862	2049.807115302841	17
1	864	2057.540071414153	17
1	868	2064.678649429053	18
1	873	2075.736354995482	18
1	874	2079.858280149895	17
1	875	2084.409166408061	16
1	876	2090.228573476201	15
1	878	2100.643440090761	15
1	880	2109.735389103771	16
1	881	2112.728928131673	16
1	883	2114.55518655679	16
1	884	2118.405274351948	16
1	886	2119.70008837266	16
1	887	2121.318809308372	16
1	888	2121.35076202379	15
1	892	2138.437281733863	14
1	893	2139.403830835948	13
1	895	2141.252353958549	13
1	896	2142.78389456686	13
1	897	2144.080748783849	12
1	899	2145.214967111336	12
1	900	2152.207472625718	12
1	902	2156.225819555676	12
1	903	2158.551109996002	12
1	904	2160.229976666731	11
1	908	2162.801836191714	11
1	916	2176.399567796595	12
1	921	2193.463735326597	12
1	922	2195.571124505835	11
1	923	2199.620270421317	10
1	924	2201.943185112364	9
1	925	2203.954155654256	8
1	927	2206.400218154673	8
1	931	2211.197104067381	8
1	933	2212.910426022293	8
1	943	2223.822523938987	9
1	945	2229.518382743654	10
1	947	2237.356526885323	11
1	949	2242.16939733723	12
1	951	2248.25985498104	12
1	953	2249.811830180648	12
1	955	2260.677147560681	13
1	956	2262.071944792335	13
1	957	2268.828330373074	12
1	958	2269.244843364837	11
1	964	2276.381357349022	11
1	970	2281.517083705583	11
1	977	2299.593657816942	11
1	981	2305.917559909468	12
1	985	2308.049972561187	13
1	988	2311.300208667409	14
1	990	2311.517313327987	15
1	993	2315.648942882454	15
1	995	2317.103988873237	15
1	996	2319.598737648691	15
1	998	2321.252529477898	15
1	1000	2324.894460081239	16
1	1001	2328.396347929045	16
1	1014	2345.158710441866	16
1	1016	2353.974916670606	16
1	1017	2360.28163316022	15
1	1018	2364.96971824608	14
1	1022	2374.067288762553	13
1	1023	2380.058068109524	12
1	1024	2382.195896667626	11
1	1025	2385.978502395103	10
1	1026	2387.041979903539	9
1	1027	2388.463543561392	8
1	1028	2388.638211840968	7
1	1030	2393.48451685585	7
1	1032	2409.027012630994	8
1	1034	2414.534346640401	9
1	1035	2418.128794115599	9
1	1037	2418.902692042539	9
1	1039	2419.493416931437	10
1	1040	2423.888724634498	10
1	1041	2430.757114018076	9
1	1043	2432.165685310105	9
1	1047	2437.386547876681	10
1	1049	2439.315187646736	11
1	1051	2442.642795907136	11
1	1052	2454.389146448881	10
1	1057	2461.210077954654	10
1	1059	2463.600744450632	11
1	1061	2464.886615128397	12
1	1062	2470.662761649014	12
1	1063	2471.170481939136	11
1	1064	2484.988265423562	10
1	1065	2488.77562063187	9
1	1066	2489.810216756887	8
1	1067	2493.471240483059	7
2	136	354.145811507344	67.39686014529
2	140	371.60787585024	79.354789455596
2	141	374.640727272988	70.35156761755
2	152	393.75255916988	84.243482276845
2	155	410.03360782349	96.796228591979
2	156	411.01502665873	97.161869478262
2	157	411.803475508508	89.497959677832
2	158	419.690004470933	93.850285423604
2	171	456.580150859649	125.06645339401
2	176	465.836559812146	104.81473426298
2	177	471.975427597072	93.9847617765
2	178	473.961082603569	94.352987290215
2	179	481.903476458867	96.746434425321
2	180	487.162206660218	87.933973010736
2	181	492.176990156776	70.167347295857
2	182	492.413198845862	66.118781092992
2	183	492.579855396671	48.919572666157
2	188	503.851826356447	54.96905600686
2	189	504.036482965927	45.899105539094
2	190	504.845612197655	39.0190932591
2	191	504.978214136012	10.14495855642
2	192	510.712923452736	10.890253705524
2	204	550.832425989107	5.459300904122
2	207	563.807373336373	7.480809616934
2	210	572.725936614849	0.484180011709
2	234	638.177406494517	60.295573526233
2	235	638.592818626408	49.236729192148
2	238	639.274986587101	20.668524274538
2	253	671.184103677744	46.594522032658
2	256	681.790988396023	54.631179779164
2	262	694.92194938336	56.226360750312
2	265	701.097747405126	61.593835027892
2	266	708.962119782536	67.310514669774
2	273	715.789302735856	67.342737712519
2	280	750.154633130052	70.758248554802
2	284	758.61740587678	75.644286355923
2	285	770.859076820752	75.921561854374
2	292	785.199883030181	75.56768876111
2	295	787.792678797336	76.033865855639
2	298	793.267801133095	78.522737850659
2	299	794.271018446559	71.661307329343
2	313	802.682191162268	51.570262395937
2	314	809.379470219876	28.853466284808
2	317	814.125975599102	32.081822685755
2	323	839.148153559281	52.319221098761
2	324	839.555760257341	47.344024854098
2	325	840.199390977767	45.548497231511
2	326	842.379892453131	46.215246734142
2	327	842.578763700077	44.659556411773
2	330	843.328630623911	43.695770614759
2	331	844.130221428283	43.471044871345
2	336	852.51138976076	50.365828692263
2	339	859.28815367889	48.28296870007
2	346	872.094113154956	29.285220742161
2	347	872.459346056598	21.600120318412
2	356	892.114793078202	35.95483463213
2	359	895.547060029417	35.439695931602
2	376	909.456746375356	36.224582407981
2	377	910.279149240752	32.506075653216
2	382	917.409265626242	23.762086460472
2	383	919.209990570334	22.919580945704
2	403	973.393434307021	66.903279484208
2	404	973.833820523446	64.987945590267
2	407	980.453186593933	71.384409113345
2	408	983.868126381099	72.961428185274
2	409	984.077591443374	70.576470639771
2	412	991.182072205631	67.72550123277
2	413	992.125467301282	67.635131547157
2	416	993.33125891329	48.895166614366
2	421	1011.234082625178	57.337255954933
2	432	1030.797345782619	63.141847652153
2	442	1047.918185605784	61.434840186247
2	445	1054.125557371693	61.470714934313
2	446	1061.280345949621	60.818159367779
2	451	1070.580317938844	64.403590995647
2	454	1080.170889067598	68.398900647228
2	457	1087.434975104534	74.922328728628
2	460	1091.596947348309	74.169540291678
2	461	1097.795364441676	74.462178556387
2	462	1105.621688030338	70.046630414437
2	469	1112.556546872427	76.15900397972
2	474	1119.387453474626	81.016334168886
2	500	1184.929388658236	131.61743305735
2	501	1186.175634630223	117.54746458468
2	504	1205.839624085324	137.10237169442
2	505	1211.502575828557	134.9441264978
2	506	1211.95935172415	126.68943114552
2	507	1220.758257307117	130.25444075628
2	510	1224.501838423602	115.74574199868
2	511	1225.942625888087	116.92858573632
2	512	1228.043058796062	116.21794151995
2	516	1238.261659435285	119.68831839848
2	519	1240.519058761144	115.83190976554
2	524	1248.054430148697	117.92840334177
2	527	1256.626037802763	110.6815404363
2	533	1273.312724735225	48.994853539232
2	582	1384.82402064184	145.40872067948
2	583	1386.41852745085	145.09930097257
2	584	1386.852704506195	140.15435612314
2	585	1387.957379159397	138.88213910379
2	589	1397.891236441416	135.66255431306
2	593	1407.418848434807	125.96226210251
2	594	1415.858059866889	129.98944140279
2	599	1433.126080257664	145.13017018638
2	604	1442.698143751775	152.59312930971
2	614	1468.838942614925	159.58793928274
2	615	1477.51202128222	154.54163980783
2	616	1481.545001630209	154.49070873404
2	617	1483.457147618227	146.03077413694
2	620	1492.566854806374	152.9962019807
2	621	1494.577187028236	141.0033058554
2	624	1497.801280087934	143.28469499535
2	625	1500.712292017374	111.92626292649
2	626	1516.923375160903	116.82373600274
2	627	1517.648135228937	95.802815691734
2	628	1523.234477748749	90.157021884167
2	631	1525.3955988738	90.825031939287
2	632	1531.902918599347	95.202045289416
2	633	1533.004612093128	88.705441000707
2	643	1569.912993924934	118.32933403421
2	644	1573.484634891322	111.34396412192
2	645	1574.427805778361	87.876686480792
2	650	1577.876014587285	81.652107145764
2	661	1602.957681975416	67.127598047102
2	668	1626.179386674992	74.024106524262
2	669	1627.214451840377	58.100840022334
2	682	1652.389007525309	74.605385110612
2	686	1659.350839941138	71.349859940034
2	694	1668.306154162569	54.679964414078
2	701	1689.26361064723	60.275025697351
2	704	1699.376986413874	62.817798231784
2	705	1702.689153003461	62.048056764203
2	706	1703.337089616444	52.418670563488
2	707	1706.970717421758	52.745623593653
2	708	1709.185829896687	45.659932119843
2	709	1710.888323393009	47.102618577925
2	712	1726.07597775653	59.071673605934
2	737	1770.006435035149	86.385059829214
2	738	1770.272059227022	78.401300281423
2	739	1775.981290402351	55.659656458254
2	740	1779.630782885742	51.388735764131
2	743	1785.196874085925	51.892396460742
2	744	1789.029389391758	54.952148862952
2	745	1795.336104726366	59.212914193208
2	757	1817.055388038097	72.011261328444
2	761	1819.235872126863	69.966211080831
2	762	1821.553019481301	72.115036886873
2	767	1823.996228615156	70.65181710518
2	773	1848.432510010978	64.223499746246
2	774	1855.471253206841	56.065329804901
2	781	1870.206567159643	67.242994250515
2	802	1908.680369347765	85.610017537617
2	807	1918.050536085214	94.134520093135
2	812	1925.975361875255	91.732438242438
2	813	1928.769631637629	84.323654346434
2	814	1932.88668820916	75.716736970447
2	817	1953.271703522101	88.008612924718
2	840	2014.433511277183	119.8587428129
2	843	2018.313606783252	120.37866347648
2	844	2019.28625877751	120.26484939908
2	845	2024.181878703501	115.91017269642
2	850	2031.864676609035	119.969247254
2	862	2049.807115302841	130.31612408005
2	873	2075.736354995482	119.46648376758
2	874	2079.858280149895	118.35675722385
2	875	2084.409166408061	119.19250486233
2	876	2090.228573476201	114.08531379331
2	881	2112.728928131673	135.62284301752
2	884	2118.405274351948	116.35610766531
2	887	2121.318809308372	112.62001043403
2	888	2121.35076202379	106.52595704969
2	892	2138.437281733863	111.69066245562
2	893	2139.403830835948	105.12704281565
2	896	2142.78389456686	102.44674670228
2	897	2144.080748783849	103.2486144754
2	900	2152.207472625718	110.47597065194
2	903	2158.551109996002	114.15693443225
2	904	2160.229976666731	102.68990525258
2	921	2193.463735326597	121.02379625469
2	922	2195.571124505835	94.927684415074
2	923	2199.620270421317	89.884881317546
2	924	2201.943185112364	87.387998555574
2	925	2203.954155654256	84.254067281596
2	931	2211.197104067381	69.944750108832
2	951	2248.25985498104	85.458018789326
2	956	2262.071944792335	85.67237699574
2	957	2268.828330373074	84.359212351218
2	958	2269.244843364837	62.844625210164
2	970	2281.517083705583	68.242745732338
2	993	2315.648942882454	91.826418943467
2	996	2319.598737648691	90.080354905037
2	1001	2328.396347929045	91.039821043722
2	1016	2353.974916670606	104.16308648996
2	1017	2360.28163316022	99.604485599539
2	1018	2364.96971824608	92.821555175852
2	1022	2374.067288762553	93.407421688215
2	1023	2380.058068109524	94.864413605885
2	1024	2382.195896667626	85.489054165095
2	1025	2385.978502395103	86.384844578161
2	1026	2387.041979903539	81.124419994071
2	1027	2388.463543561392	80.413571000205
2	1028	2388.638211840968	77.338003173559
2	1035	2418.128794115599	106.61148078761
2	1040	2423.888724634498	106.78473576126
2	1041	2430.757114018076	109.50458454018
2	1051	2442.642795907136	113.74741028678
2	1052	2454.389146448881	109.23043600702
2	1062	2470.662761649014	77.178244793164
2	1063	2471.170481939136	62.143469308142
2	1064	2484.988265423562	70.453918783161
2	1065	2488.77562063187	69.872928589331
2	1066	2489.810216756887	70.31679982545
2	1067	2493.471240483059	61.305555172954
3	136	354.145811507344	62.135564972743
3	139	363.428380091388	71.175293696744
3	140	371.60787585024	67.318716194802
3	141	374.640727272988	65.286735292217
3	151	385.966253748444	76.457176855409
3	152	393.75255916988	80.515179938369
3	155	410.03360782349	96.180450643022
3	156	411.01502665873	88.709510828054
3	157	411.803475508508	85.963756461179
3	158	419.690004470933	89.037512656576
3	170	456.222890461734	124.70919299609
3	171	456.580150859649	95.558325310485
3	176	465.836559812146	87.845893991574
3	177	471.975427597072	92.367332283718
3	178	473.961082603569	88.804040570023
3	179	481.903476458867	82.675242809385
3	180	487.162206660218	65.152563799299
3	181	492.176990156776	65.882572403906
3	182	492.413198845862	48.752916115348
3	183	492.579855396671	43.697085047084
3	188	503.851826356447	45.714448929614
3	189	504.036482965927	38.209964027372
3	190	504.845612197655	10.012356618063
3	191	504.978214136012	5.1555443888
3	200	545.209727119979	0
3	203	546.349781612749	0.976656527764
3	206	556.326563719439	0
3	209	572.24175660314	0
3	212	575.863779244195	0
3	229	625.108927700392	47.227094732108
3	234	638.177406494517	48.821317060257
3	235	638.592818626408	19.986356313845
3	238	639.274986587101	17.984896949437
3	252	670.48488248371	45.895300838624
3	253	671.184103677744	44.024295060885
3	256	681.790988396023	45.634254199567
3	261	685.645408837783	46.949820204735
3	262	694.92194938336	55.418037006126
3	265	701.097747405126	59.446142292364
3	266	708.962119782536	60.515554759199
3	273	715.789302735856	63.127167734745
3	276	723.893358939347	67.343609128597
3	279	745.345131324382	65.948746749132
3	280	750.154633130052	68.166411047038
3	283	754.350334596412	71.377215075555
3	284	758.61740587678	63.679890910402
3	285	770.859076820752	61.226882551681
3	292	785.199883030181	73.441070088484
3	295	787.792678797336	73.0476155149
3	298	793.267801133095	70.658090015879
3	299	794.271018446559	51.9020292288
3	308	799.965194416893	48.853265650562
3	313	802.682191162268	22.1561872272
3	314	809.379470219876	27.335317306529
3	317	814.125975599102	29.007273273634
3	320	830.764854643187	43.935922182667
3	323	839.148153559281	46.936418156038
3	324	839.555760257341	44.904866511085
3	325	840.199390977767	44.034745258778
3	326	842.379892453131	44.460685164827
3	327	842.578763700077	42.945903690925
3	330	843.328630623911	42.669454066973
3	331	844.130221428283	41.984660359786
3	336	852.51138976076	41.50620478194
3	339	859.28815367889	44.434659968209
3	342	863.207518604803	25.606168459162
3	345	868.178796501263	25.369904088468
3	346	872.094113154956	21.23488741677
3	347	872.459346056598	20.386663567743
3	355	889.791961338903	33.632002892831
3	356	892.114793078202	32.007428980387
3	359	895.547060029417	32.165613754564
3	375	909.246240747242	36.014076779867
3	376	909.456746375356	31.68367278782
3	377	910.279149240752	16.631970074982
3	382	917.409265626242	21.118856001612
3	383	919.209990570334	22.766216939725
3	388	933.959604348933	34.353754329571
3	398	958.417038436586	51.926883613773
3	403	973.393434307021	64.547559373842
3	404	973.833820523446	64.765043042858
3	407	980.453186593933	69.546488398108
3	408	983.868126381099	70.367005577496
3	409	984.077591443374	60.621020470513
3	412	991.182072205631	66.691736451506
3	413	992.125467301282	47.689375002358
3	416	993.33125891329	39.434432243045
3	421	1011.234082625178	55.449449518429
3	424	1012.110186622474	52.707258247968
3	429	1019.365570128123	51.710071997657
3	432	1030.797345782619	53.069818808033
3	441	1046.740395178333	60.257049758796
3	442	1047.918185605784	55.263343168404
3	445	1054.125557371693	53.663370789851
3	446	1061.280345949621	55.103619006424
3	451	1070.580317938844	58.808329518474
3	454	1080.170889067598	67.658242691692
3	457	1087.434975104534	70.007568047903
3	460	1091.596947348309	68.26376146302
3	461	1097.795364441676	62.220306825775
3	462	1105.621688030338	69.224145137631
3	469	1112.556546872427	74.185427566687
3	474	1119.387453474626	77.316146377149
3	499	1183.105476785641	129.79352118475
3	500	1184.929388658236	116.30121861269
3	501	1186.175634630223	117.43838223932
3	504	1205.839624085324	129.28117475457
3	505	1211.502575828557	126.23265524992
3	506	1211.95935172415	121.45553517331
3	507	1220.758257307117	112.00216088219
3	510	1224.501838423602	115.48779827184
3	511	1225.942625888087	114.11750861198
3	512	1228.043058796062	110.85498306782
3	515	1231.519364449137	112.94602341233
3	516	1238.261659435285	113.57451043968
3	519	1240.519058761144	110.39303195421
3	524	1248.054430148697	102.10993278223
3	527	1256.626037802763	65.551730885929
3	532	1264.242982894153	39.92511169816
3	533	1273.312724735225	42.952886023222
3	581	1381.443638494297	142.02833853194
3	582	1384.82402064184	143.50479416356
3	583	1386.41852745085	139.72017906779
3	584	1386.852704506195	137.77746445059
3	585	1387.957379159397	130.196091754
3	588	1390.829515230374	128.60083310202
3	589	1397.891236441416	120.75191287897
3	592	1402.62842829961	121.17184196731
3	593	1407.418848434807	121.55022997071
3	594	1415.858059866889	127.8621497956
3	599	1433.126080257664	143.0210658156
3	604	1442.698143751775	145.6340287263
3	611	1460.406884764992	151.1558814328
3	614	1468.838942614925	145.86856114054
3	615	1477.51202128222	150.45772838605
3	616	1481.545001630209	144.11862814893
3	617	1483.457147618227	143.88649479255
3	620	1492.566854806374	138.99297363353
3	621	1494.577187028236	140.06060193565
3	624	1497.801280087934	109.01525099705
3	625	1500.712292017374	100.61265285921
3	626	1516.923375160903	95.0780556237
3	627	1517.648135228937	84.570679364355
3	628	1523.234477748749	88.663910814236
3	631	1525.3955988738	88.694725563869
3	632	1531.902918599347	87.603747506926
3	633	1533.004612093128	84.535652267679
3	640	1562.082082011916	110.49842212119
3	643	1569.912993924934	107.77232315553
3	644	1573.484634891322	86.933515593753
3	645	1574.427805778361	78.20389833684
3	650	1577.876014587285	54.191190388525
3	660	1601.432410430449	65.602326502135
3	661	1602.957681975416	62.892639528559
3	667	1622.159198158331	70.003918007601
3	668	1626.179386674992	57.065774856949
3	669	1627.214451840377	52.617329237147
3	679	1642.232974831728	64.449352417031
3	682	1652.389007525309	69.063123599761
3	685	1656.155542868696	68.154562867592
3	686	1659.350839941138	66.754687585336
3	691	1666.256571207715	52.630381459224
3	694	1668.306154162569	39.31756921269
3	701	1689.26361064723	52.70442246514
3	704	1699.376986413874	58.735890174616
3	705	1702.689153003461	51.770733950505
3	706	1703.337089616444	49.111995788339
3	707	1706.970717421758	43.444819644914
3	708	1709.185829896687	45.400125081603
3	709	1710.888323393009	43.884019242413
3	712	1726.07597775653	51.430980838051
3	723	1744.355157219575	68.948289030964
3	734	1760.382610819985	76.76123561405
3	737	1770.006435035149	78.13567608955
3	738	1770.272059227022	49.950425282925
3	739	1775.981290402351	47.73924328074
3	740	1779.630782885742	46.326305260559
3	743	1785.196874085925	51.119633557119
3	744	1789.029389391758	52.9061988586
3	745	1795.336104726366	58.426341295118
3	752	1802.524858744557	57.480732034904
3	757	1817.055388038097	68.49115895696
3	760	1819.104300114631	69.834639068599
3	761	1819.235872126863	69.797889532435
3	762	1821.553019481301	68.208607971325
3	767	1823.996228615156	55.580235393592
3	772	1845.245583666735	61.036573402003
3	773	1848.432510010978	49.026586609038
3	774	1855.471253206841	55.2925758296
3	777	1862.365971728918	61.407635562928
3	780	1865.73754649701	62.773973587882
3	781	1870.206567159643	61.531709865905
3	792	1887.989499628837	69.494632773335
3	799	1903.500296281035	80.429944470887
3	802	1908.680369347765	84.764353355686
3	807	1918.050536085214	83.807612452397
3	812	1925.975361875255	81.52938458406
3	813	1928.769631637629	71.599680398916
3	814	1932.88668820916	67.623597611777
3	817	1953.271703522101	82.379420900731
3	834	1988.308839403281	103.6346279775
3	839	2013.564955245262	118.99018678098
3	840	2014.433511277183	116.49856797041
3	843	2018.313606783252	119.29219740482
3	844	2019.28625877751	111.01455277043
3	845	2024.181878703501	112.28644934847
3	850	2031.864676609035	117.14028779497
3	859	2043.499520512042	124.00852928925
3	862	2049.807115302841	126.56535288443
3	869	2069.59158058318	132.66719799486
3	872	2074.5930536897	118.3231824618
3	873	2075.736354995482	114.23483206944
3	874	2079.858280149895	114.64161860416
3	875	2084.409166408061	108.26590672517
3	876	2090.228573476201	113.12248836205
3	881	2112.728928131673	110.67976144504
3	884	2118.405274351948	109.7064754776
3	887	2121.318809308372	106.49400433427
3	888	2121.35076202379	94.914930120902
3	891	2137.520859073966	110.77423979572
3	892	2138.437281733863	104.16049371356
3	893	2139.403830835948	99.066682971369
3	896	2142.78389456686	101.95176025841
3	897	2144.080748783849	102.34924681007
3	900	2152.207472625718	107.81329706197
3	903	2158.551109996002	101.01103858185
3	904	2160.229976666731	99.467996963742
3	917	2179.842348373591	115.16369894454
3	920	2189.25033397384	116.81039490193
3	921	2193.463735326597	92.820295235836
3	922	2195.571124505835	85.835735402064
3	923	2199.620270421317	85.065083864527
3	924	2201.943185112364	82.243096739704
3	925	2203.954155654256	78.49984204163
3	930	2208.435357429784	67.183003471235
3	931	2211.197104067381	65.982136956045
3	936	2216.860503891997	60.634684336321
3	939	2217.981824189026	56.201006034512
3	950	2247.934312722687	85.132476530973
3	951	2248.25985498104	71.860287184445
3	956	2262.071944792335	77.602826770479
3	957	2268.828330373074	62.428112218401
3	958	2269.244843364837	62.567177724542
3	966	2280.319126918691	67.408700896398
3	969	2281.51589133903	68.241553365785
3	970	2281.517083705583	64.514514262824
3	973	2291.281619938159	70.143781623384
3	992	2314.732702937323	90.910178998336
3	993	2315.648942882454	86.1305601388
3	996	2319.598737648691	82.242210763368
3	1001	2328.396347929045	86.226950591815
3	1015	2353.931797167166	104.11996698652
3	1016	2353.974916670606	93.297769109925
3	1017	2360.28163316022	88.133470089992
3	1018	2364.96971824608	88.588360897058
3	1021	2371.112041600272	90.452174525934
3	1022	2374.067288762553	88.873634258914
3	1023	2380.058068109524	83.351225606993
3	1024	2382.195896667626	82.602238850684
3	1025	2385.978502395103	80.060942485635
3	1026	2387.041979903539	78.992007342352
3	1027	2388.463543561392	77.163334893983
3	1028	2388.638211840968	77.120898512981
3	1035	2418.128794115599	101.02480524236
3	1040	2423.888724634498	102.6361951566
3	1041	2430.757114018076	105.86265393684
3	1050	2442.04882252828	113.15343690792
3	1051	2442.642795907136	97.48408546527
3	1052	2454.389146448881	87.133791193263
3	1055	2456.144012263149	62.659495407299
3	1062	2470.662761649014	61.63574901802
3	1063	2471.170481939136	56.636135298735
3	1064	2484.988265423562	66.085573381023
3	1065	2488.77562063187	69.282203700433
3	1066	2489.810216756887	57.644531446782
3	1067	2493.471240483059	57.069297588091
4	138	361.021825549164	1
4	143	377.990665820572	1
4	145	378.253915431294	2
4	160	422.009642860919	1
4	164	440.507768153143	2
4	194	523.73951392862	1
4	197	530.555131859566	1
4	202	545.373125084985	1
4	216	589.35608943426	1
4	218	610.291214639623	2
4	221	615.800908427453	2
4	246	652.662135001111	1
4	250	662.997675276741	2
4	258	681.988222083014	1
4	275	722.609711117216	1
4	278	742.368989217759	1
4	282	751.111928766331	1
4	307	799.632860009152	1
4	319	814.853493710681	1
4	341	860.107364097815	1
4	344	863.381446274853	1
4	349	873.232163967375	1
4	351	875.141813991404	2
4	361	896.29040962463	1
4	367	900.777193276199	2
4	387	924.490335754125	1
4	390	944.436092298924	1
4	392	951.47929612701	2
4	423	1011.77198842037	1
4	426	1012.512646375906	1
4	438	1038.37111930574	1
4	476	1124.687148995609	1
4	480	1134.14472775205	2
4	482	1136.014676504768	3
4	488	1150.696087075246	2
4	491	1163.995141988292	2
4	493	1164.834707420463	3
4	496	1175.182035494463	3
4	514	1230.359838712003	1
4	529	1257.761287405401	1
4	535	1277.139323562446	1
4	539	1284.576761460268	2
4	547	1290.546818596825	3
4	549	1290.626256761703	4
4	551	1295.97049487972	5
4	555	1303.980580883593	6
4	561	1309.463716143574	5
4	574	1347.514072646773	3
4	587	1388.786029090884	1
4	591	1400.099639158162	1
4	608	1448.468959825449	1
4	637	1540.065042446857	1
4	652	1583.325883925548	1
4	654	1586.275170027452	2
4	663	1613.626189748491	1
4	665	1614.26675634966	2
4	671	1628.988584949879	1
4	673	1633.042512394715	2
4	684	1654.225093828105	1
4	688	1663.525897776844	1
4	718	1734.077240528806	1
4	731	1749.437982594428	1
4	747	1799.40592340194	1
4	759	1818.494866855502	1
4	771	1844.445977291195	1
4	776	1857.169951238713	1
4	779	1865.263090597383	1
4	783	1870.89228262137	1
4	785	1874.166523009959	2
4	788	1875.969531453931	2
4	794	1894.574768464284	1
4	819	1956.269871227903	1
4	821	1958.634551972986	2
4	832	1983.36840924784	2
4	838	2008.698798874346	1
4	854	2040.337147864579	1
4	866	2060.761979702989	1
4	871	2072.43993907191	1
4	890	2125.454313612626	1
4	906	2161.780818154514	1
4	910	2164.572453140033	2
4	912	2165.34997202045	3
4	919	2184.469118021856	1
4	929	2206.677665640295	1
4	935	2213.274337973245	1
4	938	2217.002569442759	1
4	941	2221.137838314775	1
4	960	2272.148163070228	1
4	962	2275.806883192869	2
4	968	2280.659867074338	1
4	972	2285.193654503639	1
4	975	2296.706842502531	1
4	979	2299.904511665169	2
4	983	2307.946249155461	3
4	1003	2328.895385620355	1
4	1005	2339.416810040685	2
4	1007	2339.425908011321	3
4	1010	2342.523346328393	3
4	1020	2367.255355255618	1
4	1045	2436.401942894968	1
4	1054	2455.75371522284	1
5	138	361.021825549164	0
5	139	363.428380091388	0
5	143	377.990665820572	0
5	145	378.253915431294	1
5	148	382.075944824799	1
5	151	385.966253748444	0
5	160	422.009642860919	0
5	164	440.507768153143	1
5	169	454.616254440765	1
5	170	456.222890461734	0
5	194	523.73951392862	0
5	195	524.449457429552	0
5	197	530.555131859566	0
5	198	532.841469300075	0
5	202	545.373125084985	0
5	203	546.349781612749	0
5	216	589.35608943426	0
5	218	610.291214639623	1
5	219	614.452586666556	1
5	221	615.800908427453	1
5	224	620.272246126578	1
5	229	625.108927700392	0
5	246	652.662135001111	0
5	250	662.997675276741	1
5	251	664.472898186955	1
5	252	670.48488248371	0
5	258	681.988222083014	0
5	261	685.645408837783	0
5	275	722.609711117216	0
5	276	723.893358939347	0
5	278	742.368989217759	0
5	279	745.345131324382	0
5	282	751.111928766331	0
5	283	754.350334596412	0
5	307	799.632860009152	0
5	308	799.965194416893	0
5	319	814.853493710681	0
5	320	830.764854643187	0
5	341	860.107364097815	0
5	342	863.207518604803	0
5	344	863.381446274853	0
5	345	868.178796501263	0
5	349	873.232163967375	0
5	351	875.141813991404	1
5	354	879.107903420171	1
5	355	889.791961338903	0
5	361	896.29040962463	0
5	367	900.777193276199	1
5	368	902.326630756692	1
5	375	909.246240747242	0
5	387	924.490335754125	0
5	388	933.959604348933	0
5	390	944.436092298924	0
5	392	951.47929612701	1
5	393	952.187309650594	1
5	398	958.417038436586	0
5	423	1011.77198842037	0
5	424	1012.110186622474	0
5	426	1012.512646375906	0
5	429	1019.365570128123	0
5	438	1038.37111930574	0
5	441	1046.740395178333	0
5	476	1124.687148995609	0
5	480	1134.14472775205	1
5	482	1136.014676504768	2
5	483	1136.310648626133	2
5	486	1148.131585165124	1
5	488	1150.696087075246	1
5	489	1163.10313429164	1
5	491	1163.995141988292	1
5	493	1164.834707420463	2
5	494	1166.895886459264	2
5	496	1175.182035494463	2
5	497	1179.152015303327	2
5	498	1180.804431823321	1
5	499	1183.105476785641	0
5	514	1230.359838712003	0
5	515	1231.519364449137	0
5	529	1257.761287405401	0
5	532	1264.242982894153	0
5	535	1277.139323562446	0
5	539	1284.576761460268	1
5	547	1290.546818596825	2
5	549	1290.626256761703	3
5	551	1295.97049487972	4
5	555	1303.980580883593	5
5	556	1305.489556262951	5
5	557	1306.584921142533	4
5	561	1309.463716143574	4
5	566	1329.154083265036	4
5	567	1335.574139696859	3
5	572	1347.507423675709	2
5	574	1347.514072646773	2
5	575	1347.834780011086	2
5	580	1368.833624828298	1
5	581	1381.443638494297	0
5	587	1388.786029090884	0
5	588	1390.829515230374	0
5	591	1400.099639158162	0
5	592	1402.62842829961	0
5	608	1448.468959825449	0
5	611	1460.406884764992	0
5	637	1540.065042446857	0
5	640	1562.082082011916	0
5	652	1583.325883925548	0
5	654	1586.275170027452	1
5	657	1588.319098250521	1
5	660	1601.432410430449	0
5	663	1613.626189748491	0
5	665	1614.26675634966	1
5	666	1621.835443834908	1
5	667	1622.159198158331	0
5	671	1628.988584949879	0
5	673	1633.042512394715	1
5	676	1638.469326675055	1
5	679	1642.232974831728	0
5	684	1654.225093828105	0
5	685	1656.155542868696	0
5	688	1663.525897776844	0
5	691	1666.256571207715	0
5	718	1734.077240528806	0
5	723	1744.355157219575	0
5	731	1749.437982594428	0
5	734	1760.382610819985	0
5	747	1799.40592340194	0
5	752	1802.524858744557	0
5	759	1818.494866855502	0
5	760	1819.104300114631	0
5	771	1844.445977291195	0
5	772	1845.245583666735	0
5	776	1857.169951238713	0
5	777	1862.365971728918	0
5	779	1865.263090597383	0
5	780	1865.73754649701	0
5	783	1870.89228262137	0
5	785	1874.166523009959	1
5	786	1874.92533651652	1
5	788	1875.969531453931	1
5	789	1878.533448601449	1
5	792	1887.989499628837	0
5	794	1894.574768464284	0
5	799	1903.500296281035	0
5	819	1956.269871227903	0
5	821	1958.634551972986	1
5	824	1964.214023531632	1
5	832	1983.36840924784	1
5	833	1985.235954955451	1
5	834	1988.308839403281	0
5	838	2008.698798874346	0
5	839	2013.564955245262	0
5	854	2040.337147864579	0
5	859	2043.499520512042	0
5	866	2060.761979702989	0
5	869	2069.59158058318	0
5	871	2072.43993907191	0
5	872	2074.5930536897	0
5	890	2125.454313612626	0
5	891	2137.520859073966	0
5	906	2161.780818154514	0
5	910	2164.572453140033	1
5	912	2165.34997202045	2
5	913	2167.531265933456	2
5	914	2172.375626664718	1
5	917	2179.842348373591	0
5	919	2184.469118021856	0
5	920	2189.25033397384	0
5	929	2206.677665640295	0
5	930	2208.435357429784	0
5	935	2213.274337973245	0
5	936	2216.860503891997	0
5	938	2217.002569442759	0
5	939	2217.981824189026	0
5	941	2221.137838314775	0
5	950	2247.934312722687	0
5	960	2272.148163070228	0
5	962	2275.806883192869	1
5	965	2277.638493766218	1
5	966	2280.319126918691	0
5	968	2280.659867074338	0
5	969	2281.51589133903	0
5	972	2285.193654503639	0
5	973	2291.281619938159	0
5	975	2296.706842502531	0
5	979	2299.904511665169	1
5	983	2307.946249155461	2
5	986	2311.125341577691	2
5	991	2313.991493260448	1
5	992	2314.732702937323	0
5	1003	2328.895385620355	0
5	1005	2339.416810040685	1
5	1007	2339.425908011321	2
5	1008	2340.883159541109	2
5	1010	2342.523346328393	2
5	1011	2342.948918818942	2
5	1012	2343.251507851845	1
5	1015	2353.931797167166	0
5	1020	2367.255355255618	0
5	1021	2371.112041600272	0
5	1045	2436.401942894968	0
5	1050	2442.04882252828	0
5	1054	2455.75371522284	0
5	1055	2456.144012263149	0
6	138	361.021825549164	5
6	143	377.990665820572	6
6	160	422.009642860919	7
6	202	545.373125084985	8
6	216	589.35608943426	9
6	246	652.662135001111	10
6	258	681.988222083014	11
6	275	722.609711117216	12
6	278	742.368989217759	13
6	282	751.111928766331	14
6	307	799.632860009152	15
6	319	814.853493710681	16
6	341	860.107364097815	17
6	344	863.381446274853	18
6	349	873.232163967375	19
6	361	896.29040962463	20
6	387	924.490335754125	21
6	390	944.436092298924	22
6	423	1011.77198842037	23
6	426	1012.512646375906	24
6	438	1038.37111930574	25
6	476	1124.687148995609	26
6	514	1230.359838712003	27
6	529	1257.761287405401	28
6	535	1277.139323562446	29
6	587	1388.786029090884	30
6	591	1400.099639158162	31
6	608	1448.468959825449	32
6	637	1540.065042446857	33
6	652	1583.325883925548	34
6	663	1613.626189748491	35
6	671	1628.988584949879	36
6	684	1654.225093828105	37
6	688	1663.525897776844	38
6	718	1734.077240528806	39
6	731	1749.437982594428	40
6	747	1799.40592340194	41
6	759	1818.494866855502	42
6	771	1844.445977291195	43
6	776	1857.169951238713	44
6	779	1865.263090597383	45
6	783	1870.89228262137	46
6	794	1894.574768464284	47
6	819	1956.269871227903	48
6	838	2008.698798874346	49
6	854	2040.337147864579	50
6	866	2060.761979702989	51
6	871	2072.43993907191	52
6	890	2125.454313612626	53
6	906	2161.780818154514	54
6	919	2184.469118021856	55
6	929	2206.677665640295	56
6	935	2213.274337973245	57
6	938	2217.002569442759	58
6	941	2221.137838314775	59
6	960	2272.148163070228	60
6	968	2280.659867074338	61
6	972	2285.193654503639	62
6	975	2296.706842502531	63
6	1003	2328.895385620355	64
6	1020	2367.255355255618	65
6	1045	2436.401942894968	66
6	1054	2455.75371522284	67
7	138	361.021825549164	0
7	143	377.990665820572	0
7	148	382.075944824799	3.822029393505
7	160	422.009642860919	0
7	169	454.616254440765	14.108486287622
7	194	523.73951392862	0
7	197	530.555131859566	0
7	202	545.373125084985	0
7	216	589.35608943426	0
7	219	614.452586666556	4.161372026933
7	224	620.272246126578	4.471337699125
7	246	652.662135001111	0
7	251	664.472898186955	1.475222910214
7	258	681.988222083014	0
7	275	722.609711117216	0
7	278	742.368989217759	0
7	282	751.111928766331	0
7	307	799.632860009152	0
7	319	814.853493710681	0
7	341	860.107364097815	0
7	344	863.381446274853	0
7	349	873.232163967375	0
7	354	879.107903420171	3.966089428767
7	361	896.29040962463	0
7	368	902.326630756692	1.549437480493
7	387	924.490335754125	0
7	390	944.436092298924	0
7	393	952.187309650594	0.708013523584
7	423	1011.77198842037	0
7	426	1012.512646375906	0
7	438	1038.37111930574	0
7	476	1124.687148995609	0
7	483	1136.310648626133	2.165920874083
7	486	1148.131585165124	12.116908660356
7	489	1163.10313429164	12.407047216394
7	494	1166.895886459264	2.900744470972
7	497	1179.152015303327	14.317307882864
7	498	1180.804431823321	5.622396328858
7	514	1230.359838712003	0
7	529	1257.761287405401	0
7	535	1277.139323562446	0
7	556	1305.489556262951	20.912794802683
7	557	1306.584921142533	16.038102545708
7	566	1329.154083265036	38.527826503333
7	567	1335.574139696859	39.603644817139
7	572	1347.507423675709	43.526842792116
7	575	1347.834780011086	38.371063867512
7	580	1368.833624828298	21.319552181525
7	587	1388.786029090884	0
7	591	1400.099639158162	0
7	608	1448.468959825449	0
7	637	1540.065042446857	0
7	652	1583.325883925548	0
7	657	1588.319098250521	2.043928223069
7	663	1613.626189748491	0
7	666	1621.835443834908	7.568687485248
7	671	1628.988584949879	0
7	676	1638.469326675055	5.42681428034
7	684	1654.225093828105	0
7	688	1663.525897776844	0
7	718	1734.077240528806	0
7	731	1749.437982594428	0
7	747	1799.40592340194	0
7	759	1818.494866855502	0
7	771	1844.445977291195	0
7	776	1857.169951238713	0
7	779	1865.263090597383	0
7	783	1870.89228262137	0
7	786	1874.92533651652	0.758813506561
7	789	1878.533448601449	2.563917147518
7	794	1894.574768464284	0
7	819	1956.269871227903	0
7	824	1964.214023531632	5.579471558646
7	833	1985.235954955451	1.867545707611
7	838	2008.698798874346	0
7	854	2040.337147864579	0
7	866	2060.761979702989	0
7	871	2072.43993907191	0
7	890	2125.454313612626	0
7	906	2161.780818154514	0
7	913	2167.531265933456	2.958812793423
7	914	2172.375626664718	7.025654644268
7	919	2184.469118021856	0
7	929	2206.677665640295	0
7	935	2213.274337973245	0
7	938	2217.002569442759	0
7	941	2221.137838314775	0
7	960	2272.148163070228	0
7	965	2277.638493766218	1.831610573349
7	968	2280.659867074338	0
7	972	2285.193654503639	0
7	975	2296.706842502531	0
7	986	2311.125341577691	11.220829912522
7	991	2313.991493260448	6.045244104987
7	1003	2328.895385620355	0
7	1008	2340.883159541109	1.466349500424
7	1011	2342.948918818942	3.523010807621
7	1012	2343.251507851845	0.728161523452
7	1020	2367.255355255618	0
7	1045	2436.401942894968	0
7	1054	2455.75371522284	0
8	139	363.428380091388	14
8	148	382.075944824799	15
8	151	385.966253748444	16
8	169	454.616254440765	17
8	170	456.222890461734	18
8	195	524.449457429552	19
8	198	532.841469300075	20
8	203	546.349781612749	21
8	219	614.452586666556	22
8	224	620.272246126578	23
8	229	625.108927700392	24
8	251	664.472898186955	25
8	252	670.48488248371	26
8	261	685.645408837783	27
8	276	723.893358939347	28
8	279	745.345131324382	29
8	283	754.350334596412	30
8	308	799.965194416893	31
8	320	830.764854643187	32
8	342	863.207518604803	33
8	345	868.178796501263	34
8	354	879.107903420171	35
8	355	889.791961338903	36
8	368	902.326630756692	37
8	375	909.246240747242	38
8	388	933.959604348933	39
8	393	952.187309650594	40
8	398	958.417038436586	41
8	424	1012.110186622474	42
8	429	1019.365570128123	43
8	441	1046.740395178333	44
8	483	1136.310648626133	45
8	486	1148.131585165124	46
8	489	1163.10313429164	47
8	494	1166.895886459264	48
8	497	1179.152015303327	49
8	498	1180.804431823321	50
8	499	1183.105476785641	51
8	515	1231.519364449137	52
8	532	1264.242982894153	53
8	556	1305.489556262951	54
8	557	1306.584921142533	55
8	566	1329.154083265036	56
8	567	1335.574139696859	57
8	572	1347.507423675709	58
8	575	1347.834780011086	59
8	580	1368.833624828298	60
8	581	1381.443638494297	61
8	588	1390.829515230374	62
8	592	1402.62842829961	63
8	611	1460.406884764992	64
8	640	1562.082082011916	65
8	657	1588.319098250521	66
8	660	1601.432410430449	67
8	666	1621.835443834908	68
8	667	1622.159198158331	69
8	676	1638.469326675055	70
8	679	1642.232974831728	71
8	685	1656.155542868696	72
8	691	1666.256571207715	73
8	723	1744.355157219575	74
8	734	1760.382610819985	75
8	752	1802.524858744557	76
8	760	1819.104300114631	77
8	772	1845.245583666735	78
8	777	1862.365971728918	79
8	780	1865.73754649701	80
8	786	1874.92533651652	81
8	789	1878.533448601449	82
8	792	1887.989499628837	83
8	799	1903.500296281035	84
8	824	1964.214023531632	85
8	833	1985.235954955451	86
8	834	1988.308839403281	87
8	839	2013.564955245262	88
8	859	2043.499520512042	89
8	869	2069.59158058318	90
8	872	2074.5930536897	91
8	891	2137.520859073966	92
8	913	2167.531265933456	93
8	914	2172.375626664718	94
8	917	2179.842348373591	95
8	920	2189.25033397384	96
8	930	2208.435357429784	97
8	936	2216.860503891997	98
8	939	2217.981824189026	99
8	950	2247.934312722687	100
8	965	2277.638493766218	101
8	966	2280.319126918691	102
8	969	2281.51589133903	103
8	973	2291.281619938159	104
8	986	2311.125341577691	105
8	991	2313.991493260448	106
8	992	2314.732702937323	107
8	1008	2340.883159541109	108
8	1011	2342.948918818942	109
8	1012	2343.251507851845	110
8	1015	2353.931797167166	111
8	1021	2371.112041600272	112
8	1050	2442.04882252828	113
8	1055	2456.144012263149	114
9	139	363.428380091388	2.406554542224
9	148	382.075944824799	4.085279004227
9	151	385.966253748444	7.71233831715
9	169	454.616254440765	32.606611579846
9	170	456.222890461734	15.715122308591
9	195	524.449457429552	0.709943500932
9	198	532.841469300075	2.286337440509
9	203	546.349781612749	0.976656527764
9	219	614.452586666556	25.096497232296
9	224	620.272246126578	9.981031486955
9	229	625.108927700392	9.308019272939
9	251	664.472898186955	11.810763185844
9	252	670.48488248371	7.487207206969
9	261	685.645408837783	3.657186754769
9	276	723.893358939347	1.283647822131
9	279	745.345131324382	2.976142106623
9	283	754.350334596412	3.238405830081
9	308	799.965194416893	0.332334407741
9	320	830.764854643187	15.911360932506
9	342	863.207518604803	3.100154506988
9	345	868.178796501263	4.79735022641
9	354	879.107903420171	5.875739452796
9	355	889.791961338903	14.650147347499
9	368	902.326630756692	6.036221132062
9	375	909.246240747242	8.469047471043
9	388	933.959604348933	9.469268594808
9	393	952.187309650594	7.75121735167
9	398	958.417038436586	6.937742309576
9	424	1012.110186622474	0.338198202104
9	429	1019.365570128123	6.852923752217
9	441	1046.740395178333	8.369275872593
9	483	1136.310648626133	11.623499630524
9	486	1148.131585165124	13.986857413074
9	489	1163.10313429164	27.088457786872
9	494	1166.895886459264	16.199799384018
9	497	1179.152015303327	15.156873315035
9	498	1180.804431823321	15.969724402858
9	499	1183.105476785641	7.923441291178
9	515	1231.519364449137	1.159525737134
9	532	1264.242982894153	6.481695488752
9	556	1305.489556262951	28.350232700505
9	557	1306.584921142533	22.008159682265
9	566	1329.154083265036	38.607264668211
9	567	1335.574139696859	44.947882935156
9	572	1347.507423675709	51.536928795989
9	575	1347.834780011086	43.854199127493
9	580	1368.833624828298	59.369908684724
9	581	1381.443638494297	33.929565847524
9	588	1390.829515230374	2.04348613949
9	592	1402.62842829961	2.528789141448
9	611	1460.406884764992	11.937924939543
9	640	1562.082082011916	22.017039565059
9	657	1588.319098250521	4.993214324973
9	660	1601.432410430449	15.157240402997
9	666	1621.835443834908	8.209254086417
9	667	1622.159198158331	7.892441808671
9	676	1638.469326675055	9.480741725176
9	679	1642.232974831728	9.190462437013
9	685	1656.155542868696	1.930449040591
9	691	1666.256571207715	2.730673430871
9	723	1744.355157219575	10.277916690769
9	734	1760.382610819985	10.944628225557
9	752	1802.524858744557	3.118935342617
9	760	1819.104300114631	0.609433259129
9	772	1845.245583666735	0.79960637554
9	777	1862.365971728918	5.196020490205
9	780	1865.73754649701	0.474455899627
9	786	1874.92533651652	4.03305389515
9	789	1878.533448601449	4.36692559149
9	792	1887.989499628837	12.019968174906
9	799	1903.500296281035	8.925527816751
9	824	1964.214023531632	7.944152303729
9	833	1985.235954955451	26.601402982465
9	834	1988.308839403281	4.940430155441
9	839	2013.564955245262	4.866156370916
9	859	2043.499520512042	3.162372647463
9	869	2069.59158058318	8.829600880191
9	872	2074.5930536897	2.15311461779
9	891	2137.520859073966	12.06654546134
9	913	2167.531265933456	5.750447778942
9	914	2172.375626664718	7.803173524685
9	917	2179.842348373591	14.492376353141
9	920	2189.25033397384	4.781215951984
9	930	2208.435357429784	1.757691789489
9	936	2216.860503891997	3.586165918752
9	939	2217.981824189026	0.979254746267
9	950	2247.934312722687	26.796474407912
9	965	2277.638493766218	5.49033069599
9	966	2280.319126918691	4.512243725822
9	969	2281.51589133903	0.856024264692
9	973	2291.281619938159	6.08796543452
9	986	2311.125341577691	14.41849907516
9	991	2313.991493260448	14.086981595279
9	992	2314.732702937323	6.786453781862
9	1008	2340.883159541109	11.987773920754
9	1011	2342.948918818942	3.532108778257
9	1012	2343.251507851845	3.825599840524
9	1015	2353.931797167166	11.408450838773
9	1021	2371.112041600272	3.856686344654
9	1050	2442.04882252828	5.646879633312
9	1055	2456.144012263149	0.390297040309
10	147	379.608095313354	10
10	150	385.157042033546	11
10	154	399.228233649482	11
10	162	426.29441775287	8
10	166	443.660282730514	9
10	168	448.882770349587	10
10	173	458.137377426833	10
10	175	465.826518938555	11
10	185	494.833255579592	4
10	187	499.822669747212	5
10	200	545.209727119979	1
10	206	556.326563719439	1
10	209	572.24175660314	1
10	212	575.863779244195	1
10	214	577.881832968284	2
10	223	618.606462312563	3
10	226	621.290089637664	4
10	228	624.589581645086	5
10	231	627.159808616859	6
10	233	636.156734196456	7
10	237	638.695588633048	6
10	240	639.503912377234	6
10	242	641.651605112762	7
10	244	648.446565023337	8
10	248	656.54974981075	9
10	255	679.39638457525	9
10	260	682.973119520857	9
10	264	694.937514966378	9
10	268	709.632194269071	8
10	270	711.758812941697	9
10	272	714.745063282436	10
10	287	780.526003935068	7
10	289	782.044152913347	8
10	291	785.118702325468	9
10	294	786.82893246052	9
10	297	792.211735403243	9
10	301	794.650893746256	8
10	303	796.164645718989	9
10	305	797.919207288304	10
10	310	800.659176556938	11
10	312	802.145561068497	12
10	316	811.00518497882	11
10	322	837.601350145641	11
10	329	842.808892412795	7
10	333	850.859225738186	6
10	335	852.072682488855	7
10	338	856.159958446072	7
10	353	877.773073587536	5
10	358	893.64717916577	5
10	363	896.443773630609	5
10	365	899.605850019362	6
10	370	906.490154822813	7
10	372	908.845874933179	8
10	374	909.068777480588	9
10	379	910.906698195825	8
10	381	913.501120803603	9
10	385	923.456570972861	8
10	395	953.896826670245	9
10	397	955.784633106749	10
10	400	959.402928374506	11
10	402	967.655498130466	12
10	406	977.727526974586	11
10	411	986.483345419537	9
10	415	992.65484243738	8
10	418	1000.462186581842	8
10	420	1006.176726943197	9
10	428	1017.427407056631	9
10	431	1023.333185885289	10
10	434	1035.575057615901	10
10	436	1036.397542892707	11
10	440	1042.071307097477	12
10	444	1053.311955600887	12
10	448	1068.628170045546	11
10	450	1068.7372523909	12
10	453	1076.558449330755	12
10	456	1085.269920578633	12
10	459	1090.503816550838	12
10	464	1108.756096424927	10
10	466	1109.014040151767	11
10	468	1111.825117276107	12
10	471	1117.188075728243	12
10	473	1118.573341036805	13
10	478	1130.12602680693	13
10	485	1145.944497366466	14
10	503	1191.074306916834	13
10	509	1224.317871195993	10
10	518	1239.415299962359	7
10	521	1241.319226478284	7
10	523	1246.698348383056	8
10	526	1249.075240055608	8
10	531	1262.228682128353	8
10	537	1281.456586332296	8
10	541	1285.868618464094	9
10	543	1287.995910071284	10
10	545	1290.105014442061	11
10	553	1297.064115025479	12
10	559	1309.251003332188	13
10	563	1322.970381474386	14
10	565	1327.054292896169	15
10	569	1337.426373481282	16
10	571	1339.570652825673	17
10	577	1353.57388117284	18
10	579	1354.516585092584	19
10	596	1421.845319537203	13
10	598	1433.077455864582	14
10	601	1434.570566934513	14
10	603	1436.700873309931	15
10	606	1444.299171092421	15
10	610	1451.583659890725	16
10	613	1462.140670769399	17
10	619	1486.551119297569	14
10	623	1496.223907441521	13
10	630	1523.68482419876	9
10	635	1535.830083928314	7
10	639	1552.15528015073	8
10	642	1569.113611818043	9
10	647	1574.59712260323	7
10	649	1577.783622414697	8
10	656	1588.000980001104	8
10	659	1592.596152355802	9
10	675	1636.55918818209	7
10	678	1640.641096239258	8
10	681	1650.918419052956	9
10	690	1663.785704815084	8
10	693	1667.004304150596	9
10	696	1674.644996918479	9
10	698	1675.406868188611	10
10	700	1683.621375205935	11
10	703	1691.870758945599	11
10	711	1720.321633944097	6
10	714	1728.242047121611	6
10	716	1733.304477625183	7
10	720	1736.123190533158	8
10	722	1736.909763431248	9
10	725	1745.044126709653	10
10	727	1748.564229081137	11
10	729	1749.269661046032	12
10	733	1753.344411509976	13
10	736	1768.415993221564	14
10	742	1784.209010264732	11
10	749	1800.178677377241	9
10	751	1800.95833616599	10
10	754	1802.963572909128	11
10	756	1808.674857293738	12
10	764	1823.070351810148	10
10	766	1823.916015992079	11
10	769	1834.242923632817	11
10	791	1884.674211425783	9
10	796	1897.934943306775	10
10	798	1899.021409378431	11
10	801	1908.271706007079	12
10	804	1911.895429355032	12
10	806	1914.724388814061	13
10	809	1919.490991222787	13
10	811	1923.241762418407	14
10	816	1936.92438258832	12
10	823	1961.501522926047	12
10	826	1965.216661545734	13
10	828	1976.143259682891	14
10	830	1977.106085114153	15
10	836	2002.049166686635	16
10	842	2014.824804974099	16
10	847	2026.435831902888	14
10	849	2026.746619278247	15
10	852	2034.2767880203	15
10	856	2040.832134308452	16
10	858	2041.731501973777	17
10	861	2044.394175563752	18
10	864	2057.540071414153	18
10	868	2064.678649429053	19
10	878	2100.643440090761	16
10	880	2109.735389103771	17
10	883	2114.55518655679	17
10	886	2119.70008837266	17
10	895	2141.252353958549	14
10	899	2145.214967111336	13
10	902	2156.225819555676	13
10	908	2162.801836191714	12
10	916	2176.399567796595	13
10	927	2206.400218154673	9
10	933	2212.910426022293	9
10	943	2223.822523938987	10
10	945	2229.518382743654	11
10	947	2237.356526885323	12
10	949	2242.16939733723	13
10	953	2249.811830180648	13
10	955	2260.677147560681	14
10	964	2276.381357349022	12
10	977	2299.593657816942	12
10	981	2305.917559909468	13
10	985	2308.049972561187	14
10	988	2311.300208667409	15
10	990	2311.517313327987	16
10	995	2317.103988873237	16
10	998	2321.252529477898	16
10	1000	2324.894460081239	17
10	1014	2345.158710441866	17
10	1030	2393.48451685585	8
10	1032	2409.027012630994	9
10	1034	2414.534346640401	10
10	1037	2418.902692042539	10
10	1039	2419.493416931437	11
10	1043	2432.165685310105	10
10	1047	2437.386547876681	11
10	1049	2439.315187646736	12
10	1057	2461.210077954654	11
10	1059	2463.600744450632	12
10	1061	2464.886615128397	13
11	1068	2500	0.0948
12	1068	2500	0.0456

