file 56608 1678560235                                           
version 2
run experiments_hard_game_mode1-1266-20230311-19:43:55-11379
attr configname experiments_hard_game_mode1
attr datetime 20230311-19:43:55
attr experiment experiments_hard_game_mode1
attr inifile omnetpp.ini
attr iterationvars "$0=9.5, $1=4, $2=0"
attr iterationvarsf 9.5,4,0-
attr measurement "$0=9.5, $1=4, $2=0"
attr network Network
attr processid 11379
attr repetition 6
attr replication #6
attr resultdir results
attr runnumber 1266
attr seedset 6
param *.boss.arrival_mean 20
param *.boss.service_mean 9.5
param *.minion.arrival_mean 10
param *.minion.service_mean 4
param *.player.recover_rate_x 0
param **.minion.arrival_distribution 0
param **.minion.service_distribution 0
param **.boss.arrival_distribution 0
param **.boss.service_distribution 0

vector 0 Network.player boss_jobs_number_stat:vector ETV
attr source signal_boss_jobs_number
vector 1 Network.player boss_jobs_queue_number_stat:vector ETV
attr source signal_boss_jobs_queue_number
vector 2 Network.player minion_jobs_number_stat:vector ETV
attr source signal_minion_jobs_number
vector 3 Network.player minion_jobs_queue_number_stat:vector ETV
attr source signal_minion_jobs_queue_number
vector 4 Network.player boss_defeated_stat:vector ETV
attr source signal_boss_defeated
vector 5 Network.player boss_response_time_stat:vector ETV
attr source signal_boss_response_time
vector 6 Network.player boss_waiting_time_stat:vector ETV
attr source signal_boss_waiting_time
vector 7 Network.player minion_waiting_time_stat:vector ETV
attr source signal_minion_waiting_time
vector 8 Network.player minion_defeated_stat:vector ETV
attr source signal_minion_defeated
vector 9 Network.player minion_response_time_stat:vector ETV
attr source signal_minion_response_time
vector 10 Network.player minion_recovered_stat:vector ETV
attr source signal_minion_recovered
vector 11 Network.player minion_throughput:vector ETV
attr source signal_minion_throughput
vector 12 Network.player boss_throughput:vector ETV
attr source signal_boss_throughput
0	2012 2407 124 999 350.911095348185 2499.404620087199 94 1 4 153 319
1	4419 4818 124 999 350.911095348185 2499.404620087199 188 0 3 118 214
2	9237 5057 126 987 351.627033189598 2473.954007465772 196 1 17 906 7626
3	14294 10266 126 987 351.627033189598 2473.954007465772 399 0 16 1476 12496
4	24560 2520 129 997 358.130258986893 2495.939260620257 94 21 114 6345 497495
5	27080 3670 129 997 358.130258986893 2495.939260620257 94 0.005164081038 50.693079878414 1376.2681849003 34235.567855325
6	30750 2933 129 999 358.130258986893 2499.404620087199 94 0 38.043078401881 496.31472540286 10165.079935864
7	33683 8586 130 997 362.201196887355 2495.939260620257 234 0 136.49758849193 6970.7438378841 490586.62192073
8	42269 5511 131 983 364.50344333464 2472.650653197743 203 13 215 23142 3335290
9	47780 7935 131 983 364.50344333464 2472.650653197743 203 0.137052526097 141.06119573121 6746.8349854763 475409.15851677
10	55715 853 135 999 366.390704133182 2499.404620087199 31 6 36 651 16151
11	56568 19 1000 1000 2500 2500 1 0.086 0.086 0.086 0.007396
12	56587 20 1000 1000 2500 2500 1 0.0456 0.0456 0.0456 0.00207936

