file 70791 1678560162                                           
version 2
run experiments_hard_game_mode1-946-20230311-19:42:42-9582
attr configname experiments_hard_game_mode1
attr datetime 20230311-19:42:42
attr experiment experiments_hard_game_mode1
attr inifile omnetpp.ini
attr iterationvars "$0=9, $1=3, $2=100"
attr iterationvarsf 9,3,100-
attr measurement "$0=9, $1=3, $2=100"
attr network Network
attr processid 9582
attr repetition 16
attr replication #16
attr resultdir results
attr runnumber 946
attr seedset 16
param *.boss.arrival_mean 20
param *.boss.service_mean 9
param *.minion.arrival_mean 10
param *.minion.service_mean 3
param *.player.recover_rate_x 100
param **.minion.arrival_distribution 0
param **.minion.service_distribution 0
param **.boss.arrival_distribution 0
param **.boss.service_distribution 0

vector 0 Network.player boss_defeated_stat:vector ETV
attr source signal_boss_defeated
vector 1 Network.player boss_jobs_queue_number_stat:vector ETV
attr source signal_boss_jobs_queue_number
vector 2 Network.player boss_response_time_stat:vector ETV
attr source signal_boss_response_time
vector 3 Network.player boss_waiting_time_stat:vector ETV
attr source signal_boss_waiting_time
vector 4 Network.player minion_jobs_number_stat:vector ETV
attr source signal_minion_jobs_number
vector 5 Network.player minion_jobs_queue_number_stat:vector ETV
attr source signal_minion_jobs_queue_number
vector 6 Network.player boss_jobs_number_stat:vector ETV
attr source signal_boss_jobs_number
vector 7 Network.player minion_waiting_time_stat:vector ETV
attr source signal_minion_waiting_time
vector 8 Network.player minion_defeated_stat:vector ETV
attr source signal_minion_defeated
vector 9 Network.player minion_response_time_stat:vector ETV
attr source signal_minion_response_time
vector 10 Network.player minion_recovered_stat:vector ETV
attr source signal_minion_recovered
vector 11 Network.player minion_throughput:vector ETV
attr source signal_minion_throughput
vector 12 Network.player boss_throughput:vector ETV
attr source signal_boss_throughput
0	2011 3658 151 1225 356.219262426609 2462.096906251709 135 20 154 11745 1226835
1	5669 6854 151 1225 356.219262426609 2462.096906251709 267 0 6 431 1421
2	12523 5304 151 1225 356.219262426609 2462.096906251709 135 0.076027371404 85.181471969373 3139.9579383089 121963.42940343
3	17827 4619 151 1224 356.219262426609 2458.382625969776 134 0 72.663354053467 1882.0711523733 63984.027480599
4	22446 5990 153 1238 368.8046549948 2480.211963592418 228 1 32 2175 33949
5	28436 12139 153 1239 368.8046549948 2492.477437189532 462 0 31 3909 59709
6	40575 3386 157 1224 369.138949755894 2458.382625969776 132 1 7 346 1268
7	43961 10226 160 1238 381.637420296903 2480.211963592418 264 0 334.33365211869 15984.170569528 2139503.4649675
8	54187 6460 161 1239 384.110348564257 2492.477437189532 234 26 259 33345 5819385
9	60647 9272 161 1239 384.110348564257 2492.477437189532 234 0.183094482776 335.9205727995 15061.604384665 2037076.7858259
10	69919 831 165 1224 385.453117749827 2458.382625969776 30 4 33 555 12515
11	70750 20 1240 1240 2500 2500 1 0.1036 0.1036 0.1036 0.01073296
12	70770 20 1240 1240 2500 2500 1 0.0616 0.0616 0.0616 0.00379456

