version 2
run experiments_hard_game_mode1-973-20230311-19:42:48-9717
attr configname experiments_hard_game_mode1
attr datetime 20230311-19:42:48
attr experiment experiments_hard_game_mode1
attr inifile omnetpp.ini
attr iterationvars "$0=9, $1=4, $2=0"
attr iterationvarsf 9,4,0-
attr measurement "$0=9, $1=4, $2=0"
attr network Network
attr processid 9717
attr repetition 13
attr replication #13
attr resultdir results
attr runnumber 973
attr seedset 13
param *.boss.arrival_mean 20
param *.boss.service_mean 9
param *.minion.arrival_mean 10
param *.minion.service_mean 4
param *.player.recover_rate_x 0
param **.minion.arrival_distribution 0
param **.minion.service_distribution 0
param **.boss.arrival_distribution 0
param **.boss.service_distribution 0

vector 0 Network.player boss_jobs_number_stat:vector ETV
attr source signal_boss_jobs_number
vector 1 Network.player boss_jobs_queue_number_stat:vector ETV
attr source signal_boss_jobs_queue_number
vector 2 Network.player boss_defeated_stat:vector ETV
attr source signal_boss_defeated
vector 3 Network.player boss_response_time_stat:vector ETV
attr source signal_boss_response_time
vector 4 Network.player boss_waiting_time_stat:vector ETV
attr source signal_boss_waiting_time
vector 5 Network.player minion_jobs_number_stat:vector ETV
attr source signal_minion_jobs_number
vector 6 Network.player minion_jobs_queue_number_stat:vector ETV
attr source signal_minion_jobs_queue_number
vector 7 Network.player minion_waiting_time_stat:vector ETV
attr source signal_minion_waiting_time
vector 8 Network.player minion_defeated_stat:vector ETV
attr source signal_minion_defeated
vector 9 Network.player minion_response_time_stat:vector ETV
attr source signal_minion_response_time
vector 10 Network.player minion_recovered_stat:vector ETV
attr source signal_minion_recovered
vector 11 Network.player minion_throughput:vector ETV
attr source signal_minion_throughput
vector 12 Network.player boss_throughput:vector ETV
attr source signal_boss_throughput
0	159	350.881313172297	3
0	166	360.818519535049	3
0	168	361.531643308555	4
0	175	371.908598985871	2
0	178	376.931018151467	2
0	180	381.136330067117	3
0	210	429.073456309595	1
0	224	458.216863057689	1
0	232	485.039383383465	1
0	244	504.219337313665	1
0	248	513.42129579689	2
0	262	565.569280449517	1
0	278	626.472031129181	1
0	281	634.336558468053	1
0	285	638.192742303279	2
0	287	644.030677267764	3
0	289	644.144963208146	4
0	295	669.619848426002	5
0	304	693.409668976404	3
0	346	809.310921917985	1
0	356	827.380958355965	2
0	359	834.74067954906	2
0	371	858.166594785723	1
0	374	861.941115502046	1
0	382	883.655885421752	1
0	384	887.512647225875	2
0	397	903.905552536614	1
0	400	907.483937674146	1
0	434	990.413455002523	1
0	439	1008.003682923438	1
0	446	1020.417949707382	1
0	452	1033.249379298814	1
0	461	1053.470206707816	1
0	469	1065.821984533476	1
0	475	1072.614960455695	2
0	477	1077.976575989947	3
0	495	1104.858659015191	1
0	512	1143.647684051215	1
0	520	1159.235141044981	2
0	527	1171.966462265233	2
0	534	1196.686858693904	2
0	537	1197.809451509109	2
0	539	1201.314877016841	3
0	572	1301.300109462689	1
0	577	1316.697341954421	1
0	579	1321.049430127316	2
0	582	1327.240078304281	2
0	593	1352.172457290686	1
0	619	1419.760823824721	1
0	632	1453.65964639195	1
0	667	1539.073766767534	1
0	672	1551.811268998897	1
0	680	1574.680051997075	1
0	683	1580.731531549448	1
0	685	1583.786751798574	2
0	691	1595.405242588751	3
0	702	1614.424317239799	1
0	705	1619.123148538388	1
0	712	1628.846044176192	1
0	722	1641.653488925519	1
0	724	1646.228649184495	2
0	726	1651.491893488932	3
0	730	1656.443885829001	4
0	732	1659.95899571819	5
0	739	1686.518869704216	3
0	742	1691.412908866778	3
0	754	1722.827600274038	2
0	757	1726.331710433346	2
0	772	1767.39258822199	1
0	797	1826.132510283332	1
0	802	1837.232700665273	1
0	814	1856.676250964027	1
0	816	1857.37999332076	2
0	824	1883.476859197256	1
0	826	1885.403139532809	2
0	841	1927.167334289672	1
0	843	1928.858537845573	2
0	854	1985.692923559129	1
0	877	2035.12845233487	1
0	881	2037.706644485021	2
0	884	2043.472956852933	2
0	895	2086.337690370672	1
0	898	2097.545413534898	1
0	900	2099.566104157284	2
0	908	2115.320149594233	1
0	919	2145.854161296251	1
0	927	2165.681529415681	1
0	934	2187.109250616897	1
0	973	2221.454825515369	1
0	999	2264.236815591852	1
0	1004	2271.874558676346	1
0	1012	2293.078236472355	1
0	1036	2336.495621840945	1
0	1040	2337.348088405461	2
0	1049	2352.254707627457	2
0	1061	2372.17973835098	1
0	1076	2414.535637886846	1
0	1090	2439.36645112858	1
0	1092	2440.572633583659	2
0	1107	2452.701691149425	1
0	1109	2455.773500652442	2
0	1112	2478.047714483756	2
0	1118	2490.461691942782	3
1	159	350.881313172297	2
1	160	352.246048555472	2
1	166	360.818519535049	2
1	168	361.531643308555	3
1	171	365.362684148414	3
1	172	368.699864141337	2
1	173	369.175049109574	1
1	175	371.908598985871	1
1	176	374.726865970051	1
1	178	376.931018151467	1
1	180	381.136330067117	2
1	185	388.180467165843	2
1	188	392.611638046143	1
1	189	392.694266734411	0
1	210	429.073456309595	0
1	211	430.166503084047	0
1	224	458.216863057689	0
1	225	466.885231659402	0
1	232	485.039383383465	0
1	233	485.625554847754	0
1	244	504.219337313665	0
1	248	513.42129579689	1
1	249	519.588219963005	1
1	250	526.432421894442	0
1	262	565.569280449517	0
1	267	586.166153144398	0
1	278	626.472031129181	0
1	279	627.953956648814	0
1	281	634.336558468053	0
1	285	638.192742303279	1
1	287	644.030677267764	2
1	289	644.144963208146	3
1	295	669.619848426002	4
1	298	672.508543746062	4
1	299	674.445851865729	3
1	300	680.625774984951	2
1	304	693.409668976404	2
1	307	700.091021663078	2
1	312	704.000233518672	1
1	315	716.415993297656	0
1	346	809.310921917985	0
1	356	827.380958355965	1
1	357	827.473330317731	1
1	359	834.74067954906	1
1	368	852.934665284325	1
1	369	857.485443280514	0
1	371	858.166594785723	0
1	372	860.126847486084	0
1	374	861.941115502046	0
1	377	871.227874790176	0
1	382	883.655885421752	0
1	384	887.512647225875	1
1	385	891.2243341247	1
1	386	891.410322552745	0
1	397	903.905552536614	0
1	398	906.178219154836	0
1	400	907.483937674146	0
1	403	922.34024078722	0
1	434	990.413455002523	0
1	435	994.891018517993	0
1	439	1008.003682923438	0
1	440	1013.056649565183	0
1	446	1020.417949707382	0
1	447	1023.830723537625	0
1	452	1033.249379298814	0
1	455	1040.608523135645	0
1	461	1053.470206707816	0
1	462	1055.853706876096	0
1	469	1065.821984533476	0
1	475	1072.614960455695	1
1	477	1077.976575989947	2
1	478	1079.412851067898	2
1	479	1081.685246560811	1
1	480	1086.321116023532	0
1	495	1104.858659015191	0
1	496	1111.340251600974	0
1	512	1143.647684051215	0
1	520	1159.235141044981	1
1	523	1165.12088721322	1
1	527	1171.966462265233	1
1	528	1187.580353699627	1
1	534	1196.686858693904	1
1	535	1197.02797146069	1
1	537	1197.809451509109	1
1	539	1201.314877016841	2
1	540	1202.501701113855	2
1	541	1214.19523146009	1
1	548	1244.540157615802	0
1	572	1301.300109462689	0
1	575	1314.909319388122	0
1	577	1316.697341954421	0
1	579	1321.049430127316	1
1	580	1325.502637063554	1
1	582	1327.240078304281	1
1	583	1329.389761376862	1
1	584	1331.11320819197	0
1	593	1352.172457290686	0
1	594	1352.351158988054	0
1	619	1419.760823824721	0
1	622	1435.994391454408	0
1	632	1453.65964639195	0
1	633	1457.655982992488	0
1	667	1539.073766767534	0
1	670	1546.404974774824	0
1	672	1551.811268998897	0
1	673	1555.062909444795	0
1	680	1574.680051997075	0
1	681	1576.161932834531	0
1	683	1580.731531549448	0
1	685	1583.786751798574	1
1	691	1595.405242588751	2
1	692	1603.358177625476	2
1	695	1609.27343040686	1
1	698	1611.903424841835	0
1	702	1614.424317239799	0
1	703	1616.621080363618	0
1	705	1619.123148538388	0
1	706	1621.606765494683	0
1	712	1628.846044176192	0
1	715	1634.909895926385	0
1	722	1641.653488925519	0
1	724	1646.228649184495	1
1	726	1651.491893488932	2
1	730	1656.443885829001	3
1	732	1659.95899571819	4
1	735	1663.317317284245	4
1	736	1669.246943559382	3
1	737	1682.744746134919	2
1	739	1686.518869704216	2
1	740	1687.591026555515	2
1	742	1691.412908866778	2
1	743	1692.646400933285	2
1	744	1700.43100424618	1
1	754	1722.827600274038	1
1	755	1723.366265428204	1
1	757	1726.331710433346	1
1	760	1729.797743316679	1
1	763	1740.867504832456	0
1	772	1767.39258822199	0
1	787	1804.689464855249	0
1	797	1826.132510283332	0
1	798	1826.802786228659	0
1	802	1837.232700665273	0
1	809	1853.061284716286	0
1	814	1856.676250964027	0
1	816	1857.37999332076	1
1	819	1860.174799551612	1
1	820	1877.901293526416	0
1	824	1883.476859197256	0
1	826	1885.403139532809	1
1	829	1900.262775603827	1
1	830	1907.668191937458	0
1	841	1927.167334289672	0
1	843	1928.858537845573	1
1	844	1936.255158333538	1
1	845	1939.931755832621	0
1	854	1985.692923559129	0
1	857	1994.292515348977	0
1	877	2035.12845233487	0
1	881	2037.706644485021	1
1	882	2037.942191742119	1
1	884	2043.472956852933	1
1	885	2052.809280660382	1
1	886	2059.165618222906	0
1	895	2086.337690370672	0
1	896	2095.443941546829	0
1	898	2097.545413534898	0
1	900	2099.566104157284	1
1	901	2101.142829672115	1
1	902	2103.943475110748	0
1	908	2115.320149594233	0
1	909	2116.485581932849	0
1	919	2145.854161296251	0
1	920	2150.237478146471	0
1	927	2165.681529415681	0
1	932	2177.999253864306	0
1	934	2187.109250616897	0
1	937	2190.916750594552	0
1	973	2221.454825515369	0
1	974	2232.517341266445	0
1	999	2264.236815591852	0
1	1000	2266.248817957021	0
1	1004	2271.874558676346	0
1	1005	2279.770465449796	0
1	1012	2293.078236472355	0
1	1013	2295.791002894586	0
1	1036	2336.495621840945	0
1	1040	2337.348088405461	1
1	1047	2351.203653971712	1
1	1049	2352.254707627457	1
1	1050	2361.255640239327	1
1	1051	2363.089451169047	0
1	1061	2372.17973835098	0
1	1064	2389.156295562407	0
1	1076	2414.535637886846	0
1	1081	2416.907004066193	0
1	1090	2439.36645112858	0
1	1092	2440.572633583659	1
1	1093	2441.406016853646	1
1	1094	2441.614931881616	0
1	1107	2452.701691149425	0
1	1109	2455.773500652442	1
1	1110	2465.97324143439	1
1	1112	2478.047714483756	1
1	1118	2490.461691942782	2
1	1121	2494.524057178324	2
2	160	352.246048555472	18
2	171	365.362684148414	19
2	172	368.699864141337	20
2	173	369.175049109574	21
2	176	374.726865970051	22
2	185	388.180467165843	23
2	188	392.611638046143	24
2	189	392.694266734411	25
2	211	430.166503084047	26
2	225	466.885231659402	27
2	233	485.625554847754	28
2	249	519.588219963005	29
2	250	526.432421894442	30
2	267	586.166153144398	31
2	279	627.953956648814	32
2	298	672.508543746062	33
2	299	674.445851865729	34
2	300	680.625774984951	35
2	307	700.091021663078	36
2	312	704.000233518672	37
2	315	716.415993297656	38
2	357	827.473330317731	39
2	368	852.934665284325	40
2	369	857.485443280514	41
2	372	860.126847486084	42
2	377	871.227874790176	43
2	385	891.2243341247	44
2	386	891.410322552745	45
2	398	906.178219154836	46
2	403	922.34024078722	47
2	435	994.891018517993	48
2	440	1013.056649565183	49
2	447	1023.830723537625	50
2	455	1040.608523135645	51
2	462	1055.853706876096	52
2	478	1079.412851067898	53
2	479	1081.685246560811	54
2	480	1086.321116023532	55
2	496	1111.340251600974	56
2	523	1165.12088721322	57
2	528	1187.580353699627	58
2	535	1197.02797146069	59
2	540	1202.501701113855	60
2	541	1214.19523146009	61
2	548	1244.540157615802	62
2	575	1314.909319388122	63
2	580	1325.502637063554	64
2	583	1329.389761376862	65
2	584	1331.11320819197	66
2	594	1352.351158988054	67
2	622	1435.994391454408	68
2	633	1457.655982992488	69
2	670	1546.404974774824	70
2	673	1555.062909444795	71
2	681	1576.161932834531	72
2	692	1603.358177625476	73
2	695	1609.27343040686	74
2	698	1611.903424841835	75
2	703	1616.621080363618	76
2	706	1621.606765494683	77
2	715	1634.909895926385	78
2	735	1663.317317284245	79
2	736	1669.246943559382	80
2	737	1682.744746134919	81
2	740	1687.591026555515	82
2	743	1692.646400933285	83
2	744	1700.43100424618	84
2	755	1723.366265428204	85
2	760	1729.797743316679	86
2	763	1740.867504832456	87
2	787	1804.689464855249	88
2	798	1826.802786228659	89
2	809	1853.061284716286	90
2	819	1860.174799551612	91
2	820	1877.901293526416	92
2	829	1900.262775603827	93
2	830	1907.668191937458	94
2	844	1936.255158333538	95
2	845	1939.931755832621	96
2	857	1994.292515348977	97
2	882	2037.942191742119	98
2	885	2052.809280660382	99
2	886	2059.165618222906	100
2	896	2095.443941546829	101
2	901	2101.142829672115	102
2	902	2103.943475110748	103
2	909	2116.485581932849	104
2	920	2150.237478146471	105
2	932	2177.999253864306	106
2	937	2190.916750594552	107
2	974	2232.517341266445	108
2	1000	2266.248817957021	109
2	1005	2279.770465449796	110
2	1013	2295.791002894586	111
2	1047	2351.203653971712	112
2	1050	2361.255640239327	113
2	1051	2363.089451169047	114
2	1064	2389.156295562407	115
2	1081	2416.907004066193	116
2	1093	2441.406016853646	117
2	1094	2441.614931881616	118
2	1110	2465.97324143439	119
2	1121	2494.524057178324	120
3	160	352.246048555472	10.391335878473
3	171	365.362684148414	22.905857963505
3	172	368.699864141337	17.81855096904
3	173	369.175049109574	8.356529574525
3	176	374.726865970051	13.195222661496
3	185	388.180467165843	16.271868179972
3	188	392.611638046143	15.680619894676
3	189	392.694266734411	11.557936667294
3	211	430.166503084047	1.093046774452
3	225	466.885231659402	8.668368601713
3	233	485.625554847754	0.586171464289
3	249	519.588219963005	15.36888264934
3	250	526.432421894442	13.011126097552
3	267	586.166153144398	20.596872694881
3	279	627.953956648814	1.481925519633
3	298	672.508543746062	38.171985278009
3	299	674.445851865729	36.25310956245
3	300	680.625774984951	36.595097717187
3	307	700.091021663078	55.946058454932
3	312	704.000233518672	34.38038509267
3	315	716.415993297656	23.006324321252
3	357	827.473330317731	18.162408399746
3	368	852.934665284325	25.55370692836
3	369	857.485443280514	22.744763731454
3	372	860.126847486084	1.960252700361
3	377	871.227874790176	9.28675928813
3	385	891.2243341247	7.568448702948
3	386	891.410322552745	3.89767532687
3	398	906.178219154836	2.272666618222
3	403	922.34024078722	14.856303113074
3	435	994.891018517993	4.47756351547
3	440	1013.056649565183	5.052966641745
3	447	1023.830723537625	3.412773830243
3	455	1040.608523135645	7.359143836831
3	462	1055.853706876096	2.38350016828
3	478	1079.412851067898	13.590866534422
3	479	1081.685246560811	9.070286105116
3	480	1086.321116023532	8.344540033585
3	496	1111.340251600974	6.481592585783
3	523	1165.12088721322	21.473203162005
3	528	1187.580353699627	28.345212654646
3	535	1197.02797146069	25.061509195457
3	540	1202.501701113855	5.814842419951
3	541	1214.19523146009	16.385779950981
3	548	1244.540157615802	43.225280598961
3	575	1314.909319388122	13.609209925433
3	580	1325.502637063554	8.805295109133
3	583	1329.389761376862	8.340331249546
3	584	1331.11320819197	3.873129887689
3	594	1352.351158988054	0.178701697368
3	622	1435.994391454408	16.233567629687
3	633	1457.655982992488	3.996336600538
3	670	1546.404974774824	7.33120800729
3	673	1555.062909444795	3.251640445898
3	681	1576.161932834531	1.481880837456
3	692	1603.358177625476	22.626646076028
3	695	1609.27343040686	25.486678608286
3	698	1611.903424841835	16.498182253084
3	703	1616.621080363618	2.196763123819
3	706	1621.606765494683	2.483616956295
3	715	1634.909895926385	6.063851750193
3	735	1663.317317284245	21.663828358726
3	736	1669.246943559382	23.018294374887
3	737	1682.744746134919	31.252852645987
3	740	1687.591026555515	31.147140726514
3	743	1692.646400933285	32.687405215095
3	744	1700.43100424618	13.912134541964
3	755	1723.366265428204	31.953356561426
3	760	1729.797743316679	6.970143042641
3	763	1740.867504832456	14.53579439911
3	787	1804.689464855249	37.296876633259
3	798	1826.802786228659	0.670275945327
3	809	1853.061284716286	15.828584051013
3	819	1860.174799551612	3.498548587585
3	820	1877.901293526416	20.521300205656
3	829	1900.262775603827	16.785916406571
3	830	1907.668191937458	22.265052404649
3	844	1936.255158333538	9.087824043866
3	845	1939.931755832621	11.073217987048
3	857	1994.292515348977	8.599591789848
3	882	2037.942191742119	2.813739407249
3	885	2052.809280660382	15.102636175361
3	886	2059.165618222906	15.692661369973
3	896	2095.443941546829	9.106251176157
3	901	2101.142829672115	3.597416137217
3	902	2103.943475110748	4.377370953464
3	909	2116.485581932849	1.165432338616
3	920	2150.237478146471	4.38331685022
3	932	2177.999253864306	12.317724448625
3	937	2190.916750594552	3.807499977655
3	974	2232.517341266445	11.062515751076
3	1000	2266.248817957021	2.012002365169
3	1005	2279.770465449796	7.89590677345
3	1013	2295.791002894586	2.712766422231
3	1047	2351.203653971712	14.708032130767
3	1050	2361.255640239327	23.907551833866
3	1051	2363.089451169047	10.83474354159
3	1064	2389.156295562407	16.976557211427
3	1081	2416.907004066193	2.371366179347
3	1093	2441.406016853646	2.039565725066
3	1094	2441.614931881616	1.042298297957
3	1110	2465.97324143439	13.271550284965
3	1121	2494.524057178324	38.750556525882
4	160	352.246048555472	9.789222370563
4	171	365.362684148414	14.481370976117
4	172	368.699864141337	7.881344606288
4	173	369.175049109574	7.643405801019
4	176	374.726865970051	2.81826698418
4	185	388.180467165843	11.249449014376
4	188	392.611638046143	11.475307979026
4	210	429.073456309595	0
4	224	458.216863057689	0
4	232	485.039383383465	0
4	244	504.219337313665	0
4	249	519.588219963005	6.166924166115
4	262	565.569280449517	0
4	278	626.472031129181	0
4	281	634.336558468053	0
4	298	672.508543746062	34.315801442783
4	299	674.445851865729	30.415174597965
4	300	680.625774984951	36.480811776805
4	307	700.091021663078	30.471173237076
4	312	704.000233518672	10.590564542268
4	346	809.310921917985	0
4	357	827.473330317731	0.092371961766
4	368	852.934665284325	18.193985735265
4	371	858.166594785723	0
4	374	861.941115502046	0
4	382	883.655885421752	0
4	385	891.2243341247	3.711686898825
4	397	903.905552536614	0
4	400	907.483937674146	0
4	434	990.413455002523	0
4	439	1008.003682923438	0
4	446	1020.417949707382	0
4	452	1033.249379298814	0
4	461	1053.470206707816	0
4	469	1065.821984533476	0
4	478	1079.412851067898	6.797890612203
4	479	1081.685246560811	3.708670570864
4	495	1104.858659015191	0
4	512	1143.647684051215	0
4	523	1165.12088721322	5.885746168239
4	528	1187.580353699627	15.613891434394
4	535	1197.02797146069	0.341112766786
4	540	1202.501701113855	4.692249604746
4	541	1214.19523146009	12.880354443249
4	572	1301.300109462689	0
4	577	1316.697341954421	0
4	580	1325.502637063554	4.453206936238
4	583	1329.389761376862	2.149683072581
4	593	1352.172457290686	0
4	619	1419.760823824721	0
4	632	1453.65964639195	0
4	667	1539.073766767534	0
4	672	1551.811268998897	0
4	680	1574.680051997075	0
4	683	1580.731531549448	0
4	692	1603.358177625476	19.571425826902
4	695	1609.27343040686	13.868187818109
4	702	1614.424317239799	0
4	705	1619.123148538388	0
4	712	1628.846044176192	0
4	722	1641.653488925519	0
4	735	1663.317317284245	17.08866809975
4	736	1669.246943559382	17.75505007045
4	737	1682.744746134919	26.300860305918
4	740	1687.591026555515	27.632030837325
4	743	1692.646400933285	6.127531229069
4	744	1700.43100424618	9.018095379402
4	755	1723.366265428204	0.538665154166
4	760	1729.797743316679	3.466032883333
4	772	1767.39258822199	0
4	797	1826.132510283332	0
4	802	1837.232700665273	0
4	814	1856.676250964027	0
4	819	1860.174799551612	2.794806230852
4	824	1883.476859197256	0
4	829	1900.262775603827	14.859636071018
4	841	1927.167334289672	0
4	844	1936.255158333538	7.396620487965
4	854	1985.692923559129	0
4	877	2035.12845233487	0
4	882	2037.942191742119	0.235547257098
4	885	2052.809280660382	9.336323807449
4	895	2086.337690370672	0
4	898	2097.545413534898	0
4	901	2101.142829672115	1.576725514831
4	908	2115.320149594233	0
4	919	2145.854161296251	0
4	927	2165.681529415681	0
4	934	2187.109250616897	0
4	973	2221.454825515369	0
4	999	2264.236815591852	0
4	1004	2271.874558676346	0
4	1012	2293.078236472355	0
4	1036	2336.495621840945	0
4	1047	2351.203653971712	13.855565566251
4	1050	2361.255640239327	9.00093261187
4	1061	2372.17973835098	0
4	1076	2414.535637886846	0
4	1090	2439.36645112858	0
4	1093	2441.406016853646	0.833383269987
4	1107	2452.701691149425	0
4	1110	2465.97324143439	10.199740781948
4	1121	2494.524057178324	16.476342694568
5	162	354.220807892071	4
5	164	358.816678104859	5
5	170	362.918884947423	6
5	182	382.502447573653	7
5	184	386.691966251989	8
5	187	391.480322332022	9
5	191	402.91178608321	10
5	193	403.909484036199	11
5	198	412.173305584134	9
5	201	416.102112529242	9
5	205	421.769602253501	8
5	208	427.13295448405	8
5	214	433.849908919438	8
5	219	447.408489393891	6
5	230	481.918541865505	1
5	236	492.645323064696	1
5	239	498.41728786812	1
5	241	500.665197321305	2
5	246	513.078115747372	2
5	253	529.606159204226	2
5	257	547.383719825004	1
5	260	562.820335773616	1
5	264	571.42461516205	2
5	266	576.44888564805	3
5	270	599.143554045033	3
5	274	606.28963701956	2
5	283	634.448028384357	1
5	291	650.35220467007	2
5	293	665.766420488575	3
5	297	671.661096219755	4
5	302	680.844601077482	5
5	306	694.4339970116	6
5	309	700.985969889335	7
5	311	701.806198171285	8
5	314	713.958362007736	9
5	319	720.645742409063	8
5	323	729.832992657518	7
5	326	735.531473481411	7
5	335	776.789953050879	1
5	338	779.614350689329	1
5	341	785.140662753362	1
5	344	804.919677685226	1
5	348	813.104810438763	2
5	350	813.307067739144	3
5	352	818.30858984354	4
5	354	824.302002192307	5
5	361	836.864931136729	6
5	363	837.350773138421	7
5	365	843.326417154544	8
5	367	850.212541818324	9
5	376	862.256259261925	10
5	380	881.830197929819	10
5	389	893.854051650568	10
5	392	897.930962325278	10
5	402	910.066976022594	8
5	406	933.253107534893	8
5	412	941.657077362681	5
5	414	942.968278161708	6
5	417	946.440734773634	6
5	420	948.153764576261	6
5	428	965.521339741348	1
5	431	981.004076053121	1
5	437	1004.449375652978	1
5	443	1015.38380414706	1
5	449	1024.553756365915	1
5	454	1037.290707556304	1
5	458	1049.858783622759	1
5	464	1057.607896085531	1
5	466	1061.401959982533	2
5	471	1067.787554912875	2
5	473	1068.252939213793	3
5	483	1091.347777855667	3
5	486	1096.268931160359	3
5	488	1100.961170677705	4
5	493	1104.564690809039	2
5	498	1112.067930347438	3
5	501	1119.099637767066	3
5	506	1130.957477577577	1
5	509	1138.78013148916	1
5	514	1144.323871654139	1
5	516	1148.450157988024	2
5	518	1158.627211880175	3
5	522	1159.331674425107	4
5	525	1168.353695857964	5
5	530	1188.190898806865	6
5	532	1194.247409209763	7
5	543	1215.289413414158	8
5	545	1240.032217313543	9
5	547	1240.082505664293	10
5	552	1253.710917304745	9
5	555	1257.293697563909	9
5	566	1283.813109435883	1
5	569	1291.389407764327	1
5	574	1313.569823988025	1
5	587	1346.167197587479	1
5	589	1350.028723703293	2
5	591	1351.512135146458	3
5	599	1363.224814850181	1
5	602	1377.772949826415	1
5	605	1378.379669330629	1
5	608	1391.432326235966	1
5	611	1393.686084915507	1
5	614	1405.629567179376	1
5	617	1418.469175043072	1
5	621	1425.893199456538	2
5	624	1439.836864833386	3
5	627	1444.7624137905	3
5	629	1448.263396076285	4
5	636	1465.369118310634	3
5	641	1497.176956300586	1
5	643	1497.962016172964	2
5	645	1498.005744378918	3
5	649	1508.777151633738	2
5	653	1513.081014510385	1
5	656	1519.02434727888	1
5	659	1521.224361848015	1
5	661	1521.4211177398	2
5	663	1527.176332775919	3
5	669	1542.095215944384	2
5	677	1568.633061524487	1
5	687	1586.257204412821	1
5	689	1589.545655119811	2
5	694	1603.92385839718	3
5	697	1609.50799170604	4
5	709	1625.662992635075	2
5	714	1631.920961920185	2
5	717	1635.677345328082	3
5	728	1654.996103444303	1
5	734	1663.090675980942	2
5	746	1704.68708707631	3
5	748	1709.770363652536	4
5	750	1716.266022827696	5
5	752	1720.94382496743	6
5	759	1728.637724047396	7
5	762	1731.636747604201	8
5	766	1746.878738555797	8
5	774	1767.685687162037	5
5	776	1784.550241260931	6
5	778	1784.841039858382	7
5	780	1786.41524331182	8
5	782	1789.616137908949	9
5	784	1793.820346761653	10
5	786	1800.426775317516	11
5	789	1812.321555644909	12
5	804	1840.504910789092	5
5	806	1842.590162227535	6
5	808	1847.99445252932	7
5	812	1854.07194290293	7
5	818	1858.808527574329	8
5	828	1894.016135839259	7
5	834	1915.429774557667	6
5	848	1967.183320475023	1
5	851	1979.625919561273	1
5	856	1993.509219006814	1
5	859	1999.044872113969	2
5	863	2006.225192601021	1
5	866	2011.405938186384	1
5	869	2018.637309074694	1
5	872	2030.325865854542	1
5	874	2031.042674949367	2
5	879	2037.599694128195	2
5	890	2073.067371242433	1
5	893	2078.372861477825	1
5	905	2109.343958797616	1
5	911	2123.437687074001	1
5	914	2138.579705603058	1
5	917	2143.511469465731	1
5	923	2162.382812115029	1
5	925	2163.089283698397	2
5	929	2168.186973905235	3
5	931	2173.869921520784	4
5	936	2189.811664414536	5
5	941	2196.082281053651	4
5	943	2196.260568128432	5
5	945	2197.06684740145	6
5	948	2198.899392425671	6
5	951	2203.672221669975	6
5	953	2205.91081637071	7
5	957	2209.528222924243	6
5	960	2212.282576392703	6
5	965	2215.738187667887	4
5	968	2216.540206352545	4
5	971	2219.790560216916	4
5	976	2232.952055811601	5
5	979	2233.289927255512	5
5	981	2234.378659968128	6
5	988	2246.891927868613	2
5	990	2252.24765871453	3
5	992	2256.212029238043	4
5	994	2258.711853867551	5
5	997	2263.520418659047	5
5	1008	2291.641604036185	3
5	1010	2292.288336125078	4
5	1016	2299.337709247451	4
5	1018	2301.157408505392	5
5	1024	2310.542912566416	2
5	1027	2316.096112479992	2
5	1031	2324.857901397619	1
5	1034	2329.828241345159	1
5	1038	2336.636636448296	2
5	1042	2342.58296503385	3
5	1044	2344.407946736265	4
5	1046	2347.851559815224	5
5	1053	2363.887143678592	6
5	1058	2368.453322025333	4
5	1063	2384.92887531202	4
5	1066	2392.242113020186	5
5	1073	2402.905379266026	1
5	1078	2414.704580193717	1
5	1080	2416.079366247579	2
5	1083	2418.726709731	3
5	1086	2427.294030763727	3
5	1088	2438.424958185678	4
5	1096	2441.73512436978	5
5	1099	2445.627055548079	5
5	1104	2448.642151641041	3
5	1114	2479.805499485109	3
5	1116	2489.270064040171	4
5	1120	2494.009934103584	5
6	162	354.220807892071	3
6	164	358.816678104859	4
6	170	362.918884947423	5
6	182	382.502447573653	6
6	184	386.691966251989	7
6	187	391.480322332022	8
6	191	402.91178608321	9
6	193	403.909484036199	10
6	194	408.26305876055	10
6	195	409.023761628967	9
6	196	409.756309428825	8
6	198	412.173305584134	8
6	199	415.208833567397	8
6	201	416.102112529242	8
6	202	417.300469703353	8
6	203	420.045739654751	7
6	205	421.769602253501	7
6	206	424.272014238588	7
6	208	427.13295448405	7
6	212	433.52149916889	7
6	214	433.849908919438	7
6	215	437.317935419043	7
6	216	440.661563324964	6
6	217	445.803707775563	5
6	219	447.408489393891	5
6	220	448.776042664885	5
6	221	449.352214805897	4
6	222	453.093905406795	3
6	226	469.184554370929	2
6	227	469.733463218983	1
6	228	476.374370654521	0
6	230	481.918541865505	0
6	234	492.492598876022	0
6	236	492.645323064696	0
6	237	493.484878319783	0
6	239	498.41728786812	0
6	241	500.665197321305	1
6	242	503.637847604332	1
6	246	513.078115747372	1
6	251	528.178698165187	1
6	253	529.606159204226	1
6	254	538.204125463865	1
6	255	546.127120322974	0
6	257	547.383719825004	0
6	258	550.816072233943	0
6	260	562.820335773616	0
6	264	571.42461516205	1
6	266	576.44888564805	2
6	268	592.508724920622	2
6	270	599.143554045033	2
6	271	600.250031244878	2
6	272	601.289932982491	1
6	274	606.28963701956	1
6	275	608.000191784603	1
6	276	610.511733903621	0
6	283	634.448028384357	0
6	291	650.35220467007	1
6	293	665.766420488575	2
6	297	671.661096219755	3
6	302	680.844601077482	4
6	306	694.4339970116	5
6	309	700.985969889335	6
6	311	701.806198171285	7
6	314	713.958362007736	8
6	316	717.023972866262	8
6	317	719.567724755692	7
6	319	720.645742409063	7
6	320	725.903702117244	7
6	321	728.122353080742	6
6	323	729.832992657518	6
6	324	732.708907863289	6
6	326	735.531473481411	6
6	327	746.735688935858	6
6	328	748.116011672076	5
6	329	755.108423100728	4
6	330	755.72499168364	3
6	331	760.606967293836	2
6	332	760.841595186531	1
6	333	762.292802876154	0
6	335	776.789953050879	0
6	336	779.451756797086	0
6	338	779.614350689329	0
6	339	780.260197738646	0
6	341	785.140662753362	0
6	342	786.600109188044	0
6	344	804.919677685226	0
6	348	813.104810438763	1
6	350	813.307067739144	2
6	352	818.30858984354	3
6	354	824.302002192307	4
6	361	836.864931136729	5
6	363	837.350773138421	6
6	365	843.326417154544	7
6	367	850.212541818324	8
6	376	862.256259261925	9
6	378	877.233437514891	9
6	380	881.830197929819	9
6	387	892.538275220115	9
6	389	893.854051650568	9
6	390	894.194181482269	9
6	392	897.930962325278	9
6	393	899.160598443688	9
6	394	900.502033412778	8
6	395	901.748210982718	7
6	402	910.066976022594	7
6	404	927.277793666878	7
6	406	933.253107534893	7
6	407	935.338273392005	7
6	408	937.024604160523	6
6	409	940.428142335952	5
6	410	941.488149471887	4
6	412	941.657077362681	4
6	414	942.968278161708	5
6	415	945.602681235556	5
6	417	946.440734773634	5
6	418	947.339710408259	5
6	420	948.153764576261	5
6	421	949.27290343407	5
6	422	950.271092799307	4
6	423	950.771957879185	3
6	424	950.887016379468	2
6	425	952.358171384581	1
6	426	955.097976046626	0
6	428	965.521339741348	0
6	429	974.407876391213	0
6	431	981.004076053121	0
6	432	986.179410435062	0
6	437	1004.449375652978	0
6	441	1015.315471652564	0
6	443	1015.38380414706	0
6	444	1017.100080870709	0
6	449	1024.553756365915	0
6	450	1032.421826827596	0
6	454	1037.290707556304	0
6	456	1041.777537080023	0
6	458	1049.858783622759	0
6	459	1051.823473163891	0
6	464	1057.607896085531	0
6	466	1061.401959982533	1
6	467	1064.446029060807	1
6	471	1067.787554912875	1
6	473	1068.252939213793	2
6	481	1088.474574239365	2
6	483	1091.347777855667	2
6	484	1095.4876530316	2
6	486	1096.268931160359	2
6	488	1100.961170677705	3
6	489	1102.005746964079	3
6	490	1102.211188114854	2
6	491	1103.640337510937	1
6	493	1104.564690809039	1
6	498	1112.067930347438	2
6	499	1115.753172121928	2
6	501	1119.099637767066	2
6	502	1122.23045312354	2
6	503	1127.01543696432	1
6	504	1128.217190408461	0
6	506	1130.957477577577	0
6	507	1131.206765493674	0
6	509	1138.78013148916	0
6	510	1139.466226232521	0
6	514	1144.323871654139	0
6	516	1148.450157988024	1
6	518	1158.627211880175	2
6	522	1159.331674425107	3
6	525	1168.353695857964	4
6	530	1188.190898806865	5
6	532	1194.247409209763	6
6	543	1215.289413414158	7
6	545	1240.032217313543	8
6	547	1240.082505664293	9
6	549	1246.545594209468	9
6	550	1253.150267285308	8
6	552	1253.710917304745	8
6	553	1256.208544589526	8
6	555	1257.293697563909	8
6	556	1260.07452719652	8
6	557	1260.773201011569	7
6	558	1264.088988784569	6
6	559	1275.416850161065	5
6	560	1276.609937993406	4
6	561	1276.735496472649	3
6	562	1277.060352046973	2
6	563	1282.320790827075	1
6	564	1283.280782296068	0
6	566	1283.813109435883	0
6	567	1284.368150902958	0
6	569	1291.389407764327	0
6	570	1300.113122182193	0
6	574	1313.569823988025	0
6	585	1331.114499245706	0
6	587	1346.167197587479	0
6	589	1350.028723703293	1
6	591	1351.512135146458	2
6	595	1352.525877495704	2
6	596	1352.800733383123	1
6	597	1353.613788264116	0
6	599	1363.224814850181	0
6	600	1367.240691492182	0
6	602	1377.772949826415	0
6	603	1378.117960380536	0
6	605	1378.379669330629	0
6	606	1383.581415015545	0
6	608	1391.432326235966	0
6	609	1391.742584773506	0
6	611	1393.686084915507	0
6	612	1398.387300724647	0
6	614	1405.629567179376	0
6	615	1406.014107891985	0
6	617	1418.469175043072	0
6	621	1425.893199456538	1
6	624	1439.836864833386	2
6	625	1441.920517470371	2
6	627	1444.7624137905	2
6	629	1448.263396076285	3
6	630	1449.840207405192	3
6	634	1459.477541864063	2
6	636	1465.369118310634	2
6	637	1466.50669366757	2
6	638	1473.993288457914	1
6	639	1478.954386953554	0
6	641	1497.176956300586	0
6	643	1497.962016172964	1
6	645	1498.005744378918	2
6	646	1502.100508788867	2
6	647	1507.048485237156	1
6	649	1508.777151633738	1
6	650	1510.212932414439	1
6	651	1510.490465914481	0
6	653	1513.081014510385	0
6	654	1517.10358580774	0
6	656	1519.02434727888	0
6	657	1520.219791329911	0
6	659	1521.224361848015	0
6	661	1521.4211177398	1
6	663	1527.176332775919	2
6	664	1530.266699460046	2
6	665	1536.989046004192	1
6	669	1542.095215944384	1
6	674	1559.64925749384	1
6	675	1560.381269795278	0
6	677	1568.633061524487	0
6	678	1572.682144821909	0
6	687	1586.257204412821	0
6	689	1589.545655119811	1
6	694	1603.92385839718	2
6	697	1609.50799170604	3
6	699	1612.854476764084	3
6	700	1613.106268864039	2
6	707	1623.881209610209	1
6	709	1625.662992635075	1
6	710	1625.997763609521	1
6	714	1631.920961920185	1
6	717	1635.677345328082	2
6	718	1635.801549390378	2
6	719	1638.399311549189	1
6	720	1639.152911624516	0
6	728	1654.996103444303	0
6	734	1663.090675980942	1
6	746	1704.68708707631	2
6	748	1709.770363652536	3
6	750	1716.266022827696	4
6	752	1720.94382496743	5
6	759	1728.637724047396	6
6	762	1731.636747604201	7
6	764	1745.831899923597	7
6	766	1746.878738555797	7
6	767	1749.562316730209	7
6	768	1750.512326756199	6
6	769	1759.518760340457	5
6	770	1764.352634242411	4
6	774	1767.685687162037	4
6	776	1784.550241260931	5
6	778	1784.841039858382	6
6	780	1786.41524331182	7
6	782	1789.616137908949	8
6	784	1793.820346761653	9
6	786	1800.426775317516	10
6	789	1812.321555644909	11
6	790	1813.811448093107	11
6	791	1814.31602961864	10
6	792	1818.866886756864	9
6	793	1820.947497020729	8
6	794	1823.608238617769	7
6	795	1824.466245659223	6
6	799	1829.914930577389	5
6	800	1831.872808176393	4
6	804	1840.504910789092	4
6	806	1842.590162227535	5
6	808	1847.99445252932	6
6	810	1853.343843924529	6
6	812	1854.07194290293	6
6	818	1858.808527574329	7
6	821	1880.388920933649	7
6	822	1883.340266795031	6
6	828	1894.016135839259	6
6	831	1909.265345617956	6
6	832	1913.754284944997	5
6	834	1915.429774557667	5
6	835	1917.016258864954	5
6	836	1917.128999577747	4
6	837	1917.778939824125	3
6	838	1924.147318298995	2
6	839	1924.925926333018	1
6	846	1941.864263475422	0
6	848	1967.183320475023	0
6	849	1971.628043046618	0
6	851	1979.625919561273	0
6	852	1984.594409346608	0
6	856	1993.509219006814	0
6	859	1999.044872113969	1
6	860	2002.400297985314	1
6	861	2004.462713637429	0
6	863	2006.225192601021	0
6	864	2008.843400167191	0
6	866	2011.405938186384	0
6	867	2013.573663620694	0
6	869	2018.637309074694	0
6	870	2020.421270567649	0
6	872	2030.325865854542	0
6	874	2031.042674949367	1
6	875	2032.187541367387	1
6	879	2037.599694128195	1
6	887	2068.122730205009	1
6	888	2070.216234296993	0
6	890	2073.067371242433	0
6	891	2078.159645231826	0
6	893	2078.372861477825	0
6	903	2107.48622541665	0
6	905	2109.343958797616	0
6	906	2110.777168800266	0
6	911	2123.437687074001	0
6	912	2132.314143984647	0
6	914	2138.579705603058	0
6	915	2139.822865883685	0
6	917	2143.511469465731	0
6	921	2160.471178541923	0
6	923	2162.382812115029	0
6	925	2163.089283698397	1
6	929	2168.186973905235	2
6	931	2173.869921520784	3
6	936	2189.811664414536	4
6	938	2191.218770348417	4
6	939	2192.432908060028	3
6	941	2196.082281053651	3
6	943	2196.260568128432	4
6	945	2197.06684740145	5
6	946	2198.257382738156	5
6	948	2198.899392425671	5
6	949	2202.508544926571	5
6	951	2203.672221669975	5
6	953	2205.91081637071	6
6	954	2205.934730493277	6
6	955	2207.477243562767	5
6	957	2209.528222924243	5
6	958	2210.563374460643	5
6	960	2212.282576392703	5
6	961	2212.339025870868	5
6	962	2214.197103441287	4
6	963	2214.762836029858	3
6	965	2215.738187667887	3
6	966	2215.984365113497	3
6	968	2216.540206352545	3
6	969	2217.693155302166	3
6	971	2219.790560216916	3
6	976	2232.952055811601	4
6	977	2233.189980149432	4
6	979	2233.289927255512	4
6	981	2234.378659968128	5
6	982	2234.879339249679	5
6	983	2235.828958662279	4
6	984	2241.603533212171	3
6	985	2242.48019713129	2
6	986	2242.827841702284	1
6	988	2246.891927868613	1
6	990	2252.24765871453	2
6	992	2256.212029238043	3
6	994	2258.711853867551	4
6	995	2261.365373066626	4
6	997	2263.520418659047	4
6	1001	2269.396787798661	4
6	1002	2271.164085067965	3
6	1006	2286.202602183205	2
6	1008	2291.641604036185	2
6	1010	2292.288336125078	3
6	1014	2298.568037504696	3
6	1016	2299.337709247451	3
6	1018	2301.157408505392	4
6	1019	2302.283743118881	4
6	1020	2306.389308910955	3
6	1021	2307.500026493488	2
6	1022	2308.034877630074	1
6	1024	2310.542912566416	1
6	1025	2311.351414320526	1
6	1027	2316.096112479992	1
6	1028	2319.385246978161	1
6	1029	2321.81404920235	0
6	1031	2324.857901397619	0
6	1032	2329.175392764987	0
6	1034	2329.828241345159	0
6	1038	2336.636636448296	1
6	1042	2342.58296503385	2
6	1044	2344.407946736265	3
6	1046	2347.851559815224	4
6	1053	2363.887143678592	5
6	1054	2365.067136184701	5
6	1055	2365.275721984741	4
6	1056	2365.448404680816	3
6	1058	2368.453322025333	3
6	1059	2370.796451166116	3
6	1063	2384.92887531202	3
6	1066	2392.242113020186	4
6	1067	2392.672643160176	4
6	1068	2396.209220068337	3
6	1069	2397.803074432503	2
6	1070	2398.169304559303	1
6	1071	2402.554003228293	0
6	1073	2402.905379266026	0
6	1074	2403.670351930629	0
6	1078	2414.704580193717	0
6	1080	2416.079366247579	1
6	1083	2418.726709731	2
6	1084	2424.204016259118	2
6	1086	2427.294030763727	2
6	1088	2438.424958185678	3
6	1096	2441.73512436978	4
6	1097	2444.720565087269	4
6	1099	2445.627055548079	4
6	1100	2446.402120577689	4
6	1101	2447.048823477871	3
6	1102	2447.239960920611	2
6	1104	2448.642151641041	2
6	1105	2450.807996318627	2
6	1114	2479.805499485109	2
6	1116	2489.270064040171	3
6	1120	2494.009934103584	4
7	189	392.694266734411	56.138306375892
7	194	408.26305876055	66.408346083551
7	195	409.023761628967	61.013073763074
7	196	409.756309428825	55.535501536754
7	199	415.208833567397	56.392155462538
7	202	417.300469703353	54.38158475593
7	203	420.045739654751	37.543292081098
7	206	424.272014238588	37.580047986599
7	211	430.166503084047	38.686180752025
7	212	433.52149916889	30.60971308568
7	215	437.317935419043	33.408451382844
7	216	440.661563324964	28.48825774083
7	217	445.803707775563	29.701595246321
7	220	448.776042664885	27.006440411384
7	221	449.352214805897	22.219260321847
7	222	453.093905406795	24.0204490972
7	225	466.885231659402	33.035322739964
7	226	469.184554370929	21.776064977038
7	227	469.733463218983	11.516600161294
7	230	481.918541865505	0
7	233	485.625554847754	0.586171464289
7	236	492.645323064696	0
7	239	498.41728786812	0
7	242	503.637847604332	2.972650283027
7	250	526.432421894442	22.213084580777
7	251	528.178698165187	15.100582417815
7	254	538.204125463865	8.597966259639
7	257	547.383719825004	0
7	260	562.820335773616	0
7	267	586.166153144398	20.596872694881
7	268	592.508724920622	21.084109758572
7	271	600.250031244878	23.801145596828
7	272	601.289932982491	2.146378937458
7	275	608.000191784603	1.710554765043
7	315	716.415993297656	81.967964913299
7	316	717.023972866262	66.671768196192
7	317	719.567724755692	53.801304267117
7	320	725.903702117244	54.242605897489
7	321	728.122353080742	47.27775200326
7	324	732.708907863289	38.274910851689
7	327	746.735688935858	45.749719046523
7	328	748.116011672076	46.309813500791
7	329	755.108423100728	41.150061092992
7	330	755.72499168364	35.079249274577
7	331	760.606967293836	30.773974636318
7	332	760.841595186531	25.31012170512
7	335	776.789953050879	0
7	338	779.614350689329	0
7	341	785.140662753362	0
7	344	804.919677685226	0
7	369	857.485443280514	48.174521362529
7	372	860.126847486084	47.022037047321
7	377	871.227874790176	57.920807051032
7	378	877.233437514891	58.924847671351
7	386	891.410322552745	67.108320360438
7	387	892.538275220115	55.673344083386
7	390	894.194181482269	56.843408343848
7	393	899.160598443688	55.834181289144
7	394	900.502033412778	50.289491594454
7	395	901.748210982718	43.581616196995
7	398	906.178219154836	44.23710365279
7	403	922.34024078722	60.083981525295
7	404	927.277793666878	45.447595737059
7	407	935.338273392005	51.682387970253
7	408	937.024604160523	43.170552509955
7	409	940.428142335952	42.497180010674
7	410	941.488149471887	37.582596935273
7	415	945.602681235556	38.11874356141
7	418	947.339710408259	37.272734385665
7	421	949.27290343407	16.019795899177
7	422	950.271092799307	8.614015436626
7	423	950.771957879185	7.803679717477
7	424	950.887016379468	4.446281605834
7	425	952.358171384581	4.20440680832
7	428	965.521339741348	0
7	431	981.004076053121	0
7	437	1004.449375652978	0
7	440	1013.056649565183	5.052966641745
7	443	1015.38380414706	0
7	449	1024.553756365915	0
7	455	1040.608523135645	3.317815579341
7	458	1049.858783622759	0
7	464	1057.607896085531	0
7	467	1064.446029060807	3.044069078274
7	480	1086.321116023532	20.499131490056
7	481	1088.474574239365	20.68701932649
7	484	1095.4876530316	27.234713817807
7	489	1102.005746964079	10.657969108412
7	490	1102.211188114854	5.942256954495
7	491	1103.640337510937	2.679166833232
7	496	1111.340251600974	6.775560791935
7	499	1115.753172121928	10.894513106737
7	502	1122.23045312354	10.162522776102
7	503	1127.01543696432	7.915799197254
7	506	1130.957477577577	0
7	509	1138.78013148916	0
7	548	1244.540157615802	100.21628596166
7	549	1246.545594209468	98.095436221444
7	550	1253.150267285308	94.523055405133
7	553	1256.208544589526	96.876870164419
7	556	1260.07452719652	91.720831338556
7	557	1260.773201011569	72.582302204704
7	558	1264.088988784569	69.841579574806
7	559	1275.416850161065	60.127436746907
7	560	1276.609937993406	36.577720679863
7	561	1276.735496472649	36.652990808356
7	562	1277.060352046973	23.349434742228
7	563	1282.320790827075	25.027093263166
7	566	1283.813109435883	0
7	569	1291.389407764327	0
7	575	1314.909319388122	1.339495400097
7	584	1331.11320819197	14.415866237549
7	587	1346.167197587479	0
7	594	1352.351158988054	2.322435284761
7	595	1352.525877495704	1.013742349246
7	596	1352.800733383123	0.628276092437
7	599	1363.224814850181	0
7	602	1377.772949826415	0
7	605	1378.379669330629	0
7	608	1391.432326235966	0
7	611	1393.686084915507	0
7	614	1405.629567179376	0
7	617	1418.469175043072	0
7	622	1435.994391454408	16.233567629687
7	625	1441.920517470371	16.027318013833
7	630	1449.840207405192	10.003342571806
7	633	1457.655982992488	12.893569201988
7	634	1459.477541864063	11.214145787778
7	637	1466.50669366757	12.84704727562
7	638	1473.993288457914	8.62417014728
7	641	1497.176956300586	0
7	646	1502.100508788867	4.138492615903
7	647	1507.048485237156	9.042740858238
7	650	1510.212932414439	1.435780780701
7	653	1513.081014510385	0
7	656	1519.02434727888	0
7	659	1521.224361848015	0
7	664	1530.266699460046	8.845581720246
7	665	1536.989046004192	9.812713228273
7	670	1546.404974774824	7.33120800729
7	673	1555.062909444795	12.967693500411
7	674	1559.64925749384	7.837988494943
7	677	1568.633061524487	0
7	698	1611.903424841835	25.646220429014
7	699	1612.854476764084	23.308821644273
7	700	1613.106268864039	9.182410466859
7	703	1616.621080363618	7.113088657578
7	706	1621.606765494683	7.182448254884
7	707	1623.881209610209	4.758061071821
7	710	1625.997763609521	0.334770974446
7	715	1634.909895926385	6.063851750193
7	718	1635.801549390378	3.880587470193
7	719	1638.399311549189	2.721966221107
7	763	1740.867504832456	85.871401388153
7	764	1745.831899923597	82.741223942655
7	767	1749.562316730209	44.875229653899
7	768	1750.512326756199	40.741963103663
7	769	1759.518760340457	43.252737512761
7	770	1764.352634242411	43.408809274981
7	787	1804.689464855249	76.051740807853
7	790	1813.811448093107	82.174700488906
7	791	1814.31602961864	67.437291062843
7	792	1818.866886756864	51.474298534874
7	793	1820.947497020729	53.261809858692
7	794	1823.608238617769	39.057997356838
7	795	1824.466245659223	39.625205800841
7	798	1826.802786228659	40.387542916839
7	799	1829.914930577389	40.29879266844
7	800	1831.872808176393	38.05246141474
7	809	1853.061284716286	52.63450939877
7	810	1853.343843924529	41.02228827962
7	820	1877.901293526416	51.768783243084
7	821	1880.388920933649	43.156220268376
7	822	1883.340266795031	42.835356005939
7	830	1907.668191937458	65.078029709923
7	831	1909.265345617956	61.270893088636
7	832	1913.754284944997	59.682342042067
7	835	1917.016258864954	60.340007900927
7	836	1917.128999577747	58.320472003418
7	837	1917.778939824125	34.302080626869
7	838	1924.147318298995	30.131182459736
7	839	1924.925926333018	9.496151775351
7	845	1939.931755832621	12.764421542949
7	848	1967.183320475023	0
7	851	1979.625919561273	0
7	857	1994.292515348977	0.783296342163
7	860	2002.400297985314	3.355425871345
7	863	2006.225192601021	0
7	866	2011.405938186384	0
7	869	2018.637309074694	0
7	872	2030.325865854542	0
7	875	2032.187541367387	1.14486641802
7	886	2059.165618222906	24.037165888036
7	887	2068.122730205009	30.523036076814
7	890	2073.067371242433	0
7	893	2078.372861477825	0
7	896	2095.443941546829	9.106251176157
7	902	2103.943475110748	6.39806157585
7	905	2109.343958797616	0
7	911	2123.437687074001	0
7	914	2138.579705603058	0
7	917	2143.511469465731	0
7	920	2150.237478146471	4.38331685022
7	923	2162.382812115029	0
7	932	2177.999253864306	14.909970165909
7	937	2190.916750594552	25.235221178871
7	938	2191.218770348417	23.031796443182
7	939	2192.432908060028	18.562986539244
7	946	2198.257382738156	11.148132121259
7	949	2202.508544926571	12.696880512035
7	954	2205.934730493277	9.852449439626
7	955	2207.477243562767	11.216675434335
7	958	2210.563374460643	13.496527059193
7	961	2212.339025870868	13.439633445197
7	962	2214.197103441287	10.524881771312
7	963	2214.762836029858	8.852019659148
7	966	2215.984365113497	6.456142189254
7	969	2217.693155302166	5.410578909463
7	974	2232.517341266445	16.779153598558
7	977	2233.189980149432	16.649773796887
7	982	2234.879339249679	15.088779032763
7	983	2235.828958662279	14.37413314691
7	984	2241.603533212171	8.65147740057
7	985	2242.48019713129	9.190269875778
7	986	2242.827841702284	8.449181734156
7	995	2261.365373066626	14.473445198013
7	1000	2266.248817957021	14.001159242491
7	1001	2269.396787798661	13.184758560618
7	1002	2271.164085067965	12.452231200414
7	1005	2279.770465449796	16.250046790749
7	1006	2286.202602183205	21.965786591353
7	1013	2295.791002894586	23.91644421824
7	1014	2298.568037504696	6.926433468511
7	1019	2302.283743118881	9.995406993803
7	1020	2306.389308910955	13.3110724386
7	1021	2307.500026493488	8.162317246037
7	1022	2308.034877630074	6.877469124682
7	1025	2311.351414320526	0.80850175411
7	1028	2319.385246978161	3.289134498169
7	1031	2324.857901397619	0
7	1034	2329.828241345159	0
7	1051	2363.089451169047	26.593829328102
7	1054	2365.067136184701	28.430499736405
7	1055	2365.275721984741	22.692756950891
7	1056	2365.448404680816	21.040457944551
7	1059	2370.796451166116	22.944891350892
7	1064	2389.156295562407	25.269151883815
7	1067	2392.672643160176	24.219321134843
7	1068	2396.209220068337	24.029481717357
7	1069	2397.803074432503	12.874199120483
7	1070	2398.169304559303	5.927191539117
7	1073	2402.905379266026	0
7	1081	2416.907004066193	2.202423872476
7	1084	2424.204016259118	8.124650011539
7	1094	2441.614931881616	22.888222150616
7	1097	2444.720565087269	17.426534323542
7	1100	2446.402120577689	7.977162392011
7	1101	2447.048823477871	7.682372349291
7	1102	2447.239960920611	5.504836550831
7	1105	2450.807996318627	5.180940770548
8	194	408.26305876055	33
8	195	409.023761628967	34
8	196	409.756309428825	35
8	199	415.208833567397	36
8	202	417.300469703353	37
8	203	420.045739654751	38
8	206	424.272014238588	39
8	212	433.52149916889	40
8	215	437.317935419043	41
8	216	440.661563324964	42
8	217	445.803707775563	43
8	220	448.776042664885	44
8	221	449.352214805897	45
8	222	453.093905406795	46
8	226	469.184554370929	47
8	227	469.733463218983	48
8	228	476.374370654521	49
8	234	492.492598876022	50
8	237	493.484878319783	51
8	242	503.637847604332	52
8	251	528.178698165187	53
8	254	538.204125463865	54
8	255	546.127120322974	55
8	258	550.816072233943	56
8	268	592.508724920622	57
8	271	600.250031244878	58
8	272	601.289932982491	59
8	275	608.000191784603	60
8	276	610.511733903621	61
8	316	717.023972866262	62
8	317	719.567724755692	63
8	320	725.903702117244	64
8	321	728.122353080742	65
8	324	732.708907863289	66
8	327	746.735688935858	67
8	328	748.116011672076	68
8	329	755.108423100728	69
8	330	755.72499168364	70
8	331	760.606967293836	71
8	332	760.841595186531	72
8	333	762.292802876154	73
8	336	779.451756797086	74
8	339	780.260197738646	75
8	342	786.600109188044	76
8	378	877.233437514891	77
8	387	892.538275220115	78
8	390	894.194181482269	79
8	393	899.160598443688	80
8	394	900.502033412778	81
8	395	901.748210982718	82
8	404	927.277793666878	83
8	407	935.338273392005	84
8	408	937.024604160523	85
8	409	940.428142335952	86
8	410	941.488149471887	87
8	415	945.602681235556	88
8	418	947.339710408259	89
8	421	949.27290343407	90
8	422	950.271092799307	91
8	423	950.771957879185	92
8	424	950.887016379468	93
8	425	952.358171384581	94
8	426	955.097976046626	95
8	429	974.407876391213	96
8	432	986.179410435062	97
8	441	1015.315471652564	98
8	444	1017.100080870709	99
8	450	1032.421826827596	100
8	456	1041.777537080023	101
8	459	1051.823473163891	102
8	467	1064.446029060807	103
8	481	1088.474574239365	104
8	484	1095.4876530316	105
8	489	1102.005746964079	106
8	490	1102.211188114854	107
8	491	1103.640337510937	108
8	499	1115.753172121928	109
8	502	1122.23045312354	110
8	503	1127.01543696432	111
8	504	1128.217190408461	112
8	507	1131.206765493674	113
8	510	1139.466226232521	114
8	549	1246.545594209468	115
8	550	1253.150267285308	116
8	553	1256.208544589526	117
8	556	1260.07452719652	118
8	557	1260.773201011569	119
8	558	1264.088988784569	120
8	559	1275.416850161065	121
8	560	1276.609937993406	122
8	561	1276.735496472649	123
8	562	1277.060352046973	124
8	563	1282.320790827075	125
8	564	1283.280782296068	126
8	567	1284.368150902958	127
8	570	1300.113122182193	128
8	585	1331.114499245706	129
8	595	1352.525877495704	130
8	596	1352.800733383123	131
8	597	1353.613788264116	132
8	600	1367.240691492182	133
8	603	1378.117960380536	134
8	606	1383.581415015545	135
8	609	1391.742584773506	136
8	612	1398.387300724647	137
8	615	1406.014107891985	138
8	625	1441.920517470371	139
8	630	1449.840207405192	140
8	634	1459.477541864063	141
8	637	1466.50669366757	142
8	638	1473.993288457914	143
8	639	1478.954386953554	144
8	646	1502.100508788867	145
8	647	1507.048485237156	146
8	650	1510.212932414439	147
8	651	1510.490465914481	148
8	654	1517.10358580774	149
8	657	1520.219791329911	150
8	664	1530.266699460046	151
8	665	1536.989046004192	152
8	674	1559.64925749384	153
8	675	1560.381269795278	154
8	678	1572.682144821909	155
8	699	1612.854476764084	156
8	700	1613.106268864039	157
8	707	1623.881209610209	158
8	710	1625.997763609521	159
8	718	1635.801549390378	160
8	719	1638.399311549189	161
8	720	1639.152911624516	162
8	764	1745.831899923597	163
8	767	1749.562316730209	164
8	768	1750.512326756199	165
8	769	1759.518760340457	166
8	770	1764.352634242411	167
8	790	1813.811448093107	168
8	791	1814.31602961864	169
8	792	1818.866886756864	170
8	793	1820.947497020729	171
8	794	1823.608238617769	172
8	795	1824.466245659223	173
8	799	1829.914930577389	174
8	800	1831.872808176393	175
8	810	1853.343843924529	176
8	821	1880.388920933649	177
8	822	1883.340266795031	178
8	831	1909.265345617956	179
8	832	1913.754284944997	180
8	835	1917.016258864954	181
8	836	1917.128999577747	182
8	837	1917.778939824125	183
8	838	1924.147318298995	184
8	839	1924.925926333018	185
8	846	1941.864263475422	186
8	849	1971.628043046618	187
8	852	1984.594409346608	188
8	860	2002.400297985314	189
8	861	2004.462713637429	190
8	864	2008.843400167191	191
8	867	2013.573663620694	192
8	870	2020.421270567649	193
8	875	2032.187541367387	194
8	887	2068.122730205009	195
8	888	2070.216234296993	196
8	891	2078.159645231826	197
8	903	2107.48622541665	198
8	906	2110.777168800266	199
8	912	2132.314143984647	200
8	915	2139.822865883685	201
8	921	2160.471178541923	202
8	938	2191.218770348417	203
8	939	2192.432908060028	204
8	946	2198.257382738156	205
8	949	2202.508544926571	206
8	954	2205.934730493277	207
8	955	2207.477243562767	208
8	958	2210.563374460643	209
8	961	2212.339025870868	210
8	962	2214.197103441287	211
8	963	2214.762836029858	212
8	966	2215.984365113497	213
8	969	2217.693155302166	214
8	977	2233.189980149432	215
8	982	2234.879339249679	216
8	983	2235.828958662279	217
8	984	2241.603533212171	218
8	985	2242.48019713129	219
8	986	2242.827841702284	220
8	995	2261.365373066626	221
8	1001	2269.396787798661	222
8	1002	2271.164085067965	223
8	1006	2286.202602183205	224
8	1014	2298.568037504696	225
8	1019	2302.283743118881	226
8	1020	2306.389308910955	227
8	1021	2307.500026493488	228
8	1022	2308.034877630074	229
8	1025	2311.351414320526	230
8	1028	2319.385246978161	231
8	1029	2321.81404920235	232
8	1032	2329.175392764987	233
8	1054	2365.067136184701	234
8	1055	2365.275721984741	235
8	1056	2365.448404680816	236
8	1059	2370.796451166116	237
8	1067	2392.672643160176	238
8	1068	2396.209220068337	239
8	1069	2397.803074432503	240
8	1070	2398.169304559303	241
8	1071	2402.554003228293	242
8	1074	2403.670351930629	243
8	1084	2424.204016259118	244
8	1097	2444.720565087269	245
8	1100	2446.402120577689	246
8	1101	2447.048823477871	247
8	1102	2447.239960920611	248
8	1105	2450.807996318627	249
9	194	408.26305876055	71.707098402031
9	195	409.023761628967	67.169048951968
9	196	409.756309428825	61.745621562932
9	199	415.208833567397	60.988025675326
9	202	417.300469703353	58.483791598494
9	203	420.045739654751	57.126854707328
9	206	424.272014238588	41.769566664935
9	212	433.52149916889	42.041176836868
9	215	437.317935419043	34.406149335833
9	216	440.661563324964	36.752079288765
9	217	445.803707775563	33.630402191429
9	220	448.776042664885	32.673930135643
9	221	449.352214805897	27.582612552396
9	222	453.093905406795	25.960950922745
9	226	469.184554370929	35.334645451491
9	227	469.733463218983	22.324973825092
9	228	476.374370654521	18.157507596832
9	234	492.492598876022	7.453215492557
9	237	493.484878319783	0.839555255087
9	242	503.637847604332	5.220559736212
9	251	528.178698165187	23.959360851522
9	254	538.204125463865	25.126009716493
9	255	546.127120322974	16.520961118748
9	258	550.816072233943	3.432352408939
9	268	592.508724920622	26.939444471105
9	271	600.250031244878	28.825416082828
9	272	601.289932982491	24.841047334441
9	275	608.000191784603	8.85663773957
9	276	610.511733903621	4.222096884061
9	316	717.023972866262	82.575944481905
9	317	719.567724755692	69.215520085622
9	320	725.903702117244	60.137281628669
9	321	728.122353080742	56.461256860987
9	324	732.708907863289	51.864306785807
9	327	746.735688935858	52.301691924258
9	328	748.116011672076	47.130041782741
9	329	755.108423100728	53.302224929443
9	330	755.72499168364	41.766629675904
9	331	760.606967293836	39.961224884773
9	332	760.841595186531	31.008602529013
9	333	762.292802876154	26.761329394743
9	336	779.451756797086	2.661803746207
9	339	780.260197738646	0.645847049317
9	342	786.600109188044	1.459446434682
9	378	877.233437514891	63.926369775747
9	387	892.538275220115	68.236273027808
9	390	894.194181482269	57.32925034554
9	393	899.160598443688	61.809825305267
9	394	900.502033412778	57.175616258234
9	395	901.748210982718	51.535669164394
9	404	927.277793666878	65.021534404953
9	407	935.338273392005	53.508075462186
9	408	937.024604160523	53.368718738771
9	409	940.428142335952	46.574090685384
9	410	941.488149471887	43.557187146609
9	415	945.602681235556	41.697128698942
9	418	947.339710408259	39.855772734113
9	421	949.27290343407	39.205927411476
9	422	950.271092799307	17.017985264414
9	423	950.771957879185	9.114880516504
9	424	950.887016379468	7.91873821776
9	425	952.358171384581	5.917436610947
9	426	955.097976046626	6.944211470365
9	429	974.407876391213	8.886536649865
9	432	986.179410435062	5.175334381941
9	441	1015.315471652564	7.311788729126
9	444	1017.100080870709	1.716276723649
9	450	1032.421826827596	7.868070461681
9	456	1041.777537080023	4.486829523719
9	459	1051.823473163891	1.964689541132
9	467	1064.446029060807	6.838132975276
9	481	1088.474574239365	22.652589705889
9	484	1095.4876530316	27.700098118725
9	489	1102.005746964079	33.752807750286
9	490	1102.211188114854	10.863410259187
9	491	1103.640337510937	7.371406350578
9	499	1115.753172121928	11.188481312889
9	502	1122.23045312354	17.371794108349
9	503	1127.01543696432	14.947506616882
9	504	1128.217190408461	9.117552641395
9	507	1131.206765493674	0.249287916097
9	510	1139.466226232521	0.686094743361
9	549	1246.545594209468	102.22172255533
9	550	1253.150267285308	104.70010929728
9	553	1256.208544589526	97.581332709351
9	556	1260.07452719652	100.74285277141
9	557	1260.773201011569	92.419505153605
9	558	1264.088988784569	75.898089977704
9	559	1275.416850161065	81.169440951302
9	560	1276.609937993406	61.320524579248
9	561	1276.735496472649	36.703279159106
9	562	1277.060352046973	36.97784638268
9	563	1282.320790827075	28.60987352233
9	564	1283.280782296068	25.987084732159
9	567	1284.368150902958	0.555041467075
9	570	1300.113122182193	8.723714417866
9	585	1331.114499245706	14.417157291285
9	595	1352.525877495704	2.497153792411
9	596	1352.800733383123	1.288598236665
9	597	1353.613788264116	1.44133097343
9	600	1367.240691492182	4.015876642001
9	603	1378.117960380536	0.345010554121
9	606	1383.581415015545	5.201745684916
9	609	1391.742584773506	0.31025853754
9	612	1398.387300724647	4.70121580914
9	615	1406.014107891985	0.384540712609
9	625	1441.920517470371	22.15969364565
9	630	1449.840207405192	23.947007948654
9	634	1459.477541864063	14.715128073563
9	637	1466.50669366757	18.243297591285
9	638	1473.993288457914	20.333642065964
9	639	1478.954386953554	13.58526864292
9	646	1502.100508788867	4.923552488281
9	647	1507.048485237156	9.086469064192
9	650	1510.212932414439	12.207188035521
9	651	1510.490465914481	1.713314280743
9	654	1517.10358580774	4.022571297355
9	657	1520.219791329911	1.195444051031
9	664	1530.266699460046	9.042337612031
9	665	1536.989046004192	15.567928264392
9	674	1559.64925749384	17.554041549456
9	675	1560.381269795278	8.570000796381
9	678	1572.682144821909	4.049083297422
9	699	1612.854476764084	26.597272351263
9	700	1613.106268864039	23.560613744228
9	707	1623.881209610209	9.45689237041
9	710	1625.997763609521	6.874615071133
9	718	1635.801549390378	6.955505214186
9	719	1638.399311549189	6.478349629004
9	720	1639.152911624516	3.475566296434
9	764	1745.831899923597	90.835796479294
9	767	1749.562316730209	86.471640749267
9	768	1750.512326756199	45.825239679889
9	769	1759.518760340457	49.748396687921
9	770	1764.352634242411	48.086611414715
9	790	1813.811448093107	85.173724045711
9	791	1814.31602961864	82.679282014439
9	792	1818.866886756864	71.988148201067
9	793	1820.947497020729	53.554908798739
9	794	1823.608238617769	55.922551455732
9	795	1824.466245659223	39.916004398292
9	799	1829.914930577389	43.499687265569
9	800	1831.872808176393	42.256670267444
9	810	1853.343843924529	52.917068607013
9	821	1880.388920933649	54.256410650317
9	822	1883.340266795031	46.107566129758
9	831	1909.265345617956	66.675183390421
9	832	1913.754284944997	65.759832415677
9	835	1917.016258864954	62.944315962024
9	836	1917.128999577747	60.45274861372
9	837	1917.778939824125	58.970412249796
9	838	1924.147318298995	40.670459101739
9	839	1924.925926333018	30.909790493759
9	846	1941.864263475422	14.69692918575
9	849	1971.628043046618	4.444722571595
9	852	1984.594409346608	4.968489785335
9	860	2002.400297985314	8.8910789785
9	861	2004.462713637429	5.41784152346
9	864	2008.843400167191	2.61820756617
9	867	2013.573663620694	2.16772543431
9	870	2020.421270567649	1.783961492955
9	875	2032.187541367387	1.861675512845
9	887	2068.122730205009	32.994277870139
9	888	2070.216234296993	32.616540168798
9	891	2078.159645231826	5.092273989393
9	903	2107.48622541665	9.940811881752
9	906	2110.777168800266	1.43321000265
9	912	2132.314143984647	8.876456910646
9	915	2139.822865883685	1.243160280627
9	921	2160.471178541923	14.617017245672
9	938	2191.218770348417	25.537240932736
9	939	2192.432908060028	24.245934154793
9	946	2198.257382738156	24.387461217372
9	949	2202.508544926571	15.399294309674
9	954	2205.934730493277	16.123066078741
9	955	2207.477243562767	11.394962509116
9	958	2210.563374460643	14.302806332211
9	961	2212.339025870868	15.272178469418
9	962	2214.197103441287	15.297711015616
9	963	2214.762836029858	11.090614359883
9	966	2215.984365113497	10.073548742787
9	969	2217.693155302166	8.164932377923
9	977	2233.189980149432	17.451792481545
9	982	2234.879339249679	18.339132897134
9	983	2235.828958662279	16.038398445363
9	984	2241.603533212171	20.148707696802
9	985	2242.48019713129	9.528141319689
9	986	2242.827841702284	9.537914446772
9	995	2261.365373066626	26.986713098498
9	1001	2269.396787798661	17.149129084131
9	1002	2271.164085067965	14.952055829922
9	1006	2286.202602183205	22.682183524158
9	1014	2298.568037504696	26.69347882835
9	1019	2302.283743118881	10.642139082696
9	1020	2306.389308910955	14.100972785877
9	1021	2307.500026493488	14.421790021133
9	1022	2308.034877630074	8.697168382623
9	1025	2311.351414320526	10.194005815134
9	1028	2319.385246978161	8.842334411745
9	1029	2321.81404920235	5.717936722358
9	1032	2329.175392764987	4.317491367368
9	1054	2365.067136184701	28.571514343756
9	1055	2365.275721984741	28.639085536445
9	1056	2365.448404680816	22.865439646966
9	1059	2370.796451166116	26.388504429851
9	1067	2392.672643160176	28.785499481584
9	1068	2396.209220068337	27.755898043004
9	1069	2397.803074432503	25.623336081523
9	1070	2398.169304559303	13.240429247283
9	1071	2402.554003228293	10.311890208107
9	1074	2403.670351930629	0.764972664603
9	1084	2424.204016259118	9.499436065401
9	1097	2444.720565087269	25.993855356269
9	1100	2446.402120577689	19.108089813962
9	1101	2447.048823477871	8.623865292193
9	1102	2447.239960920611	7.873509792031
9	1105	2450.807996318627	9.072871948847
10	210	429.073456309595	9
10	224	458.216863057689	10
10	232	485.039383383465	11
10	244	504.219337313665	12
10	262	565.569280449517	13
10	346	809.310921917985	14
10	371	858.166594785723	15
10	374	861.941115502046	16
10	382	883.655885421752	17
10	397	903.905552536614	18
10	400	907.483937674146	19
10	439	1008.003682923438	20
10	469	1065.821984533476	21
10	495	1104.858659015191	22
10	577	1316.697341954421	23
10	593	1352.172457290686	24
10	619	1419.760823824721	25
10	632	1453.65964639195	26
10	667	1539.073766767534	27
10	672	1551.811268998897	28
10	702	1614.424317239799	29
10	705	1619.123148538388	30
10	712	1628.846044176192	31
10	772	1767.39258822199	32
10	797	1826.132510283332	33
10	802	1837.232700665273	34
10	814	1856.676250964027	35
10	824	1883.476859197256	36
10	841	1927.167334289672	37
10	877	2035.12845233487	38
10	895	2086.337690370672	39
10	898	2097.545413534898	40
10	919	2145.854161296251	41
10	927	2165.681529415681	42
10	934	2187.109250616897	43
10	973	2221.454825515369	44
10	999	2264.236815591852	45
10	1004	2271.874558676346	46
10	1012	2293.078236472355	47
10	1036	2336.495621840945	48
10	1061	2372.17973835098	49
10	1090	2439.36645112858	50
10	1107	2452.701691149425	51
11	1122	2500	0.0996
12	1122	2500	0.048

