file 61376 1678560333                                           
version 2
run experiments_hard_game_mode1-1652-20230311-19:45:33-13335
attr configname experiments_hard_game_mode1
attr datetime 20230311-19:45:33
attr experiment experiments_hard_game_mode1
attr inifile omnetpp.ini
attr iterationvars "$0=10, $1=5, $2=100"
attr iterationvarsf 10,5,100-
attr measurement "$0=10, $1=5, $2=100"
attr network Network
attr processid 13335
attr repetition 2
attr replication #2
attr resultdir results
attr runnumber 1652
attr seedset 2
param *.boss.arrival_mean 20
param *.boss.service_mean 10
param *.minion.arrival_mean 10
param *.minion.service_mean 5
param *.player.recover_rate_x 100
param **.minion.arrival_distribution 0
param **.minion.service_distribution 0
param **.boss.arrival_distribution 0
param **.boss.service_distribution 0

vector 0 Network.player boss_defeated_stat:vector ETV
attr source signal_boss_defeated
vector 1 Network.player boss_jobs_queue_number_stat:vector ETV
attr source signal_boss_jobs_queue_number
vector 2 Network.player boss_response_time_stat:vector ETV
attr source signal_boss_response_time
vector 3 Network.player minion_waiting_time_stat:vector ETV
attr source signal_minion_waiting_time
vector 4 Network.player minion_jobs_number_stat:vector ETV
attr source signal_minion_jobs_number
vector 5 Network.player minion_jobs_queue_number_stat:vector ETV
attr source signal_minion_jobs_queue_number
vector 6 Network.player boss_jobs_number_stat:vector ETV
attr source signal_boss_jobs_number
vector 7 Network.player minion_recovered_stat:vector ETV
attr source signal_minion_recovered
vector 8 Network.player boss_waiting_time_stat:vector ETV
attr source signal_boss_waiting_time
vector 9 Network.player minion_defeated_stat:vector ETV
attr source signal_minion_defeated
vector 10 Network.player minion_response_time_stat:vector ETV
attr source signal_minion_response_time
vector 11 Network.player minion_throughput:vector ETV
attr source signal_minion_throughput
vector 12 Network.player boss_throughput:vector ETV
attr source signal_boss_throughput
0	2016 3341 155 1134 360.641157747183 2483.210065953677 123 22 144 10209 1002409
1	5357 6447 155 1136 360.641157747183 2486.574186514758 250 0 5 280 748
2	11804 4841 155 1134 360.641157747183 2483.210065953677 123 0.060177540513 87.053183471926 2492.2525603016 85661.750229326
3	16645 8631 155 1084 360.641157747183 2405.81727506206 218 99.87952826358 587.0592489908 84657.221501233 35723062.613939
4	25276 5982 157 1140 361.253872248248 2491.854625862879 224 13 76 11152 601268
5	31258 10289 157 1140 361.253872248248 2491.854625862879 385 12 75 19084 1015576
6	41547 3274 159 1136 368.958402505989 2486.574186514758 127 1 6 272 806
7	44821 1509 159 1086 368.958402505989 2411.664070294826 57 3 59 1767 70205
8	46330 4074 159 1134 368.958402505989 2483.210065953677 123 0 75.692935985551 1203.5001075689 33804.605587899
9	50404 4390 161 1084 370.664710286847 2405.81727506206 161 22 182 16422 2022804
10	54794 6541 161 1084 370.664710286847 2405.81727506206 161 116.93163903554 591.54611308581 64368.124871314 27668489.054302
11	61335 20 1141 1141 2500 2500 1 0.0728 0.0728 0.0728 0.00529984
12	61355 20 1141 1141 2500 2500 1 0.0576 0.0576 0.0576 0.00331776

