file 62698 1678560247                                           
version 2
run experiments_hard_game_mode1-1313-20230311-19:44:07-11614
attr configname experiments_hard_game_mode1
attr datetime 20230311-19:44:07
attr experiment experiments_hard_game_mode1
attr inifile omnetpp.ini
attr iterationvars "$0=9.5, $1=4, $2=100"
attr iterationvarsf 9.5,4,100-
attr measurement "$0=9.5, $1=4, $2=100"
attr network Network
attr processid 11614
attr repetition 23
attr replication #23
attr resultdir results
attr runnumber 1313
attr seedset 23
param *.boss.arrival_mean 20
param *.boss.service_mean 9.5
param *.minion.arrival_mean 10
param *.minion.service_mean 4
param *.player.recover_rate_x 100
param **.minion.arrival_distribution 0
param **.minion.service_distribution 0
param **.boss.arrival_distribution 0
param **.boss.service_distribution 0

vector 0 Network.player minion_jobs_number_stat:vector ETV
attr source signal_minion_jobs_number
vector 1 Network.player minion_jobs_queue_number_stat:vector ETV
attr source signal_minion_jobs_queue_number
vector 2 Network.player boss_jobs_number_stat:vector ETV
attr source signal_boss_jobs_number
vector 3 Network.player boss_jobs_queue_number_stat:vector ETV
attr source signal_boss_jobs_queue_number
vector 4 Network.player boss_defeated_stat:vector ETV
attr source signal_boss_defeated
vector 5 Network.player boss_response_time_stat:vector ETV
attr source signal_boss_response_time
vector 6 Network.player boss_waiting_time_stat:vector ETV
attr source signal_boss_waiting_time
vector 7 Network.player minion_waiting_time_stat:vector ETV
attr source signal_minion_waiting_time
vector 8 Network.player minion_defeated_stat:vector ETV
attr source signal_minion_defeated
vector 9 Network.player minion_response_time_stat:vector ETV
attr source signal_minion_response_time
vector 10 Network.player minion_recovered_stat:vector ETV
attr source signal_minion_recovered
vector 11 Network.player minion_throughput:vector ETV
attr source signal_minion_throughput
vector 12 Network.player boss_throughput:vector ETV
attr source signal_boss_throughput
0	2023 5707 151 1110 351.409402957577 2495.212845808239 216 1 40 3693 84211
1	7730 11330 151 1110 351.409402957577 2495.212845808239 429 0 39 6915 153573
2	19060 2727 153 1108 370.280462470171 2493.276094709187 106 1 9 258 1008
3	21787 5409 153 1108 370.280462470171 2493.276094709187 210 0 8 301 1191
4	27196 2809 156 1104 370.945110235314 2484.062142844828 104 19 122 7332 610636
5	30005 4089 156 1104 370.945110235314 2484.062142844828 104 0.171825889504 91.579969636728 2732.4568704023 128537.58248222
6	34094 3417 156 1104 370.945110235314 2484.062142844828 104 0 68.494124323772 1617.5379381894 75214.191467614
7	37511 9855 157 1055 376.777957947708 2394.973432391493 251 0 391.60802869805 33472.552980596 6842239.2237444
8	47366 5822 160 1056 385.028087712997 2395.0867514369 213 24 236 27690 4404982
9	53188 8418 160 1056 385.028087712997 2395.0867514369 213 0.054194240184 393.77810789888 29345.230316379 6096447.7026244
10	61606 1051 186 998 431.695952669617 2242.158972086936 38 8 45 1007 31255
11	62657 20 1111 1111 2500 2500 1 0.0944 0.0944 0.0944 0.00891136
12	62677 20 1111 1111 2500 2500 1 0.0488 0.0488 0.0488 0.00238144

