version 2
run experiments_hard_game_mode1-1725-20230311-19:45:52-13700
attr configname experiments_hard_game_mode1
attr datetime 20230311-19:45:52
attr experiment experiments_hard_game_mode1
attr inifile omnetpp.ini
attr iterationvars "$0=10, $1=6, $2=100"
attr iterationvarsf 10,6,100-
attr measurement "$0=10, $1=6, $2=100"
attr network Network
attr processid 13700
attr repetition 15
attr replication #15
attr resultdir results
attr runnumber 1725
attr seedset 15
param *.boss.arrival_mean 20
param *.boss.service_mean 10
param *.minion.arrival_mean 10
param *.minion.service_mean 6
param *.player.recover_rate_x 100
param **.minion.arrival_distribution 0
param **.minion.service_distribution 0
param **.boss.arrival_distribution 0
param **.boss.service_distribution 0

vector 0 Network.player minion_defeated_stat:vector ETV
attr source signal_minion_defeated
vector 1 Network.player minion_jobs_queue_number_stat:vector ETV
attr source signal_minion_jobs_queue_number
vector 2 Network.player minion_response_time_stat:vector ETV
attr source signal_minion_response_time
vector 3 Network.player minion_waiting_time_stat:vector ETV
attr source signal_minion_waiting_time
vector 4 Network.player minion_jobs_number_stat:vector ETV
attr source signal_minion_jobs_number
vector 5 Network.player boss_jobs_number_stat:vector ETV
attr source signal_boss_jobs_number
vector 6 Network.player boss_jobs_queue_number_stat:vector ETV
attr source signal_boss_jobs_queue_number
vector 7 Network.player minion_recovered_stat:vector ETV
attr source signal_minion_recovered
vector 8 Network.player boss_waiting_time_stat:vector ETV
attr source signal_boss_waiting_time
vector 9 Network.player boss_defeated_stat:vector ETV
attr source signal_boss_defeated
vector 10 Network.player boss_response_time_stat:vector ETV
attr source signal_boss_response_time
vector 11 Network.player minion_throughput:vector ETV
attr source signal_minion_throughput
vector 12 Network.player boss_throughput:vector ETV
attr source signal_boss_throughput
0	148	352.388021634002	23
0	149	352.715430494151	24
0	150	361.64416644613	25
0	151	365.263950861451	26
0	152	370.531874514399	27
0	155	374.397995781487	28
0	164	380.282335626386	29
0	165	384.831852885563	30
0	176	400.492029563614	31
0	179	407.098067891063	32
0	183	413.958252627406	33
0	184	415.944871425827	34
0	185	416.114178383503	35
0	186	426.71619949404	36
0	191	445.39526973529	37
0	196	453.033780889268	38
0	199	458.824988336976	39
0	200	459.466044756664	40
0	205	466.931106315506	41
0	206	475.832822159447	42
0	207	476.076961502866	43
0	210	486.526001330501	44
0	213	490.290255114286	45
0	218	502.200082723915	46
0	219	504.947536248827	47
0	220	507.426543105231	48
0	221	512.912643585606	49
0	222	513.976884050628	50
0	246	602.77291492146	51
0	247	610.465574803961	52
0	250	611.744640111432	53
0	251	612.239034930453	54
0	274	662.122626746641	55
0	280	686.462524793798	56
0	283	688.07716932505	57
0	286	692.26688729588	58
0	287	699.703795028278	59
0	290	704.806696568003	60
0	291	723.545560844189	61
0	292	723.762547486806	62
0	293	729.336434375508	63
0	299	741.826779495214	64
0	353	863.125661906454	65
0	354	866.798733989384	66
0	357	877.763314738505	67
0	366	909.962265225135	68
0	367	913.470955752436	69
0	368	914.282868210899	70
0	371	938.024529181736	71
0	372	940.468453481386	72
0	373	942.535983716138	73
0	374	946.099659719996	74
0	375	946.993138174789	75
0	376	950.32360942468	76
0	377	956.069275664661	77
0	400	1039.864165393829	78
0	405	1048.674176126764	79
0	408	1056.599626414291	80
0	409	1062.615156973023	81
0	415	1082.538049607037	82
0	416	1085.533704892967	83
0	417	1093.84404304043	84
0	420	1101.338760037278	85
0	421	1103.413570823825	86
0	424	1105.023724107311	87
0	425	1106.31086346728	88
0	433	1116.824227857702	89
0	521	1320.679141961659	90
0	526	1327.715328053483	91
0	529	1337.253889131225	92
0	530	1338.379871234881	93
0	533	1341.99220098138	94
0	536	1354.132608162356	95
0	561	1405.484386600583	96
0	562	1405.546781577918	97
0	563	1418.30882734112	98
0	566	1427.087996850235	99
0	567	1428.198574337701	100
0	568	1429.990387546688	101
0	569	1438.924907685503	102
0	570	1440.79894647935	103
0	571	1447.800496438901	104
0	572	1451.778397944364	105
0	573	1459.460149395804	106
0	579	1475.249430572732	107
0	580	1477.623277645125	108
0	581	1479.277220978393	109
0	582	1482.077232359702	110
0	583	1483.136654701098	111
0	586	1506.93082447691	112
0	589	1507.550950373339	113
0	595	1520.976852559575	114
0	601	1539.223450353025	115
0	610	1555.479924095528	116
0	611	1556.374179563499	117
0	615	1563.816044651304	118
0	616	1568.244909134785	119
0	784	1983.118786325923	120
0	785	1984.050979136917	121
0	786	1984.841879402317	122
0	791	1999.012204524146	123
0	794	1999.099408937985	124
0	800	2015.458736428756	125
0	803	2025.742152453741	126
0	809	2044.151912776868	127
0	821	2059.701615532911	128
0	825	2083.188069583513	129
0	835	2124.114381722317	130
0	836	2126.737107838683	131
0	841	2130.640657808177	132
0	900	2282.215608385214	133
0	907	2300.06288144073	134
0	908	2300.871417378772	135
0	909	2301.587462214146	136
0	916	2312.244828839798	137
1	148	352.388021634002	8
1	149	352.715430494151	7
1	150	361.64416644613	6
1	151	365.263950861451	5
1	152	370.531874514399	4
1	154	371.826817875947	4
1	155	374.397995781487	4
1	157	375.204235405122	4
1	159	377.298172037204	5
1	161	379.790286642821	6
1	163	380.230609116032	7
1	164	380.282335626386	7
1	165	384.831852885563	6
1	167	387.203879098344	6
1	174	391.229347065333	7
1	176	400.492029563614	7
1	178	401.337079352643	7
1	179	407.098067891063	7
1	183	413.958252627406	6
1	184	415.944871425827	5
1	185	416.114178383503	4
1	186	426.71619949404	3
1	188	430.971627895514	3
1	190	441.068770733571	4
1	191	445.39526973529	4
1	193	448.050399855302	4
1	195	448.888924557964	5
1	196	453.033780889268	5
1	198	454.227556541109	5
1	199	458.824988336976	5
1	200	459.466044756664	4
1	202	462.936757577674	4
1	204	464.451762827932	5
1	205	466.931106315506	5
1	206	475.832822159447	4
1	207	476.076961502866	3
1	209	482.727133777193	3
1	210	486.526001330501	3
1	212	489.852602183629	3
1	213	490.290255114286	3
1	215	493.320106480804	3
1	217	493.914777834505	4
1	218	502.200082723915	4
1	219	504.947536248827	3
1	220	507.426543105231	2
1	221	512.912643585606	1
1	222	513.976884050628	0
1	229	538.084897973558	0
1	237	568.068108626093	1
1	242	575.990958400427	2
1	244	578.702573058361	3
1	246	602.77291492146	3
1	247	610.465574803961	2
1	249	610.7389707722	2
1	250	611.744640111432	2
1	251	612.239034930453	1
1	257	624.032723864378	1
1	259	628.437748163353	2
1	261	632.97263080099	3
1	264	640.254734341694	4
1	266	640.695887759089	5
1	274	662.122626746641	5
1	278	684.935548120622	5
1	280	686.462524793798	5
1	282	687.234352540307	5
1	283	688.07716932505	5
1	285	689.519080182014	5
1	286	692.26688729588	5
1	287	699.703795028278	4
1	289	704.200972879936	4
1	290	704.806696568003	4
1	291	723.545560844189	3
1	292	723.762547486806	2
1	293	729.336434375508	1
1	298	741.520039975603	1
1	299	741.826779495214	1
1	304	747.111872888968	1
1	306	747.519356020626	2
1	310	754.49598639057	3
1	312	754.691145169041	4
1	321	776.699738878353	5
1	323	778.856667503739	6
1	326	788.444303878967	7
1	328	788.560835663689	8
1	331	795.722673952149	9
1	333	801.644344775313	10
1	338	815.141148630596	11
1	340	825.694875277944	12
1	344	840.294067758125	13
1	347	852.718307106967	14
1	350	858.599080122192	15
1	352	861.542904145574	16
1	353	863.125661906454	16
1	354	866.798733989384	15
1	356	868.457770801584	15
1	357	877.763314738505	15
1	361	882.893554056111	15
1	366	909.962265225135	15
1	367	913.470955752436	14
1	368	914.282868210899	13
1	370	926.05279973746	13
1	371	938.024529181736	13
1	372	940.468453481386	12
1	373	942.535983716138	11
1	374	946.099659719996	10
1	375	946.993138174789	9
1	376	950.32360942468	8
1	377	956.069275664661	7
1	381	960.038896334033	7
1	386	979.668927684915	8
1	392	987.320910046105	9
1	395	1020.590508529909	10
1	397	1026.226935838068	11
1	400	1039.864165393829	11
1	402	1039.984277950511	11
1	404	1046.913666967642	12
1	405	1048.674176126764	12
1	407	1052.038364967622	12
1	408	1056.599626414291	12
1	409	1062.615156973023	11
1	411	1066.569557467056	11
1	415	1082.538049607037	11
1	416	1085.533704892967	10
1	417	1093.84404304043	9
1	419	1100.326045239576	9
1	420	1101.338760037278	9
1	421	1103.413570823825	8
1	423	1104.2466734304	8
1	424	1105.023724107311	8
1	425	1106.31086346728	7
1	429	1112.442587626326	7
1	431	1114.2299387861	8
1	433	1116.824227857702	8
1	437	1118.135647238971	8
1	443	1127.76818682258	9
1	448	1140.20729168527	10
1	452	1150.419259773635	11
1	454	1150.904448295814	12
1	460	1166.309069574946	13
1	463	1170.082336151848	14
1	476	1196.357768476444	15
1	483	1215.008798311394	16
1	489	1233.215973103957	17
1	494	1260.276741563288	18
1	497	1293.194243100738	19
1	503	1300.896968081943	20
1	509	1308.945778575265	21
1	511	1308.979044421299	22
1	513	1309.277159462544	23
1	517	1314.520331515862	24
1	519	1316.066788270936	25
1	521	1320.679141961659	25
1	523	1320.765333269527	25
1	525	1327.150645960059	26
1	526	1327.715328053483	26
1	528	1328.031127684426	26
1	529	1337.253889131225	26
1	530	1338.379871234881	25
1	532	1339.491585654236	25
1	533	1341.99220098138	25
1	535	1352.475114614365	25
1	536	1354.132608162356	25
1	540	1364.13363146199	25
1	544	1371.158285571832	26
1	552	1384.107141602338	27
1	561	1405.484386600583	27
1	562	1405.546781577918	26
1	563	1418.30882734112	25
1	565	1418.936885028479	25
1	566	1427.087996850235	25
1	567	1428.198574337701	24
1	568	1429.990387546688	23
1	569	1438.924907685503	22
1	570	1440.79894647935	21
1	571	1447.800496438901	20
1	572	1451.778397944364	19
1	573	1459.460149395804	18
1	575	1464.418027804221	18
1	579	1475.249430572732	18
1	580	1477.623277645125	17
1	581	1479.277220978393	16
1	582	1482.077232359702	15
1	583	1483.136654701098	14
1	585	1501.945029561977	14
1	586	1506.93082447691	14
1	588	1506.932012075696	14
1	589	1507.550950373339	14
1	591	1517.880315896348	14
1	595	1520.976852559575	14
1	599	1525.082716663788	14
1	601	1539.223450353025	14
1	605	1543.972980506721	14
1	610	1555.479924095528	14
1	611	1556.374179563499	13
1	615	1563.816044651304	12
1	616	1568.244909134785	11
1	620	1569.345582476976	11
1	622	1579.443043964117	12
1	624	1584.329791524	13
1	628	1600.799091286596	14
1	630	1606.721743988844	15
1	632	1613.949102073124	16
1	634	1619.887335542117	17
1	638	1621.238325743434	18
1	642	1624.293827027984	19
1	647	1627.074985573891	20
1	653	1653.501067248497	21
1	655	1656.343140671346	22
1	658	1663.600535998356	23
1	664	1674.147678786224	24
1	670	1685.057938417324	25
1	672	1686.872387944786	26
1	680	1704.727388513786	27
1	690	1720.817587341622	28
1	692	1720.851821911813	29
1	694	1721.875092015846	30
1	698	1730.623533501388	31
1	701	1740.494285760169	32
1	704	1747.191320148696	33
1	711	1769.041783171634	34
1	713	1772.238368202655	35
1	717	1783.865888442547	36
1	722	1787.116090628544	37
1	724	1801.548290900282	38
1	728	1817.786885588567	39
1	731	1836.472723805444	40
1	733	1842.333637209256	41
1	737	1849.089516210132	42
1	739	1853.02858545257	43
1	741	1853.230025866942	44
1	745	1862.920968399841	45
1	755	1890.057369822562	46
1	758	1899.315603681918	47
1	763	1914.229000570631	48
1	766	1921.035654512079	49
1	769	1940.076656379331	50
1	771	1952.507178452678	51
1	779	1970.708264125649	52
1	782	1979.686709005919	53
1	784	1983.118786325923	53
1	785	1984.050979136917	52
1	786	1984.841879402317	51
1	788	1988.849426758076	51
1	790	1995.314312408796	52
1	791	1999.012204524146	52
1	793	1999.052205509423	52
1	794	1999.099408937985	52
1	798	2004.408034673664	52
1	800	2015.458736428756	52
1	802	2017.972186517163	52
1	803	2025.742152453741	52
1	807	2032.090965977135	52
1	809	2044.151912776868	52
1	811	2048.900328082947	52
1	813	2049.16753866172	53
1	817	2050.848902930746	54
1	820	2055.903255434299	55
1	821	2059.701615532911	55
1	825	2083.188069583513	54
1	827	2089.551820567039	54
1	829	2096.610071908613	55
1	833	2114.163439664741	56
1	835	2124.114381722317	56
1	836	2126.737107838683	55
1	838	2127.71405147405	55
1	840	2130.232032826984	56
1	841	2130.640657808177	56
1	845	2137.018954725423	56
1	847	2142.337046105647	57
1	851	2160.789530527783	58
1	853	2162.834948109455	59
1	855	2162.884150066935	60
1	857	2168.535605100417	61
1	859	2170.37907985514	62
1	864	2171.509863828659	63
1	868	2180.715420786649	64
1	870	2182.527633875887	65
1	874	2192.935543579677	66
1	876	2205.443338955943	67
1	879	2216.213132329422	68
1	888	2238.31625459085	69
1	892	2246.193608276171	70
1	894	2256.730833752014	71
1	896	2258.836453060927	72
1	900	2282.215608385214	72
1	902	2294.968714434799	72
1	904	2296.719792457182	73
1	906	2299.294790536736	74
1	907	2300.06288144073	74
1	908	2300.871417378772	73
1	909	2301.587462214146	72
1	911	2301.667201606868	72
1	913	2305.487069274372	73
1	915	2311.782884945681	74
1	916	2312.244828839798	74
1	918	2314.310374183725	74
1	920	2314.622892967314	75
1	924	2320.559193660386	76
1	928	2324.498304216889	77
1	930	2330.581500241578	78
1	934	2335.259599055678	79
1	937	2344.568282050413	80
1	942	2368.737787171397	81
1	944	2369.786074804619	82
1	948	2372.326647240349	83
1	954	2377.320734082424	84
1	956	2378.947451240048	85
1	964	2395.340590741336	86
1	966	2406.174800840362	87
1	975	2443.066247245712	88
1	978	2460.981316128341	89
1	980	2466.82704072236	90
1	982	2469.544771188598	91
1	985	2472.798552947363	92
1	987	2479.385398736609	93
1	989	2485.321044617593	94
2	148	352.388021634002	110.05118654215
2	149	352.715430494151	73.558088075931
2	150	361.64416644613	44.272407571606
2	151	365.263950861451	37.232300328501
2	152	370.531874514399	37.335964285503
2	155	374.397995781487	39.791747227402
2	164	380.282335626386	41.603289066883
2	165	384.831852885563	44.399705431489
2	176	400.492029563614	28.665211687667
2	179	407.098067891063	31.893832485941
2	183	413.958252627406	34.167965984585
2	184	415.944871425827	35.714262309795
2	185	416.114178383503	28.910299285159
2	186	426.71619949404	36.52411422442
2	191	445.39526973529	54.165922669957
2	196	453.033780889268	51.696701536625
2	199	458.824988336976	51.385456115067
2	200	459.466044756664	28.49441686115
2	205	466.931106315506	25.862335581935
2	206	475.832822159447	27.782422304145
2	207	476.076961502866	27.188036944902
2	210	486.526001330501	32.298444789392
2	213	490.290255114286	27.353497536612
2	218	502.200082723915	37.748319895983
2	219	504.947536248827	22.220402471634
2	220	507.426543105231	17.573940921602
2	221	512.912643585606	19.592537104802
2	222	513.976884050628	20.062106216123
2	246	602.77291492146	34.704806295367
2	247	610.465574803961	34.799412528182
2	250	611.744640111432	35.753681711005
2	251	612.239034930453	33.536461872092
2	274	662.122626746641	33.684878583288
2	280	686.462524793798	46.207790452104
2	283	688.07716932505	47.381281565961
2	286	692.26688729588	45.195694784304
2	287	699.703795028278	48.075002677622
2	290	704.806696568003	39.540948016073
2	291	723.545560844189	38.610012723567
2	292	723.762547486806	36.528194946499
2	293	729.336434375508	39.817354193494
2	299	741.826779495214	11.103615017991
2	353	863.125661906454	116.01378901749
2	354	866.798733989384	119.27937796876
2	357	877.763314738505	125.95891265128
2	366	909.962265225135	155.27112005609
2	367	913.470955752436	136.77121687408
2	368	914.282868210899	135.42620070716
2	371	938.024529181736	149.58022530277
2	372	940.468453481386	151.9076178177
2	373	942.535983716138	146.81330976399
2	374	946.099659719996	144.45531494468
2	375	946.993138174789	131.85198954419
2	376	950.32360942468	124.62873414674
2	377	956.069275664661	115.77520790654
2	400	1039.864165393829	181.26508527164
2	405	1048.674176126764	187.13127198119
2	408	1056.599626414291	188.14185561271
2	409	1062.615156973023	182.51411924925
2	415	1082.538049607037	156.48524986958
2	416	1085.533704892967	126.54702230499
2	417	1093.84404304043	133.8051467064
2	420	1101.338760037278	121.66983235236
2	421	1103.413570823825	116.09266077772
2	424	1105.023724107311	84.433215577402
2	425	1106.31086346728	80.083927629212
2	433	1116.824227857702	69.91056089006
2	521	1320.679141961659	216.43246853126
2	526	1327.715328053483	220.25125372004
2	529	1337.253889131225	224.8113015049
2	530	1338.379871234881	224.14993244878
2	533	1341.99220098138	224.20835145309
2	536	1354.132608162356	235.99696092338
2	561	1405.484386600583	265.27709491531
2	562	1405.546781577918	255.12752180428
2	563	1418.30882734112	267.40437904531
2	566	1427.087996850235	260.77892727529
2	567	1428.198574337701	258.11623818585
2	568	1429.990387546688	233.63261907024
2	569	1438.924907685503	223.91610937411
2	570	1440.79894647935	207.58297337539
2	571	1447.800496438901	187.52375487561
2	572	1451.778397944364	158.58415484363
2	573	1459.460149395804	160.80976010392
2	579	1475.249430572732	167.12434449669
2	580	1477.623277645125	168.67749906986
2	581	1479.277220978393	170.29817655709
2	582	1482.077232359702	172.80007289716
2	583	1483.136654701098	172.84828169635
2	586	1506.93082447691	192.41049296105
2	589	1507.550950373339	191.4841621024
2	595	1520.976852559575	193.82620659952
2	601	1539.223450353025	199.73186469879
2	610	1555.479924095528	195.68337509229
2	611	1556.374179563499	192.24054810151
2	615	1563.816044651304	179.70890304897
2	616	1568.244909134785	149.30802410631
2	784	1983.118786325923	517.92550315505
2	785	1984.050979136917	482.10594957494
2	786	1984.841879402317	477.90986732662
2	791	1999.012204524146	481.1318886278
2	794	1999.099408937985	481.05087512554
2	800	2015.458736428756	490.37601976497
2	803	2025.742152453741	484.31325689943
2	809	2044.151912776868	487.09445423469
2	821	2059.701615532911	490.35603305593
2	825	2083.188069583513	498.85827805951
2	835	2124.114381722317	517.39263773347
2	836	2126.737107838683	512.78800576556
2	841	2130.640657808177	510.75332226606
2	900	2282.215608385214	657.92178135723
2	907	2300.06288144073	672.98789586684
2	908	2300.871417378772	647.37035013028
2	909	2301.587462214146	645.2443215428
2	916	2312.244828839798	648.64429284144
3	148	352.388021634002	73.230679215782
3	149	352.715430494151	35.343671619627
3	150	361.64416644613	33.61251591318
3	151	365.263950861451	32.068040632555
3	152	370.531874514399	35.925625960314
3	155	374.397995781487	35.718949221984
3	164	380.282335626386	39.850188172312
3	165	384.831852885563	37.461634835491
3	175	397.130619458553	25.303801582606
3	176	400.492029563614	25.287794158492
3	179	407.098067891063	29.799895853859
3	182	413.446024416266	33.655737773445
3	183	413.958252627406	33.727643511374
3	184	415.944871425827	28.740992327483
3	185	416.114178383503	25.922093113883
3	186	426.71619949404	35.486852428707
3	191	445.39526973529	44.058190382647
3	196	453.033780889268	45.594248667359
3	199	458.824988336976	27.853360441462
3	200	459.466044756664	18.397274023093
3	205	466.931106315506	18.880706460204
3	206	475.832822159447	26.943897601483
3	207	476.076961502866	21.849404961757
3	210	486.526001330501	23.589243752827
3	213	490.290255114286	25.838492286354
3	218	502.200082723915	19.472948946722
3	219	504.947536248827	15.094934065198
3	220	507.426543105231	14.106436624427
3	221	512.912643585606	18.997865751101
3	238	575.066835706247	36.981937732689
3	245	595.481424177085	27.413315550992
3	246	602.77291492146	27.106752645681
3	247	610.465574803961	34.474616403534
3	250	611.744640111432	33.042067053071
3	251	612.239034930453	1.500064158253
3	267	646.046836105451	33.204735927943
3	270	650.284490323762	26.251766459384
3	273	660.055477275504	31.617729112151
3	274	662.122626746641	29.149995945651
3	279	685.561136209021	45.306401867327
3	280	686.462524793798	45.766637034709
3	283	688.07716932505	41.005976813474
3	286	692.26688729588	40.638094945224
3	287	699.703795028278	34.438046476348
3	290	704.806696568003	19.871148447381
3	291	723.545560844189	36.311208303882
3	292	723.762547486806	34.243467304792
3	293	729.336434375508	25.135461495572
3	296	730.776025436502	0.052860959279
3	299	741.826779495214	0.306739519611
3	302	746.940404463577	0.220201080158
3	348	857.931399634493	110.81952674552
3	353	863.125661906454	115.60630588583
3	354	866.798733989384	114.99433190216
3	357	877.763314738505	123.26732834793
3	365	909.695525874504	155.00438070546
3	366	909.962265225135	133.26252634678
3	367	913.470955752436	134.6142882487
3	368	914.282868210899	125.83856433193
3	371	938.024529181736	149.46369351805
3	372	940.468453481386	144.74577952924
3	373	942.535983716138	140.89163894083
3	374	946.099659719996	130.9585110894
3	375	946.993138174789	121.29826289685
3	376	950.32360942468	110.02954166655
3	377	956.069275664661	103.35096855769
3	399	1037.650034984079	179.05095486189
3	400	1039.864165393829	178.32126124825
3	405	1048.674176126764	180.21640532518
3	408	1056.599626414291	176.49858869051
3	409	1062.615156973023	179.72160291691
3	414	1073.847565352052	147.79476561459
3	415	1082.538049607037	123.55136701906
3	416	1085.533704892967	125.49480855893
3	417	1093.84404304043	114.17511535552
3	420	1101.338760037278	114.01784999117
3	421	1103.413570823825	82.823062293916
3	424	1105.023724107311	78.796788269243
3	425	1106.31086346728	66.326585516769
3	432	1115.012867112774	68.099200145132
3	433	1116.824227857702	64.78586289008
3	499	1297.824253498138	231.25469603108
3	504	1302.42855546205	230.73102726992
3	507	1308.383094644484	208.05704940491
3	520	1317.043349750514	212.79667632011
3	521	1320.679141961659	213.21506762821
3	526	1327.715328053483	215.27274042716
3	529	1337.253889131225	223.02395034513
3	530	1338.379871234881	220.59602170659
3	533	1341.99220098138	223.85655374241
3	536	1354.132608162356	226.36442133978
3	560	1404.063455424315	263.85616373904
3	561	1405.484386600583	255.06512682695
3	562	1405.546781577918	254.6423332821
3	563	1418.30882734112	251.99975776617
3	566	1427.087996850235	257.00566069839
3	567	1428.198574337701	231.84080586126
3	568	1429.990387546688	214.98158923529
3	569	1438.924907685503	205.70893458155
3	570	1440.79894647935	180.52220491606
3	571	1447.800496438901	154.60625333816
3	572	1451.778397944364	153.12800865248
3	573	1459.460149395804	158.56318131386
3	578	1468.577029428623	160.45194335258
3	579	1475.249430572732	166.30365199747
3	580	1477.623277645125	168.64423322383
3	581	1479.277220978393	170.00006151585
3	582	1482.077232359702	171.78885935495
3	583	1483.136654701098	168.61632318524
3	586	1506.93082447691	190.86403620597
3	589	1507.550950373339	186.78561710381
3	594	1520.738605198079	193.58795923802
3	595	1520.976852559575	192.94572487515
3	600	1537.978153747246	198.48656809301
3	601	1539.223450353025	186.74833573866
3	609	1554.507908125516	194.71135912227
3	610	1555.479924095528	191.34629263354
3	611	1556.374179563499	185.21589399167
3	614	1561.317381760871	177.21024015853
3	615	1563.816044651304	144.87915962283
3	616	1568.244909134785	103.82688133056
3	783	1982.070470550673	516.8771873798
3	784	1983.118786325923	481.17375676395
3	785	1984.050979136917	477.11896706122
3	786	1984.841879402317	466.96156350597
3	791	1999.012204524146	480.9636707117
3	794	1999.099408937985	476.98410801887
3	799	2008.859832117201	483.77711545341
3	800	2015.458736428756	474.02984087444
3	803	2025.742152453741	481.76917194702
3	808	2041.790383486345	484.73292494417
3	809	2044.151912776868	475.82036118394
3	818	2054.598615718021	485.25303324104
3	821	2059.701615532911	480.25857156879
3	824	2075.364224592356	491.03443306836
3	825	2083.188069583513	482.38897829692
3	834	2120.586831592418	513.86508760357
3	835	2124.114381722317	510.16527964919
3	836	2126.737107838683	506.84977229657
3	841	2130.640657808177	509.40233206474
3	899	2280.526506992827	656.23267996484
3	900	2282.215608385214	655.14062281132
3	907	2300.06288144073	646.56181419223
3	908	2300.871417378772	644.52827670743
3	909	2301.587462214146	637.98692621579
3	916	2312.244828839798	638.09715005357
4	154	371.826817875947	5
4	157	375.204235405122	5
4	159	377.298172037204	6
4	161	379.790286642821	7
4	163	380.230609116032	8
4	167	387.203879098344	7
4	174	391.229347065333	8
4	178	401.337079352643	8
4	188	430.971627895514	4
4	190	441.068770733571	5
4	193	448.050399855302	5
4	195	448.888924557964	6
4	198	454.227556541109	6
4	202	462.936757577674	5
4	204	464.451762827932	6
4	209	482.727133777193	4
4	212	489.852602183629	4
4	215	493.320106480804	4
4	217	493.914777834505	5
4	229	538.084897973558	1
4	237	568.068108626093	2
4	242	575.990958400427	3
4	244	578.702573058361	4
4	249	610.7389707722	3
4	257	624.032723864378	2
4	259	628.437748163353	3
4	261	632.97263080099	4
4	264	640.254734341694	5
4	266	640.695887759089	6
4	278	684.935548120622	6
4	282	687.234352540307	6
4	285	689.519080182014	6
4	289	704.200972879936	5
4	298	741.520039975603	2
4	304	747.111872888968	2
4	306	747.519356020626	3
4	310	754.49598639057	4
4	312	754.691145169041	5
4	321	776.699738878353	6
4	323	778.856667503739	7
4	326	788.444303878967	8
4	328	788.560835663689	9
4	331	795.722673952149	10
4	333	801.644344775313	11
4	338	815.141148630596	12
4	340	825.694875277944	13
4	344	840.294067758125	14
4	347	852.718307106967	15
4	350	858.599080122192	16
4	352	861.542904145574	17
4	356	868.457770801584	16
4	361	882.893554056111	16
4	370	926.05279973746	14
4	381	960.038896334033	8
4	386	979.668927684915	9
4	392	987.320910046105	10
4	395	1020.590508529909	11
4	397	1026.226935838068	12
4	402	1039.984277950511	12
4	404	1046.913666967642	13
4	407	1052.038364967622	13
4	411	1066.569557467056	12
4	419	1100.326045239576	10
4	423	1104.2466734304	9
4	429	1112.442587626326	8
4	431	1114.2299387861	9
4	437	1118.135647238971	9
4	443	1127.76818682258	10
4	448	1140.20729168527	11
4	452	1150.419259773635	12
4	454	1150.904448295814	13
4	460	1166.309069574946	14
4	463	1170.082336151848	15
4	476	1196.357768476444	16
4	483	1215.008798311394	17
4	489	1233.215973103957	18
4	494	1260.276741563288	19
4	497	1293.194243100738	20
4	503	1300.896968081943	21
4	509	1308.945778575265	22
4	511	1308.979044421299	23
4	513	1309.277159462544	24
4	517	1314.520331515862	25
4	519	1316.066788270936	26
4	523	1320.765333269527	26
4	525	1327.150645960059	27
4	528	1328.031127684426	27
4	532	1339.491585654236	26
4	535	1352.475114614365	26
4	540	1364.13363146199	26
4	544	1371.158285571832	27
4	552	1384.107141602338	28
4	565	1418.936885028479	26
4	575	1464.418027804221	19
4	585	1501.945029561977	15
4	588	1506.932012075696	15
4	591	1517.880315896348	15
4	599	1525.082716663788	15
4	605	1543.972980506721	15
4	620	1569.345582476976	12
4	622	1579.443043964117	13
4	624	1584.329791524	14
4	628	1600.799091286596	15
4	630	1606.721743988844	16
4	632	1613.949102073124	17
4	634	1619.887335542117	18
4	638	1621.238325743434	19
4	642	1624.293827027984	20
4	647	1627.074985573891	21
4	653	1653.501067248497	22
4	655	1656.343140671346	23
4	658	1663.600535998356	24
4	664	1674.147678786224	25
4	670	1685.057938417324	26
4	672	1686.872387944786	27
4	680	1704.727388513786	28
4	690	1720.817587341622	29
4	692	1720.851821911813	30
4	694	1721.875092015846	31
4	698	1730.623533501388	32
4	701	1740.494285760169	33
4	704	1747.191320148696	34
4	711	1769.041783171634	35
4	713	1772.238368202655	36
4	717	1783.865888442547	37
4	722	1787.116090628544	38
4	724	1801.548290900282	39
4	728	1817.786885588567	40
4	731	1836.472723805444	41
4	733	1842.333637209256	42
4	737	1849.089516210132	43
4	739	1853.02858545257	44
4	741	1853.230025866942	45
4	745	1862.920968399841	46
4	755	1890.057369822562	47
4	758	1899.315603681918	48
4	763	1914.229000570631	49
4	766	1921.035654512079	50
4	769	1940.076656379331	51
4	771	1952.507178452678	52
4	779	1970.708264125649	53
4	782	1979.686709005919	54
4	788	1988.849426758076	52
4	790	1995.314312408796	53
4	793	1999.052205509423	53
4	798	2004.408034673664	53
4	802	2017.972186517163	53
4	807	2032.090965977135	53
4	811	2048.900328082947	53
4	813	2049.16753866172	54
4	817	2050.848902930746	55
4	820	2055.903255434299	56
4	827	2089.551820567039	55
4	829	2096.610071908613	56
4	833	2114.163439664741	57
4	838	2127.71405147405	56
4	840	2130.232032826984	57
4	845	2137.018954725423	57
4	847	2142.337046105647	58
4	851	2160.789530527783	59
4	853	2162.834948109455	60
4	855	2162.884150066935	61
4	857	2168.535605100417	62
4	859	2170.37907985514	63
4	864	2171.509863828659	64
4	868	2180.715420786649	65
4	870	2182.527633875887	66
4	874	2192.935543579677	67
4	876	2205.443338955943	68
4	879	2216.213132329422	69
4	888	2238.31625459085	70
4	892	2246.193608276171	71
4	894	2256.730833752014	72
4	896	2258.836453060927	73
4	902	2294.968714434799	73
4	904	2296.719792457182	74
4	906	2299.294790536736	75
4	911	2301.667201606868	73
4	913	2305.487069274372	74
4	915	2311.782884945681	75
4	918	2314.310374183725	75
4	920	2314.622892967314	76
4	924	2320.559193660386	77
4	928	2324.498304216889	78
4	930	2330.581500241578	79
4	934	2335.259599055678	80
4	937	2344.568282050413	81
4	942	2368.737787171397	82
4	944	2369.786074804619	83
4	948	2372.326647240349	84
4	954	2377.320734082424	85
4	956	2378.947451240048	86
4	964	2395.340590741336	87
4	966	2406.174800840362	88
4	975	2443.066247245712	89
4	978	2460.981316128341	90
4	980	2466.82704072236	91
4	982	2469.544771188598	92
4	985	2472.798552947363	93
4	987	2479.385398736609	94
4	989	2485.321044617593	95
5	169	390.19208526962	1
5	171	390.552455599804	2
5	181	407.439532221909	1
5	224	518.507968548388	1
5	226	522.173620324886	2
5	231	548.748816733117	2
5	233	550.067618500052	3
5	240	575.666162275779	1
5	253	612.842100177508	1
5	255	623.411592726827	2
5	269	647.071192511576	1
5	272	651.628792350656	1
5	276	665.26574855193	1
5	295	730.723164477223	1
5	301	746.720203383419	1
5	308	751.804402087226	1
5	314	761.533052013322	2
5	316	762.512293667094	3
5	318	766.941994342124	4
5	335	809.99896328964	2
5	342	836.11272726403	2
5	359	880.101037723776	1
5	363	893.1674807599	2
5	379	958.986682587974	1
5	383	961.113788177775	2
5	388	980.006287846102	2
5	390	986.58770618071	3
5	413	1071.697528192129	1
5	427	1107.464074333445	1
5	435	1117.78384952829	1
5	439	1121.017381211308	2
5	441	1124.43115273652	3
5	445	1130.82600363503	4
5	450	1148.533918641737	4
5	456	1164.363948844049	5
5	465	1174.071106898272	3
5	467	1175.776090639092	4
5	469	1182.736178667829	5
5	471	1185.782939051587	6
5	473	1186.137599269998	7
5	481	1214.244314790628	4
5	487	1226.823743164412	3
5	491	1250.476709292462	4
5	501	1298.650389291879	1
5	506	1308.125086076041	1
5	515	1310.28837300475	1
5	538	1359.796549003241	1
5	542	1370.990339914893	2
5	547	1378.159707347523	2
5	550	1380.964876480297	2
5	554	1386.732170890961	3
5	556	1389.108069391996	4
5	577	1465.193283170876	1
5	593	1518.048533812449	1
5	597	1522.115300919114	1
5	603	1541.428895554315	1
5	607	1550.738110740724	2
5	613	1557.057458542175	1
5	618	1568.331551592928	1
5	626	1594.882472076587	2
5	636	1619.894738349259	3
5	640	1624.084042264992	4
5	644	1626.210616034251	5
5	649	1632.846757884736	5
5	660	1664.490478429722	3
5	662	1671.38165525371	4
5	666	1675.267107061551	5
5	675	1689.847971375368	3
5	678	1702.746913519538	3
5	682	1712.497602514756	4
5	685	1714.363548584924	4
5	688	1719.6409964056	4
5	696	1722.58306476235	5
5	706	1755.40584379679	4
5	709	1762.461127702236	4
5	720	1787.059466435055	2
5	726	1809.486314153089	3
5	735	1847.391152781413	3
5	743	1857.225048866429	4
5	747	1866.271830798015	5
5	750	1878.578067492393	5
5	753	1886.757159903634	5
5	760	1903.265596083928	5
5	773	1956.425399870298	3
5	777	1969.834502793289	2
5	796	1999.57917616298	1
5	805	2031.530575653383	1
5	815	2049.403337861292	1
5	823	2069.148904070772	1
5	831	2112.867149498668	1
5	843	2134.440791909142	1
5	849	2157.212802221385	2
5	862	2171.380613717592	2
5	866	2171.740503012916	3
5	872	2187.341514577323	4
5	881	2219.535531233618	4
5	883	2223.8424989331	5
5	890	2245.658919910221	3
5	922	2315.1814443388	1
5	926	2322.283976249027	2
5	932	2331.248097080117	3
5	939	2346.228359067299	3
5	946	2370.716186367381	3
5	950	2375.068077861533	4
5	952	2375.806323096909	5
5	958	2379.965256529779	6
5	960	2385.250852286311	7
5	968	2413.808996696861	6
5	970	2423.704403934987	7
5	973	2439.323409864084	7
6	169	390.19208526962	0
6	171	390.552455599804	1
6	172	391.118198328937	1
6	175	397.130619458553	0
6	181	407.439532221909	0
6	182	413.446024416266	0
6	224	518.507968548388	0
6	226	522.173620324886	1
6	227	533.352974131096	1
6	231	548.748816733117	1
6	233	550.067618500052	2
6	234	556.004878995599	2
6	235	567.465524005817	1
6	238	575.066835706247	0
6	240	575.666162275779	0
6	245	595.481424177085	0
6	253	612.842100177508	0
6	255	623.411592726827	1
6	262	639.998311572451	1
6	267	646.046836105451	0
6	269	647.071192511576	0
6	270	650.284490323762	0
6	272	651.628792350656	0
6	273	660.055477275504	0
6	276	665.26574855193	0
6	279	685.561136209021	0
6	295	730.723164477223	0
6	296	730.776025436502	0
6	301	746.720203383419	0
6	302	746.940404463577	0
6	308	751.804402087226	0
6	314	761.533052013322	1
6	316	762.512293667094	2
6	318	766.941994342124	3
6	319	772.560827201072	3
6	324	784.671976288148	2
6	329	793.296617113777	1
6	335	809.99896328964	1
6	336	812.646270259556	1
6	342	836.11272726403	1
6	345	841.692229350027	1
6	348	857.931399634493	0
6	359	880.101037723776	0
6	363	893.1674807599	1
6	364	902.337563845851	1
6	365	909.695525874504	0
6	379	958.986682587974	0
6	383	961.113788177775	1
6	384	970.439936192264	1
6	388	980.006287846102	1
6	390	986.58770618071	2
6	393	1015.331913896704	2
6	398	1037.436616024956	1
6	399	1037.650034984079	0
6	413	1071.697528192129	0
6	414	1073.847565352052	0
6	427	1107.464074333445	0
6	432	1115.012867112774	0
6	435	1117.78384952829	0
6	439	1121.017381211308	1
6	441	1124.43115273652	2
6	445	1130.82600363503	3
6	446	1134.007028412366	3
6	450	1148.533918641737	3
6	456	1164.363948844049	4
6	457	1164.637823128674	4
6	458	1164.874711489807	3
6	461	1168.853377268973	2
6	465	1174.071106898272	2
6	467	1175.776090639092	3
6	469	1182.736178667829	4
6	471	1185.782939051587	5
6	473	1186.137599269998	6
6	474	1194.165823685857	6
6	477	1196.749850912367	5
6	478	1207.809373696937	4
6	479	1208.913777435145	3
6	481	1214.244314790628	3
6	484	1222.46750363704	3
6	485	1224.641579071014	2
6	487	1226.823743164412	2
6	491	1250.476709292462	3
6	492	1258.422488487881	3
6	495	1292.326539302756	2
6	498	1297.431912653494	1
6	499	1297.824253498138	0
6	501	1298.650389291879	0
6	504	1302.42855546205	0
6	506	1308.125086076041	0
6	507	1308.383094644484	0
6	515	1310.28837300475	0
6	520	1317.043349750514	0
6	538	1359.796549003241	0
6	542	1370.990339914893	1
6	545	1375.620106597013	1
6	547	1378.159707347523	1
6	548	1379.124691241884	1
6	550	1380.964876480297	1
6	554	1386.732170890961	2
6	556	1389.108069391996	3
6	557	1390.858736395983	3
6	558	1398.655310358344	2
6	559	1400.59489939115	1
6	560	1404.063455424315	0
6	577	1465.193283170876	0
6	578	1468.577029428623	0
6	593	1518.048533812449	0
6	594	1520.738605198079	0
6	597	1522.115300919114	0
6	600	1537.978153747246	0
6	603	1541.428895554315	0
6	607	1550.738110740724	1
6	608	1553.455149462903	1
6	609	1554.507908125516	0
6	613	1557.057458542175	0
6	614	1561.317381760871	0
6	618	1568.331551592928	0
6	626	1594.882472076587	1
6	636	1619.894738349259	2
6	640	1624.084042264992	3
6	644	1626.210616034251	4
6	645	1626.767224349667	4
6	649	1632.846757884736	4
6	650	1632.908070423757	4
6	651	1650.948394501144	3
6	656	1660.17170630485	2
6	660	1664.490478429722	2
6	662	1671.38165525371	3
6	666	1675.267107061551	4
6	667	1682.971964709084	4
6	668	1684.139934375323	3
6	673	1689.346502670944	2
6	675	1689.847971375368	2
6	676	1694.482504982523	2
6	678	1702.746913519538	2
6	682	1712.497602514756	3
6	683	1714.071267073509	3
6	685	1714.363548584924	3
6	686	1717.107582813619	3
6	688	1719.6409964056	3
6	696	1722.58306476235	4
6	699	1731.884189348514	4
6	702	1741.01259237592	3
6	706	1755.40584379679	3
6	707	1756.666006729659	3
6	709	1762.461127702236	3
6	714	1780.762271698698	3
6	715	1783.604637338706	2
6	718	1785.602324299285	1
6	720	1787.059466435055	1
6	726	1809.486314153089	2
6	729	1830.957686884121	2
6	735	1847.391152781413	2
6	743	1857.225048866429	3
6	747	1866.271830798015	4
6	748	1873.973423811954	4
6	750	1878.578067492393	4
6	751	1885.791412971681	4
6	753	1886.757159903634	4
6	756	1897.415383923316	4
6	760	1903.265596083928	4
6	761	1908.687067283518	4
6	764	1916.85405240421	3
6	767	1931.118447100715	2
6	773	1956.425399870298	2
6	774	1959.561583856588	2
6	775	1959.912900506041	1
6	777	1969.834502793289	1
6	780	1971.026100931683	1
6	783	1982.070470550673	0
6	796	1999.57917616298	0
6	799	2008.859832117201	0
6	805	2031.530575653383	0
6	808	2041.790383486345	0
6	815	2049.403337861292	0
6	818	2054.598615718021	0
6	823	2069.148904070772	0
6	824	2075.364224592356	0
6	831	2112.867149498668	0
6	834	2120.586831592418	0
6	843	2134.440791909142	0
6	849	2157.212802221385	1
6	860	2171.273772009366	1
6	862	2171.380613717592	1
6	866	2171.740503012916	2
6	872	2187.341514577323	3
6	877	2205.622955035872	3
6	881	2219.535531233618	3
6	883	2223.8424989331	4
6	884	2233.707644079314	4
6	885	2234.270495307538	3
6	886	2237.299189827106	2
6	890	2245.658919910221	2
6	897	2261.653382343978	2
6	898	2261.747934119114	1
6	899	2280.526506992827	0
6	922	2315.1814443388	0
6	926	2322.283976249027	1
6	932	2331.248097080117	2
6	935	2336.903654194086	2
6	939	2346.228359067299	2
6	940	2367.479903357686	2
6	946	2370.716186367381	2
6	950	2375.068077861533	3
6	952	2375.806323096909	4
6	958	2379.965256529779	5
6	960	2385.250852286311	6
6	961	2387.160294403977	6
6	962	2387.186125984128	5
6	968	2413.808996696861	5
6	970	2423.704403934987	6
6	971	2435.307205014108	6
6	973	2439.323409864084	6
6	976	2460.295181510609	6
6	983	2471.164921879027	5
6	990	2488.523100251252	4
6	991	2499.946033898474	3
7	169	390.19208526962	12
7	181	407.439532221909	13
7	240	575.666162275779	14
7	253	612.842100177508	15
7	269	647.071192511576	16
7	272	651.628792350656	17
7	276	665.26574855193	18
7	295	730.723164477223	19
7	301	746.720203383419	20
7	308	751.804402087226	21
7	359	880.101037723776	22
7	379	958.986682587974	23
7	413	1071.697528192129	24
7	427	1107.464074333445	25
7	435	1117.78384952829	26
7	501	1298.650389291879	27
7	506	1308.125086076041	28
7	515	1310.28837300475	29
7	538	1359.796549003241	30
7	577	1465.193283170876	31
7	593	1518.048533812449	32
7	597	1522.115300919114	33
7	603	1541.428895554315	34
7	613	1557.057458542175	35
7	618	1568.331551592928	36
7	796	1999.57917616298	37
7	805	2031.530575653383	38
7	815	2049.403337861292	39
7	823	2069.148904070772	40
7	831	2112.867149498668	41
7	843	2134.440791909142	42
7	922	2315.1814443388	43
8	169	390.19208526962	0
8	172	391.118198328937	0.565742729133
8	181	407.439532221909	0
8	224	518.507968548388	0
8	227	533.352974131096	11.17935380621
8	234	556.004878995599	7.256062262482
8	235	567.465524005817	17.397905505765
8	240	575.666162275779	0
8	253	612.842100177508	0
8	262	639.998311572451	16.586718845624
8	269	647.071192511576	0
8	272	651.628792350656	0
8	276	665.26574855193	0
8	295	730.723164477223	0
8	301	746.720203383419	0
8	308	751.804402087226	0
8	319	772.560827201072	11.02777518775
8	324	784.671976288148	22.159682621054
8	329	793.296617113777	26.354622771653
8	336	812.646270259556	2.647306969916
8	345	841.692229350027	5.579502085997
8	359	880.101037723776	0
8	364	902.337563845851	9.170083085951
8	379	958.986682587974	0
8	384	970.439936192264	9.326148014489
8	393	1015.331913896704	35.325626050602
8	398	1037.436616024956	50.848909844246
8	413	1071.697528192129	0
8	427	1107.464074333445	0
8	435	1117.78384952829	0
8	446	1134.007028412366	12.989647201058
8	457	1164.637823128674	40.206670392154
8	458	1164.874711489807	34.048707854777
8	461	1168.853377268973	20.319458627236
8	474	1194.165823685857	29.801874841808
8	477	1196.749850912367	22.678744014095
8	478	1207.809373696937	32.033283057845
8	479	1208.913777435145	26.177598767316
8	484	1222.46750363704	36.684564585453
8	485	1224.641579071014	38.503979801016
8	492	1258.422488487881	44.178173697253
8	495	1292.326539302756	65.502796138344
8	498	1297.431912653494	46.955203361032
8	501	1298.650389291879	0
8	506	1308.125086076041	0
8	515	1310.28837300475	0
8	538	1359.796549003241	0
8	545	1375.620106597013	4.62976668212
8	548	1379.124691241884	0.964983894361
8	557	1390.858736395983	9.893859915686
8	558	1398.655310358344	11.923139467383
8	559	1400.59489939115	11.486829999154
8	577	1465.193283170876	0
8	593	1518.048533812449	0
8	597	1522.115300919114	0
8	603	1541.428895554315	0
8	608	1553.455149462903	2.717038722179
8	613	1557.057458542175	0
8	618	1568.331551592928	0
8	645	1626.767224349667	31.88475227308
8	650	1632.908070423757	13.013332074498
8	651	1650.948394501144	26.864352236152
8	656	1660.17170630485	33.961090270599
8	667	1682.971964709084	50.125206824348
8	668	1684.139934375323	19.649455945601
8	673	1689.346502670944	17.964847417234
8	676	1694.482504982523	19.215397920972
8	683	1714.071267073509	24.223295698141
8	686	1717.107582813619	14.360669294081
8	699	1731.884189348514	19.386586833758
8	702	1741.01259237592	26.649043790996
8	707	1756.666006729659	37.025010324059
8	714	1780.762271698698	58.179206936348
8	715	1783.604637338706	28.198793541916
8	718	1785.602324299285	23.141196597049
8	729	1830.957686884121	43.898220449066
8	748	1873.973423811954	64.487109658865
8	751	1885.791412971681	38.400260190268
8	756	1897.415383923316	40.190335056887
8	761	1908.687067283518	42.415236485503
8	764	1916.85405240421	38.275984911817
8	767	1931.118447100715	44.361287197081
8	774	1959.561583856588	56.29598777266
8	775	1959.912900506041	3.487500635743
8	780	1971.026100931683	1.191598138394
8	796	1999.57917616298	0
8	805	2031.530575653383	0
8	815	2049.403337861292	0
8	823	2069.148904070772	0
8	831	2112.867149498668	0
8	843	2134.440791909142	0
8	860	2171.273772009366	14.060969787981
8	877	2205.622955035872	34.24234131828
8	884	2233.707644079314	61.967141066398
8	885	2234.270495307538	46.928980730215
8	886	2237.299189827106	17.763658593488
8	897	2261.653382343978	37.810883410878
8	898	2261.747934119114	16.089014208893
8	922	2315.1814443388	0
8	935	2336.903654194086	14.619677945059
8	940	2367.479903357686	36.231806277569
8	961	2387.160294403977	40.931935336678
8	962	2387.186125984128	16.469939616747
8	971	2435.307205014108	60.239127152575
8	976	2460.295181510609	84.4888584137
8	983	2471.164921879027	91.199665349248
8	990	2488.523100251252	103.27224796494
8	991	2499.946033898474	86.137037201613
9	172	391.118198328937	22
9	175	397.130619458553	23
9	182	413.446024416266	24
9	227	533.352974131096	25
9	234	556.004878995599	26
9	235	567.465524005817	27
9	238	575.066835706247	28
9	245	595.481424177085	29
9	262	639.998311572451	30
9	267	646.046836105451	31
9	270	650.284490323762	32
9	273	660.055477275504	33
9	279	685.561136209021	34
9	296	730.776025436502	35
9	302	746.940404463577	36
9	319	772.560827201072	37
9	324	784.671976288148	38
9	329	793.296617113777	39
9	336	812.646270259556	40
9	345	841.692229350027	41
9	348	857.931399634493	42
9	364	902.337563845851	43
9	365	909.695525874504	44
9	384	970.439936192264	45
9	393	1015.331913896704	46
9	398	1037.436616024956	47
9	399	1037.650034984079	48
9	414	1073.847565352052	49
9	432	1115.012867112774	50
9	446	1134.007028412366	51
9	457	1164.637823128674	52
9	458	1164.874711489807	53
9	461	1168.853377268973	54
9	474	1194.165823685857	55
9	477	1196.749850912367	56
9	478	1207.809373696937	57
9	479	1208.913777435145	58
9	484	1222.46750363704	59
9	485	1224.641579071014	60
9	492	1258.422488487881	61
9	495	1292.326539302756	62
9	498	1297.431912653494	63
9	499	1297.824253498138	64
9	504	1302.42855546205	65
9	507	1308.383094644484	66
9	520	1317.043349750514	67
9	545	1375.620106597013	68
9	548	1379.124691241884	69
9	557	1390.858736395983	70
9	558	1398.655310358344	71
9	559	1400.59489939115	72
9	560	1404.063455424315	73
9	578	1468.577029428623	74
9	594	1520.738605198079	75
9	600	1537.978153747246	76
9	608	1553.455149462903	77
9	609	1554.507908125516	78
9	614	1561.317381760871	79
9	645	1626.767224349667	80
9	650	1632.908070423757	81
9	651	1650.948394501144	82
9	656	1660.17170630485	83
9	667	1682.971964709084	84
9	668	1684.139934375323	85
9	673	1689.346502670944	86
9	676	1694.482504982523	87
9	683	1714.071267073509	88
9	686	1717.107582813619	89
9	699	1731.884189348514	90
9	702	1741.01259237592	91
9	707	1756.666006729659	92
9	714	1780.762271698698	93
9	715	1783.604637338706	94
9	718	1785.602324299285	95
9	729	1830.957686884121	96
9	748	1873.973423811954	97
9	751	1885.791412971681	98
9	756	1897.415383923316	99
9	761	1908.687067283518	100
9	764	1916.85405240421	101
9	767	1931.118447100715	102
9	774	1959.561583856588	103
9	775	1959.912900506041	104
9	780	1971.026100931683	105
9	783	1982.070470550673	106
9	799	2008.859832117201	107
9	808	2041.790383486345	108
9	818	2054.598615718021	109
9	824	2075.364224592356	110
9	834	2120.586831592418	111
9	860	2171.273772009366	112
9	877	2205.622955035872	113
9	884	2233.707644079314	114
9	885	2234.270495307538	115
9	886	2237.299189827106	116
9	897	2261.653382343978	117
9	898	2261.747934119114	118
9	899	2280.526506992827	119
9	935	2336.903654194086	120
9	940	2367.479903357686	121
9	961	2387.160294403977	122
9	962	2387.186125984128	123
9	971	2435.307205014108	124
9	976	2460.295181510609	125
9	983	2471.164921879027	126
9	990	2488.523100251252	127
9	991	2499.946033898474	128
10	172	391.118198328937	0.926113059317
10	175	397.130619458553	6.578163858749
10	182	413.446024416266	6.006492194357
10	227	533.352974131096	14.845005582708
10	234	556.004878995599	33.831258670713
10	235	567.465524005817	18.7167072727
10	238	575.066835706247	24.999217206195
10	245	595.481424177085	19.815261901306
10	262	639.998311572451	27.156211394943
10	267	646.046836105451	22.635243378624
10	270	650.284490323762	3.213297812186
10	273	660.055477275504	8.426684924848
10	279	685.561136209021	20.295387657091
10	296	730.776025436502	0.052860959279
10	302	746.940404463577	0.220201080158
10	319	772.560827201072	20.756425113846
10	324	784.671976288148	23.138924274826
10	329	793.296617113777	30.784323446683
10	336	812.646270259556	45.704275917432
10	345	841.692229350027	31.693266060387
10	348	857.931399634493	21.818672370463
10	364	902.337563845851	22.236526122075
10	365	909.695525874504	16.528045114604
10	384	970.439936192264	11.45325360429
10	393	1015.331913896704	54.218125718929
10	398	1037.436616024956	57.430328178854
10	399	1037.650034984079	51.062328803369
10	414	1073.847565352052	2.150037159923
10	432	1115.012867112774	7.548792779329
10	446	1134.007028412366	16.223178884076
10	457	1164.637823128674	43.620441917366
10	458	1164.874711489807	40.443558753287
10	461	1168.853377268973	38.027373633943
10	474	1194.165823685857	45.63190504412
10	477	1196.749850912367	32.385902068318
10	478	1207.809373696937	33.738266798665
10	479	1208.913777435145	33.137686796053
10	484	1222.46750363704	39.731324969211
10	485	1224.641579071014	38.858640019427
10	492	1258.422488487881	72.284889217883
10	495	1292.326539302756	78.082224512128
10	498	1297.431912653494	70.608169489082
10	499	1297.824253498138	47.347544205676
10	504	1302.42855546205	3.778166170171
10	507	1308.383094644484	0.258008568443
10	520	1317.043349750514	6.754976745764
10	545	1375.620106597013	15.823557593772
10	548	1379.124691241884	8.134351326991
10	557	1390.858736395983	12.69902904846
10	558	1398.655310358344	17.690433878047
10	559	1400.59489939115	13.862728500189
10	560	1404.063455424315	14.955386032319
10	578	1468.577029428623	3.383746257747
10	594	1520.738605198079	2.69007138563
10	600	1537.978153747246	15.862852828132
10	608	1553.455149462903	12.026253908588
10	609	1554.507908125516	3.769797384792
10	614	1561.317381760871	4.259923218696
10	645	1626.767224349667	58.435672756739
10	650	1632.908070423757	38.02559834717
10	651	1650.948394501144	31.053656151885
10	656	1660.17170630485	36.087664039858
10	667	1682.971964709084	56.761348674833
10	668	1684.139934375323	51.293176490587
10	673	1689.346502670944	24.856024241222
10	676	1694.482504982523	23.100849728813
10	683	1714.071267073509	38.804160011958
10	686	1717.107582813619	27.259611438251
10	699	1731.884189348514	29.137275828976
10	702	1741.01259237592	28.514989861164
10	707	1756.666006729659	42.302458144735
10	714	1780.762271698698	61.121275293098
10	715	1783.604637338706	61.021572576356
10	718	1785.602324299285	30.196480502495
10	729	1830.957686884121	68.496559181885
10	748	1873.973423811954	86.913957376899
10	751	1885.791412971681	76.305098818592
10	756	1897.415383923316	50.024231141903
10	761	1908.687067283518	51.462018417089
10	764	1916.85405240421	50.582221606195
10	767	1931.118447100715	52.540379608322
10	774	1959.561583856588	72.804423952954
10	775	1959.912900506041	56.647304422113
10	780	1971.026100931683	14.600701061385
10	783	1982.070470550673	12.235967757384
10	799	2008.859832117201	9.280655954221
10	808	2041.790383486345	10.259807832962
10	818	2054.598615718021	5.195277856729
10	824	2075.364224592356	6.215320521584
10	834	2120.586831592418	7.71968209375
10	860	2171.273772009366	36.832980100224
10	877	2205.622955035872	48.410152814487
10	884	2233.707644079314	62.327030361722
10	885	2234.270495307538	62.529992294622
10	886	2237.299189827106	49.957675249783
10	897	2261.653382343978	42.11785111036
10	898	2261.747934119114	37.905435186014
10	899	2280.526506992827	34.867587082606
10	935	2336.903654194086	21.722209855286
10	940	2367.479903357686	45.195927108659
10	961	2387.160294403977	55.91219732386
10	962	2387.186125984128	40.957766916829
10	971	2435.307205014108	64.591018646727
10	976	2460.295181510609	85.227103649076
10	983	2471.164921879027	95.358598782118
10	990	2488.523100251252	108.55784372147
10	991	2499.946033898474	114.69518161216
11	992	2500	0.0548
12	992	2500	0.0512

