version 2
run experiments_hard_game_mode1-1723-20230311-19:45:52-13690
attr configname experiments_hard_game_mode1
attr datetime 20230311-19:45:52
attr experiment experiments_hard_game_mode1
attr inifile omnetpp.ini
attr iterationvars "$0=10, $1=6, $2=100"
attr iterationvarsf 10,6,100-
attr measurement "$0=10, $1=6, $2=100"
attr network Network
attr processid 13690
attr repetition 13
attr replication #13
attr resultdir results
attr runnumber 1723
attr seedset 13
param *.boss.arrival_mean 20
param *.boss.service_mean 10
param *.minion.arrival_mean 10
param *.minion.service_mean 6
param *.player.recover_rate_x 100
param **.minion.arrival_distribution 0
param **.minion.service_distribution 0
param **.boss.arrival_distribution 0
param **.boss.service_distribution 0

vector 0 Network.player boss_jobs_number_stat:vector ETV
attr source signal_boss_jobs_number
vector 1 Network.player boss_jobs_queue_number_stat:vector ETV
attr source signal_boss_jobs_queue_number
vector 2 Network.player boss_defeated_stat:vector ETV
attr source signal_boss_defeated
vector 3 Network.player boss_response_time_stat:vector ETV
attr source signal_boss_response_time
vector 4 Network.player boss_waiting_time_stat:vector ETV
attr source signal_boss_waiting_time
vector 5 Network.player minion_jobs_number_stat:vector ETV
attr source signal_minion_jobs_number
vector 6 Network.player minion_jobs_queue_number_stat:vector ETV
attr source signal_minion_jobs_queue_number
vector 7 Network.player minion_waiting_time_stat:vector ETV
attr source signal_minion_waiting_time
vector 8 Network.player minion_defeated_stat:vector ETV
attr source signal_minion_defeated
vector 9 Network.player minion_response_time_stat:vector ETV
attr source signal_minion_response_time
vector 10 Network.player minion_recovered_stat:vector ETV
attr source signal_minion_recovered
vector 11 Network.player minion_throughput:vector ETV
attr source signal_minion_throughput
vector 12 Network.player boss_throughput:vector ETV
attr source signal_boss_throughput
0	145	350.881313172297	3
0	152	360.818519535049	3
0	154	361.531643308555	4
0	160	371.908598985871	3
0	163	376.931018151467	3
0	166	381.136330067117	3
0	197	429.073456309595	1
0	208	458.216863057689	1
0	213	485.039383383465	1
0	227	504.219337313665	1
0	231	513.42129579689	2
0	244	565.569280449517	1
0	259	626.472031129181	1
0	265	634.336558468053	1
0	269	638.192742303279	2
0	271	644.030677267764	3
0	273	644.144963208146	4
0	279	669.619848426002	5
0	288	693.409668976404	3
0	325	809.310921917985	1
0	335	827.380958355965	2
0	338	834.74067954906	2
0	349	858.166594785723	2
0	351	861.941115502046	3
0	361	883.655885421752	1
0	363	887.512647225875	2
0	372	903.905552536614	1
0	375	907.483937674146	1
0	404	990.413455002523	1
0	413	1008.003682923438	1
0	418	1020.417949707382	1
0	424	1033.249379298814	1
0	431	1053.470206707816	1
0	440	1065.821984533476	1
0	446	1072.614960455695	2
0	448	1077.976575989947	3
0	464	1104.858659015191	1
0	479	1143.647684051215	1
0	487	1159.235141044981	2
0	494	1171.966462265233	2
0	501	1196.686858693904	2
0	503	1197.809451509109	3
0	505	1201.314877016841	4
0	535	1301.300109462689	1
0	540	1316.697341954421	1
0	542	1321.049430127316	2
0	545	1327.240078304281	2
0	557	1352.172457290686	1
0	586	1419.760823824721	1
0	602	1453.65964639195	1
0	638	1539.073766767534	1
0	644	1551.811268998897	1
0	653	1574.680051997075	1
0	657	1580.731531549448	1
0	659	1583.786751798574	2
0	665	1595.405242588751	3
0	673	1614.424317239799	2
0	678	1619.123148538388	1
0	684	1628.846044176192	1
0	691	1641.653488925519	1
0	693	1646.228649184495	2
0	695	1651.491893488932	3
0	699	1656.443885829001	4
0	701	1659.95899571819	5
0	707	1686.518869704216	4
0	710	1691.412908866778	4
0	723	1722.827600274038	2
0	725	1726.331710433346	3
0	737	1767.39258822199	1
0	759	1826.132510283332	1
0	763	1837.232700665273	1
0	774	1856.676250964027	1
0	776	1857.37999332076	2
0	783	1883.476859197256	1
0	785	1885.403139532809	2
0	795	1927.167334289672	1
0	797	1928.858537845573	2
0	811	1985.692923559129	1
0	837	2035.12845233487	1
0	841	2037.706644485021	2
0	844	2043.472956852933	2
0	855	2086.337690370672	1
0	858	2097.545413534898	1
0	860	2099.566104157284	2
0	867	2115.320149594233	1
0	881	2145.854161296251	1
0	890	2165.681529415681	1
0	899	2187.109250616897	1
0	931	2221.454825515369	1
0	956	2264.236815591852	1
0	960	2271.874558676346	1
0	970	2293.078236472355	1
0	990	2336.495621840945	1
0	994	2337.348088405461	2
0	1002	2352.254707627457	3
0	1012	2372.17973835098	1
0	1023	2414.535637886846	1
0	1038	2439.36645112858	1
0	1040	2440.572633583659	2
0	1051	2452.701691149425	1
0	1053	2455.773500652442	2
0	1056	2478.047714483756	2
0	1062	2490.461691942782	3
1	145	350.881313172297	2
1	146	353.400641430858	2
1	152	360.818519535049	2
1	154	361.531643308555	3
1	157	367.974680978571	3
1	158	371.682658748486	2
1	160	371.908598985871	2
1	161	372.210642046528	2
1	163	376.931018151467	2
1	164	378.379327447058	2
1	166	381.136330067117	2
1	173	393.327773220161	2
1	174	398.251296420495	1
1	175	398.343106074126	0
1	197	429.073456309595	0
1	198	430.287952725652	0
1	208	458.216863057689	0
1	209	467.848383726258	0
1	213	485.039383383465	0
1	214	485.690685010453	0
1	227	504.219337313665	0
1	231	513.42129579689	1
1	232	521.29587359071	1
1	233	528.900542403417	0
1	244	565.569280449517	0
1	249	588.45469455494	0
1	259	626.472031129181	0
1	260	628.118615039884	0
1	265	634.336558468053	0
1	269	638.192742303279	1
1	271	644.030677267764	2
1	273	644.144963208146	3
1	279	669.619848426002	4
1	282	676.749875443619	4
1	283	678.902440021027	3
1	286	685.769021264607	2
1	288	693.409668976404	2
1	295	707.397073129193	2
1	296	711.740641857631	1
1	301	725.535930500947	0
1	325	809.310921917985	0
1	335	827.380958355965	1
1	336	829.49137569548	1
1	338	834.74067954906	1
1	347	857.781747880585	1
1	349	858.166594785723	1
1	351	861.941115502046	2
1	354	862.838167876351	2
1	355	865.016226432308	1
1	356	875.334847863564	0
1	361	883.655885421752	0
1	363	887.512647225875	1
1	364	892.065272869472	1
1	365	892.27192667841	0
1	372	903.905552536614	0
1	373	906.430737667972	0
1	375	907.483937674146	0
1	378	923.990941133117	0
1	404	990.413455002523	0
1	405	995.388525575268	0
1	413	1008.003682923438	0
1	414	1013.618090303154	0
1	418	1020.417949707382	0
1	419	1024.209920629874	0
1	424	1033.249379298814	0
1	427	1041.426205784182	0
1	431	1053.470206707816	0
1	432	1056.118540228127	0
1	440	1065.821984533476	0
1	446	1072.614960455695	1
1	448	1077.976575989947	2
1	449	1080.9229473495	2
1	450	1083.447831230515	1
1	451	1088.598797300205	0
1	464	1104.858659015191	0
1	465	1112.06042855495	0
1	479	1143.647684051215	0
1	487	1159.235141044981	1
1	490	1167.506798675665	1
1	494	1171.966462265233	1
1	497	1192.461761438339	1
1	501	1196.686858693904	1
1	503	1197.809451509109	2
1	505	1201.314877016841	3
1	506	1202.959114506187	3
1	507	1209.041036343037	2
1	510	1222.033847838854	1
1	517	1255.750432456312	0
1	535	1301.300109462689	0
1	538	1316.421453824281	0
1	540	1316.697341954421	0
1	542	1321.049430127316	1
1	543	1326.481003186791	1
1	545	1327.240078304281	1
1	546	1330.800030201578	1
1	547	1332.714971107254	0
1	557	1352.172457290686	0
1	558	1352.371014732206	0
1	586	1419.760823824721	0
1	589	1437.79812119104	0
1	602	1453.65964639195	0
1	603	1458.100020392548	0
1	638	1539.073766767534	0
1	641	1547.219553442301	0
1	644	1551.811268998897	0
1	645	1555.424202827673	0
1	653	1574.680051997075	0
1	654	1576.326586260915	0
1	657	1580.731531549448	0
1	659	1583.786751798574	1
1	665	1595.405242588751	2
1	668	1605.872249411701	2
1	671	1612.444752502128	1
1	673	1614.424317239799	1
1	674	1615.366968540989	1
1	675	1617.807816456344	0
1	678	1619.123148538388	0
1	679	1621.882722934272	0
1	684	1628.846044176192	0
1	687	1635.583657231962	0
1	691	1641.653488925519	0
1	693	1646.228649184495	1
1	695	1651.491893488932	2
1	699	1656.443885829001	3
1	701	1659.95899571819	4
1	704	1665.724409324103	4
1	705	1672.312882963144	3
1	707	1686.518869704216	3
1	708	1687.310441380408	3
1	710	1691.412908866778	3
1	711	1692.695197403293	3
1	712	1698.31228004526	2
1	715	1706.96183928181	1
1	723	1722.827600274038	1
1	725	1726.331710433346	2
1	730	1732.445462817392	2
1	731	1739.591549360142	1
1	734	1751.891284377672	0
1	737	1767.39258822199	0
1	752	1808.833562258944	0
1	759	1826.132510283332	0
1	760	1826.877261333696	0
1	763	1837.232700665273	0
1	772	1854.82001627751	0
1	774	1856.676250964027	0
1	776	1857.37999332076	1
1	779	1860.563527172455	1
1	780	1880.259631588904	0
1	783	1883.476859197256	0
1	785	1885.403139532809	1
1	788	1902.12787742678	1
1	789	1910.356117797481	0
1	795	1927.167334289672	0
1	797	1928.858537845573	1
1	798	1937.264916560635	1
1	799	1941.35002489295	0
1	811	1985.692923559129	0
1	814	1995.248025547849	0
1	837	2035.12845233487	0
1	841	2037.706644485021	1
1	842	2038.254829454035	1
1	844	2043.472956852933	1
1	845	2054.773817140994	1
1	846	2061.836414432687	0
1	855	2086.337690370672	0
1	856	2096.455747233069	0
1	858	2097.545413534898	0
1	860	2099.566104157284	1
1	861	2101.54254257625	1
1	862	2104.654370841398	0
1	867	2115.320149594233	0
1	868	2116.615074414917	0
1	881	2145.854161296251	0
1	882	2150.724513352051	0
1	890	2165.681529415681	0
1	895	2179.367889914153	0
1	899	2187.109250616897	0
1	902	2191.339806147625	0
1	931	2221.454825515369	0
1	936	2233.746509683232	0
1	956	2264.236815591852	0
1	957	2266.472373775373	0
1	960	2271.874558676346	0
1	961	2280.647788424624	0
1	970	2293.078236472355	0
1	971	2296.092421385945	0
1	990	2336.495621840945	0
1	994	2337.348088405461	1
1	1002	2352.254707627457	2
1	1003	2352.837879764019	2
1	1006	2364.006753394703	1
1	1007	2366.044321094392	0
1	1012	2372.17973835098	0
1	1015	2391.04257969701	0
1	1023	2414.535637886846	0
1	1028	2417.170489197232	0
1	1038	2439.36645112858	0
1	1040	2440.572633583659	1
1	1041	2441.632635267542	1
1	1044	2441.864763076397	0
1	1051	2452.701691149425	0
1	1053	2455.773500652442	1
1	1054	2467.447858132719	1
1	1056	2478.047714483756	1
1	1062	2490.461691942782	2
1	1065	2499.17098673709	2
2	146	353.400641430858	18
2	157	367.974680978571	19
2	158	371.682658748486	20
2	161	372.210642046528	21
2	164	378.379327447058	22
2	173	393.327773220161	23
2	174	398.251296420495	24
2	175	398.343106074126	25
2	198	430.287952725652	26
2	209	467.848383726258	27
2	214	485.690685010453	28
2	232	521.29587359071	29
2	233	528.900542403417	30
2	249	588.45469455494	31
2	260	628.118615039884	32
2	282	676.749875443619	33
2	283	678.902440021027	34
2	286	685.769021264607	35
2	295	707.397073129193	36
2	296	711.740641857631	37
2	301	725.535930500947	38
2	336	829.49137569548	39
2	347	857.781747880585	40
2	354	862.838167876351	41
2	355	865.016226432308	42
2	356	875.334847863564	43
2	364	892.065272869472	44
2	365	892.27192667841	45
2	373	906.430737667972	46
2	378	923.990941133117	47
2	405	995.388525575268	48
2	414	1013.618090303154	49
2	419	1024.209920629874	50
2	427	1041.426205784182	51
2	432	1056.118540228127	52
2	449	1080.9229473495	53
2	450	1083.447831230515	54
2	451	1088.598797300205	55
2	465	1112.06042855495	56
2	490	1167.506798675665	57
2	497	1192.461761438339	58
2	506	1202.959114506187	59
2	507	1209.041036343037	60
2	510	1222.033847838854	61
2	517	1255.750432456312	62
2	538	1316.421453824281	63
2	543	1326.481003186791	64
2	546	1330.800030201578	65
2	547	1332.714971107254	66
2	558	1352.371014732206	67
2	589	1437.79812119104	68
2	603	1458.100020392548	69
2	641	1547.219553442301	70
2	645	1555.424202827673	71
2	654	1576.326586260915	72
2	668	1605.872249411701	73
2	671	1612.444752502128	74
2	674	1615.366968540989	75
2	675	1617.807816456344	76
2	679	1621.882722934272	77
2	687	1635.583657231962	78
2	704	1665.724409324103	79
2	705	1672.312882963144	80
2	708	1687.310441380408	81
2	711	1692.695197403293	82
2	712	1698.31228004526	83
2	715	1706.96183928181	84
2	730	1732.445462817392	85
2	731	1739.591549360142	86
2	734	1751.891284377672	87
2	752	1808.833562258944	88
2	760	1826.877261333696	89
2	772	1854.82001627751	90
2	779	1860.563527172455	91
2	780	1880.259631588904	92
2	788	1902.12787742678	93
2	789	1910.356117797481	94
2	798	1937.264916560635	95
2	799	1941.35002489295	96
2	814	1995.248025547849	97
2	842	2038.254829454035	98
2	845	2054.773817140994	99
2	846	2061.836414432687	100
2	856	2096.455747233069	101
2	861	2101.54254257625	102
2	862	2104.654370841398	103
2	868	2116.615074414917	104
2	882	2150.724513352051	105
2	895	2179.367889914153	106
2	902	2191.339806147625	107
2	936	2233.746509683232	108
2	957	2266.472373775373	109
2	961	2280.647788424624	110
2	971	2296.092421385945	111
2	1003	2352.837879764019	112
2	1006	2364.006753394703	113
2	1007	2366.044321094392	114
2	1015	2391.04257969701	115
2	1028	2417.170489197232	116
2	1041	2441.632635267542	117
2	1044	2441.864763076397	118
2	1054	2467.447858132719	119
2	1065	2499.17098673709	120
3	146	353.400641430858	11.545928753859
3	157	367.974680978571	25.517854793662
3	158	371.682658748486	20.801345576189
3	161	372.210642046528	11.392122511479
3	164	378.379327447058	16.847684138503
3	173	393.327773220161	21.41917423429
3	174	398.251296420495	21.320278269028
3	175	398.343106074126	17.206776007009
3	198	430.287952725652	1.214496416057
3	209	467.848383726258	9.631520668569
3	214	485.690685010453	0.651301626988
3	232	521.29587359071	17.076536277045
3	233	528.900542403417	15.479246606527
3	249	588.45469455494	22.885414105423
3	260	628.118615039884	1.646583910703
3	282	676.749875443619	42.413316975566
3	283	678.902440021027	40.709697717748
3	286	685.769021264607	41.738343996843
3	295	707.397073129193	63.252109921047
3	296	711.740641857631	42.120793431629
3	301	725.535930500947	32.126261524543
3	336	829.49137569548	20.180453777495
3	347	857.781747880585	30.40078952462
3	354	862.838167876351	28.097488327291
3	355	865.016226432308	6.849631646585
3	356	875.334847863564	13.393732361518
3	364	892.065272869472	8.40938744772
3	365	892.27192667841	4.759279452535
3	373	906.430737667972	2.525185131358
3	378	923.990941133117	16.507003458971
3	405	995.388525575268	4.975070572745
3	414	1013.618090303154	5.614407379716
3	419	1024.209920629874	3.791970922492
3	427	1041.426205784182	8.176826485368
3	432	1056.118540228127	2.648333520311
3	449	1080.9229473495	15.100962816024
3	450	1083.447831230515	10.83287077482
3	451	1088.598797300205	10.622221310258
3	465	1112.06042855495	7.201769539759
3	490	1167.506798675665	23.85911462445
3	497	1192.461761438339	33.226620393358
3	506	1202.959114506187	30.992652240954
3	507	1209.041036343037	12.354177649133
3	510	1222.033847838854	24.224396329745
3	517	1255.750432456312	54.435555439471
3	538	1316.421453824281	15.121344361592
3	543	1326.481003186791	9.78366123237
3	546	1330.800030201578	9.750600074262
3	547	1332.714971107254	5.474892802973
3	558	1352.371014732206	0.19855744152
3	589	1437.79812119104	18.037297366319
3	603	1458.100020392548	4.440374000598
3	641	1547.219553442301	8.145786674767
3	645	1555.424202827673	3.612933828776
3	654	1576.326586260915	1.64653426384
3	668	1605.872249411701	25.140717862253
3	671	1612.444752502128	28.658000703554
3	674	1615.366968540989	19.961725952238
3	675	1617.807816456344	3.383499216545
3	679	1621.882722934272	2.759574395884
3	687	1635.583657231962	6.73761305577
3	704	1665.724409324103	24.070920398584
3	705	1672.312882963144	26.084233778649
3	708	1687.310441380408	35.818547891476
3	711	1692.695197403293	36.251311574292
3	712	1698.31228004526	38.35328432707
3	715	1706.96183928181	20.442969577594
3	730	1732.445462817392	41.032553950614
3	731	1739.591549360142	16.763949086104
3	734	1751.891284377672	25.559573944326
3	752	1808.833562258944	41.440974036954
3	760	1826.877261333696	0.744751050364
3	772	1854.82001627751	17.587315612237
3	779	1860.563527172455	3.887276208428
3	780	1880.259631588904	22.879638268144
3	788	1902.12787742678	18.651018229524
3	789	1910.356117797481	24.952978264672
3	798	1937.264916560635	10.097582270963
3	799	1941.35002489295	12.491487047377
3	814	1995.248025547849	9.55510198872
3	842	2038.254829454035	3.126377119165
3	845	2054.773817140994	17.067172655973
3	846	2061.836414432687	18.363457579754
3	856	2096.455747233069	10.118056862397
3	861	2101.54254257625	3.997129041352
3	862	2104.654370841398	5.088266684114
3	868	2116.615074414917	1.294924820684
3	882	2150.724513352051	4.8703520558
3	895	2179.367889914153	13.686360498472
3	902	2191.339806147625	4.230555530728
3	936	2233.746509683232	12.291684167863
3	957	2266.472373775373	2.235558183521
3	961	2280.647788424624	8.773229748278
3	971	2296.092421385945	3.01418491359
3	1003	2352.837879764019	16.342257923074
3	1006	2364.006753394703	26.658664989242
3	1007	2366.044321094392	13.789613466935
3	1015	2391.04257969701	18.86284134603
3	1028	2417.170489197232	2.634851310386
3	1041	2441.632635267542	2.266184138962
3	1044	2441.864763076397	1.292129492738
3	1054	2467.447858132719	14.746166983294
3	1065	2499.17098673709	43.397486084648
4	146	353.400641430858	10.943815245949
4	157	367.974680978571	17.093367806274
4	158	371.682658748486	10.864139213437
4	161	372.210642046528	10.678998737973
4	164	378.379327447058	6.470728461187
4	173	393.327773220161	16.396755068694
4	174	398.251296420495	17.114966353378
4	197	429.073456309595	0
4	208	458.216863057689	0
4	213	485.039383383465	0
4	227	504.219337313665	0
4	232	521.29587359071	7.87457779382
4	244	565.569280449517	0
4	259	626.472031129181	0
4	265	634.336558468053	0
4	282	676.749875443619	38.55713314034
4	283	678.902440021027	34.871762753263
4	286	685.769021264607	41.624058056461
4	295	707.397073129193	37.777224703191
4	296	711.740641857631	18.330972881227
4	325	809.310921917985	0
4	336	829.49137569548	2.110417339515
4	347	857.781747880585	23.041068331525
4	354	862.838167876351	4.671573090628
4	355	865.016226432308	3.075110930262
4	361	883.655885421752	0
4	364	892.065272869472	4.552625643597
4	372	903.905552536614	0
4	375	907.483937674146	0
4	404	990.413455002523	0
4	413	1008.003682923438	0
4	418	1020.417949707382	0
4	424	1033.249379298814	0
4	431	1053.470206707816	0
4	440	1065.821984533476	0
4	449	1080.9229473495	8.307986893805
4	450	1083.447831230515	5.471255240568
4	464	1104.858659015191	0
4	479	1143.647684051215	0
4	490	1167.506798675665	8.271657630684
4	497	1192.461761438339	20.495299173106
4	506	1202.959114506187	6.272255812283
4	507	1209.041036343037	11.231584833928
4	510	1222.033847838854	20.718970822013
4	535	1301.300109462689	0
4	540	1316.697341954421	0
4	543	1326.481003186791	5.431573059475
4	546	1330.800030201578	3.559951897297
4	557	1352.172457290686	0
4	586	1419.760823824721	0
4	602	1453.65964639195	0
4	638	1539.073766767534	0
4	644	1551.811268998897	0
4	653	1574.680051997075	0
4	657	1580.731531549448	0
4	668	1605.872249411701	22.085497613127
4	671	1612.444752502128	17.039509913377
4	674	1615.366968540989	0.94265130119
4	678	1619.123148538388	0
4	684	1628.846044176192	0
4	691	1641.653488925519	0
4	704	1665.724409324103	19.495760139608
4	705	1672.312882963144	20.820989474212
4	708	1687.310441380408	30.866555551407
4	711	1692.695197403293	32.736201685103
4	712	1698.31228004526	11.793410341044
4	715	1706.96183928181	15.548930415032
4	730	1732.445462817392	9.617862543354
4	731	1739.591549360142	13.259838926796
4	737	1767.39258822199	0
4	759	1826.132510283332	0
4	763	1837.232700665273	0
4	774	1856.676250964027	0
4	779	1860.563527172455	3.183533851695
4	783	1883.476859197256	0
4	788	1902.12787742678	16.724737893971
4	795	1927.167334289672	0
4	798	1937.264916560635	8.406378715062
4	811	1985.692923559129	0
4	837	2035.12845233487	0
4	842	2038.254829454035	0.548184969014
4	845	2054.773817140994	11.300860288061
4	855	2086.337690370672	0
4	858	2097.545413534898	0
4	861	2101.54254257625	1.976438418966
4	867	2115.320149594233	0
4	881	2145.854161296251	0
4	890	2165.681529415681	0
4	899	2187.109250616897	0
4	931	2221.454825515369	0
4	956	2264.236815591852	0
4	960	2271.874558676346	0
4	970	2293.078236472355	0
4	990	2336.495621840945	0
4	1003	2352.837879764019	15.489791358558
4	1006	2364.006753394703	11.752045767246
4	1012	2372.17973835098	0
4	1023	2414.535637886846	0
4	1038	2439.36645112858	0
4	1041	2441.632635267542	1.060001683883
4	1051	2452.701691149425	0
4	1054	2467.447858132719	11.674357480277
4	1065	2499.17098673709	21.123272253334
5	148	354.220807892071	18
5	150	358.816678104859	19
5	156	362.918884947423	20
5	168	382.502447573653	21
5	170	386.691966251989	22
5	172	391.480322332022	23
5	179	402.91178608321	22
5	183	403.909484036199	21
5	187	412.173305584134	20
5	190	416.102112529242	20
5	192	421.769602253501	21
5	195	427.13295448405	21
5	200	433.849908919438	22
5	206	447.408489393891	19
5	211	481.918541865505	20
5	218	492.645323064696	19
5	221	498.41728786812	19
5	224	500.665197321305	19
5	229	513.078115747372	19
5	235	529.606159204226	20
5	237	547.383719825004	21
5	241	562.820335773616	20
5	246	571.42461516205	20
5	248	576.44888564805	21
5	252	599.143554045033	21
5	256	606.28963701956	20
5	267	634.448028384357	17
5	275	650.35220467007	18
5	277	665.766420488575	19
5	281	671.661096219755	20
5	285	680.844601077482	21
5	290	694.4339970116	22
5	292	700.985969889335	23
5	294	701.806198171285	24
5	298	713.958362007736	25
5	300	720.645742409063	26
5	303	729.832992657518	27
5	305	735.531473481411	28
5	313	776.789953050879	23
5	315	779.614350689329	24
5	318	785.140662753362	24
5	322	804.919677685226	23
5	327	813.104810438763	23
5	329	813.307067739144	24
5	331	818.30858984354	25
5	333	824.302002192307	26
5	340	836.864931136729	27
5	342	837.350773138421	28
5	344	843.326417154544	29
5	346	850.212541818324	30
5	353	862.256259261925	31
5	359	881.830197929819	31
5	367	893.854051650568	32
5	370	897.930962325278	32
5	377	910.066976022594	33
5	382	933.253107534893	32
5	386	941.657077362681	31
5	388	942.968278161708	32
5	390	946.440734773634	33
5	392	948.153764576261	34
5	395	965.521339741348	34
5	399	981.004076053121	33
5	410	1004.449375652978	28
5	416	1015.38380414706	28
5	421	1024.553756365915	29
5	426	1037.290707556304	29
5	429	1049.858783622759	30
5	434	1057.607896085531	31
5	438	1061.401959982533	30
5	442	1067.787554912875	31
5	444	1068.252939213793	32
5	454	1091.347777855667	32
5	457	1096.268931160359	32
5	460	1100.961170677705	32
5	462	1104.564690809039	33
5	467	1112.067930347438	34
5	470	1119.099637767066	34
5	474	1130.957477577577	33
5	477	1138.78013148916	33
5	481	1144.323871654139	34
5	483	1148.450157988024	35
5	485	1158.627211880175	36
5	489	1159.331674425107	37
5	492	1168.353695857964	38
5	496	1188.190898806865	39
5	499	1194.247409209763	40
5	509	1215.289413414158	41
5	512	1240.032217313543	42
5	514	1240.082505664293	43
5	516	1253.710917304745	44
5	519	1257.293697563909	45
5	528	1283.813109435883	39
5	532	1291.389407764327	38
5	537	1313.569823988025	38
5	550	1346.167197587479	38
5	552	1350.028723703293	39
5	555	1351.512135146458	39
5	563	1363.224814850181	37
5	568	1377.772949826415	35
5	570	1378.379669330629	36
5	573	1391.432326235966	36
5	575	1393.686084915507	37
5	580	1405.629567179376	35
5	584	1418.469175043072	34
5	588	1425.893199456538	35
5	591	1439.836864833386	36
5	593	1444.7624137905	37
5	599	1448.263396076285	34
5	605	1465.369118310634	34
5	612	1497.176956300586	30
5	614	1497.962016172964	31
5	616	1498.005744378918	32
5	622	1508.777151633738	29
5	625	1513.081014510385	29
5	629	1519.02434727888	28
5	631	1521.224361848015	29
5	633	1521.4211177398	30
5	636	1527.176332775919	30
5	640	1542.095215944384	31
5	650	1568.633061524487	28
5	661	1586.257204412821	27
5	663	1589.545655119811	28
5	667	1603.92385839718	29
5	670	1609.50799170604	30
5	682	1625.662992635075	29
5	686	1631.920961920185	30
5	689	1635.677345328082	31
5	697	1654.996103444303	32
5	703	1663.090675980942	33
5	714	1704.68708707631	34
5	717	1709.770363652536	35
5	719	1716.266022827696	36
5	721	1720.94382496743	37
5	727	1728.637724047396	38
5	729	1731.636747604201	39
5	733	1746.878738555797	40
5	739	1767.685687162037	40
5	741	1784.550241260931	41
5	743	1784.841039858382	42
5	745	1786.41524331182	43
5	747	1789.616137908949	44
5	749	1793.820346761653	45
5	751	1800.426775317516	46
5	755	1812.321555644909	46
5	765	1840.504910789092	44
5	767	1842.590162227535	45
5	769	1847.99445252932	46
5	771	1854.07194290293	47
5	778	1858.808527574329	48
5	787	1894.016135839259	48
5	792	1915.429774557667	48
5	804	1967.183320475023	45
5	808	1979.625919561273	44
5	813	1993.509219006814	44
5	818	1999.044872113969	43
5	821	2006.225192601021	43
5	824	2011.405938186384	43
5	827	2018.637309074694	43
5	831	2030.325865854542	42
5	833	2031.042674949367	43
5	839	2037.599694128195	42
5	849	2073.067371242433	42
5	853	2078.372861477825	41
5	864	2109.343958797616	42
5	871	2123.437687074001	41
5	874	2138.579705603058	41
5	877	2143.511469465731	41
5	886	2162.382812115029	38
5	888	2163.089283698397	39
5	892	2168.186973905235	40
5	894	2173.869921520784	41
5	901	2189.811664414536	40
5	904	2196.082281053651	41
5	906	2196.260568128432	42
5	908	2197.06684740145	43
5	911	2198.899392425671	43
5	913	2203.672221669975	44
5	915	2205.91081637071	45
5	918	2209.528222924243	45
5	921	2212.282576392703	45
5	923	2215.738187667887	46
5	926	2216.540206352545	46
5	928	2219.790560216916	47
5	933	2232.952055811601	47
5	935	2233.289927255512	48
5	938	2234.378659968128	49
5	944	2246.891927868613	46
5	946	2252.24765871453	47
5	948	2256.212029238043	48
5	951	2258.711853867551	48
5	954	2263.520418659047	48
5	966	2291.641604036185	45
5	968	2292.288336125078	46
5	974	2299.337709247451	46
5	976	2301.157408505392	47
5	978	2310.542912566416	48
5	980	2316.096112479992	49
5	984	2324.857901397619	48
5	987	2329.828241345159	48
5	992	2336.636636448296	48
5	996	2342.58296503385	49
5	998	2344.407946736265	50
5	1000	2347.851559815224	51
5	1005	2363.887143678592	52
5	1009	2368.453322025333	53
5	1014	2384.92887531202	53
5	1017	2392.242113020186	54
5	1020	2402.905379266026	54
5	1025	2414.704580193717	54
5	1027	2416.079366247579	55
5	1030	2418.726709731	56
5	1033	2427.294030763727	56
5	1036	2438.424958185678	56
5	1043	2441.73512436978	57
5	1046	2445.627055548079	58
5	1049	2448.642151641041	58
5	1058	2479.805499485109	59
5	1060	2489.270064040171	60
5	1064	2494.009934103584	61
6	148	354.220807892071	17
6	150	358.816678104859	18
6	156	362.918884947423	19
6	168	382.502447573653	20
6	170	386.691966251989	21
6	172	391.480322332022	22
6	176	400.436243268089	22
6	177	400.729082751474	21
6	179	402.91178608321	21
6	180	403.253679772657	21
6	181	403.310693480699	20
6	183	403.909484036199	20
6	184	406.318849967206	20
6	185	410.802550446229	19
6	187	412.173305584134	19
6	188	413.590175236404	19
6	190	416.102112529242	19
6	192	421.769602253501	20
6	193	423.251982777809	20
6	195	427.13295448405	20
6	200	433.849908919438	21
6	201	435.169449652658	21
6	202	435.580303898178	20
6	203	437.285637250742	19
6	204	444.756951977874	18
6	206	447.408489393891	18
6	211	481.918541865505	19
6	215	486.503523960611	19
6	216	487.602345660398	18
6	218	492.645323064696	18
6	219	495.781131868256	18
6	221	498.41728786812	18
6	222	498.918586072189	18
6	224	500.665197321305	18
6	225	503.036490999285	18
6	229	513.078115747372	18
6	235	529.606159204226	19
6	237	547.383719825004	20
6	238	553.748503139575	20
6	239	558.78099726684	19
6	241	562.820335773616	19
6	242	564.47565164207	19
6	246	571.42461516205	19
6	248	576.44888564805	20
6	250	596.167911230839	20
6	252	599.143554045033	20
6	253	600.626413564822	20
6	254	601.490671776339	19
6	256	606.28963701956	19
6	257	607.103207677686	19
6	261	631.567599107175	18
6	262	632.390962379256	17
6	263	632.802073430864	16
6	267	634.448028384357	16
6	275	650.35220467007	17
6	277	665.766420488575	18
6	281	671.661096219755	19
6	285	680.844601077482	20
6	290	694.4339970116	21
6	292	700.985969889335	22
6	294	701.806198171285	23
6	298	713.958362007736	24
6	300	720.645742409063	25
6	303	729.832992657518	26
6	305	735.531473481411	27
6	306	736.234295193641	27
6	307	737.493628076271	26
6	308	745.324467680589	25
6	309	748.816116650705	24
6	310	754.934825812872	23
6	311	769.972966760889	22
6	313	776.789953050879	22
6	315	779.614350689329	23
6	316	781.857459049553	23
6	318	785.140662753362	23
6	319	787.005987662962	23
6	320	800.643262341149	22
6	322	804.919677685226	22
6	323	805.42023588514	22
6	327	813.104810438763	22
6	329	813.307067739144	23
6	331	818.30858984354	24
6	333	824.302002192307	25
6	340	836.864931136729	26
6	342	837.350773138421	27
6	344	843.326417154544	28
6	346	850.212541818324	29
6	353	862.256259261925	30
6	357	876.894700469984	30
6	359	881.830197929819	30
6	367	893.854051650568	31
6	368	896.039239856937	31
6	370	897.930962325278	31
6	377	910.066976022594	32
6	379	924.902910486026	32
6	380	928.718538320171	31
6	382	933.253107534893	31
6	383	938.222504362499	31
6	384	941.550480807746	30
6	386	941.657077362681	30
6	388	942.968278161708	31
6	390	946.440734773634	32
6	392	948.153764576261	33
6	393	948.430312981566	33
6	395	965.521339741348	33
6	396	969.47048459042	33
6	397	971.540968694748	32
6	399	981.004076053121	32
6	400	982.029585837726	32
6	401	982.954438712094	31
6	402	990.277402127388	30
6	406	997.565337109703	29
6	407	1001.558042729013	28
6	408	1002.526813302988	27
6	410	1004.449375652978	27
6	411	1004.71598295501	27
6	416	1015.38380414706	27
6	421	1024.553756365915	28
6	422	1031.495444191836	28
6	426	1037.290707556304	28
6	429	1049.858783622759	29
6	434	1057.607896085531	30
6	435	1057.810469229182	30
6	436	1060.294328622412	29
6	438	1061.401959982533	29
6	442	1067.787554912875	30
6	444	1068.252939213793	31
6	452	1090.610949753841	31
6	454	1091.347777855667	31
6	455	1092.480216108751	31
6	457	1096.268931160359	31
6	458	1099.886545428239	31
6	460	1100.961170677705	31
6	462	1104.564690809039	32
6	467	1112.067930347438	33
6	468	1117.584151694637	33
6	470	1119.099637767066	33
6	471	1122.68945895778	33
6	472	1124.279469661682	32
6	474	1130.957477577577	32
6	475	1131.527566656502	32
6	477	1138.78013148916	32
6	481	1144.323871654139	33
6	483	1148.450157988024	34
6	485	1158.627211880175	35
6	489	1159.331674425107	36
6	492	1168.353695857964	37
6	496	1188.190898806865	38
6	499	1194.247409209763	39
6	509	1215.289413414158	40
6	512	1240.032217313543	41
6	514	1240.082505664293	42
6	516	1253.710917304745	43
6	519	1257.293697563909	44
6	520	1258.650221995029	44
6	521	1260.147506042885	43
6	522	1260.898803662703	42
6	523	1261.071391413127	41
6	524	1263.278123920797	40
6	525	1267.387830913864	39
6	526	1280.717635888662	38
6	528	1283.813109435883	38
6	529	1288.480637461573	38
6	530	1288.779984289792	37
6	532	1291.389407764327	37
6	533	1297.499678326554	37
6	537	1313.569823988025	37
6	548	1338.537825470046	37
6	550	1346.167197587479	37
6	552	1350.028723703293	38
6	553	1350.339931162567	38
6	555	1351.512135146458	38
6	559	1354.124535648774	38
6	560	1357.071569960472	37
6	561	1357.308736614925	36
6	563	1363.224814850181	36
6	564	1367.56593607784	36
6	565	1372.860056610593	35
6	566	1376.208136262421	34
6	568	1377.772949826415	34
6	570	1378.379669330629	35
6	571	1386.727754450773	35
6	573	1391.432326235966	35
6	575	1393.686084915507	36
6	576	1396.504895349492	36
6	577	1396.813057075654	35
6	578	1398.956781169779	34
6	580	1405.629567179376	34
6	581	1410.500184928577	34
6	582	1417.119565710007	33
6	584	1418.469175043072	33
6	588	1425.893199456538	34
6	591	1439.836864833386	35
6	593	1444.7624137905	36
6	594	1444.97559695221	36
6	595	1446.778227118421	35
6	596	1447.152158992567	34
6	597	1448.181301107608	33
6	599	1448.263396076285	33
6	600	1452.971894964756	33
6	605	1465.369118310634	33
6	606	1468.007030006308	33
6	607	1472.594445962635	32
6	608	1478.393419873126	31
6	609	1479.4414305957	30
6	610	1484.4151122552	29
6	612	1497.176956300586	29
6	614	1497.962016172964	30
6	616	1498.005744378918	31
6	617	1501.406904319944	31
6	618	1503.196536068455	30
6	619	1503.384873787319	29
6	620	1503.872157148805	28
6	622	1508.777151633738	28
6	623	1511.762815318958	28
6	625	1513.081014510385	28
6	626	1513.202802522448	28
6	627	1514.03536472306	27
6	629	1519.02434727888	27
6	631	1521.224361848015	28
6	633	1521.4211177398	29
6	634	1527.120936349859	29
6	636	1527.176332775919	29
6	640	1542.095215944384	30
6	642	1549.903523872354	30
6	646	1565.651674703973	29
6	647	1565.913752465449	28
6	648	1566.326036296577	27
6	650	1568.633061524487	27
6	651	1574.605416328856	27
6	655	1576.844102092096	26
6	661	1586.257204412821	26
6	663	1589.545655119811	27
6	667	1603.92385839718	28
6	670	1609.50799170604	29
6	676	1618.273204262654	29
6	680	1622.459534003185	28
6	682	1625.662992635075	28
6	686	1631.920961920185	29
6	689	1635.677345328082	30
6	697	1654.996103444303	31
6	703	1663.090675980942	32
6	714	1704.68708707631	33
6	717	1709.770363652536	34
6	719	1716.266022827696	35
6	721	1720.94382496743	36
6	727	1728.637724047396	37
6	729	1731.636747604201	38
6	733	1746.878738555797	39
6	735	1763.770819279903	39
6	739	1767.685687162037	39
6	741	1784.550241260931	40
6	743	1784.841039858382	41
6	745	1786.41524331182	42
6	747	1789.616137908949	43
6	749	1793.820346761653	44
6	751	1800.426775317516	45
6	753	1811.565900566307	45
6	755	1812.321555644909	45
6	756	1822.109628271568	45
6	757	1824.960543244965	44
6	761	1834.262590066117	43
6	765	1840.504910789092	43
6	767	1842.590162227535	44
6	769	1847.99445252932	45
6	771	1854.07194290293	46
6	778	1858.808527574329	47
6	781	1880.675931838966	47
6	787	1894.016135839259	47
6	790	1912.149283874027	47
6	792	1915.429774557667	47
6	793	1925.712790292073	47
6	800	1953.68456582623	46
6	801	1959.966332832604	45
6	802	1966.845854906172	44
6	804	1967.183320475023	44
6	805	1967.960564143566	44
6	806	1974.034189089699	43
6	808	1979.625919561273	43
6	809	1980.057079309326	43
6	813	1993.509219006814	43
6	815	1996.674603431223	43
6	816	1997.052291581156	42
6	818	1999.044872113969	42
6	819	2002.441030318085	42
6	821	2006.225192601021	42
6	822	2009.368963579208	42
6	824	2011.405938186384	42
6	825	2016.318344960091	42
6	827	2018.637309074694	42
6	828	2021.928246006087	42
6	829	2028.987587171329	41
6	831	2030.325865854542	41
6	833	2031.042674949367	42
6	834	2032.884230409546	42
6	835	2034.014630522537	41
6	839	2037.599694128195	41
6	847	2069.283007069398	41
6	849	2073.067371242433	41
6	850	2074.878632279315	41
6	851	2076.3036473183	40
6	853	2078.372861477825	40
6	864	2109.343958797616	41
6	865	2112.335217206565	41
6	869	2117.371946703217	40
6	871	2123.437687074001	40
6	872	2124.198232410553	40
6	874	2138.579705603058	40
6	875	2140.383819364782	40
6	877	2143.511469465731	40
6	878	2144.374931760342	40
6	879	2145.661942322523	39
6	883	2155.392729875146	38
6	884	2158.329546273652	37
6	886	2162.382812115029	37
6	888	2163.089283698397	38
6	892	2168.186973905235	39
6	894	2173.869921520784	40
6	896	2179.791728726517	40
6	897	2184.959450354953	39
6	901	2189.811664414536	39
6	904	2196.082281053651	40
6	906	2196.260568128432	41
6	908	2197.06684740145	42
6	909	2197.573196451844	42
6	911	2198.899392425671	42
6	913	2203.672221669975	43
6	915	2205.91081637071	44
6	916	2207.330652767486	44
6	918	2209.528222924243	44
6	919	2209.726383288234	44
6	921	2212.282576392703	44
6	923	2215.738187667887	45
6	924	2216.459792278796	45
6	926	2216.540206352545	45
6	928	2219.790560216916	46
6	929	2221.352753158732	46
6	933	2232.952055811601	46
6	935	2233.289927255512	47
6	938	2234.378659968128	48
6	939	2234.721420052799	48
6	940	2239.455081429612	47
6	941	2240.622993480646	46
6	942	2246.883866879829	45
6	944	2246.891927868613	45
6	946	2252.24765871453	46
6	948	2256.212029238043	47
6	949	2256.757569263291	47
6	951	2258.711853867551	47
6	952	2263.424653120683	47
6	954	2263.520418659047	47
6	958	2266.923306929423	47
6	962	2283.741411902797	46
6	963	2287.668723252052	45
6	964	2290.920311403517	44
6	966	2291.641604036185	44
6	968	2292.288336125078	45
6	972	2298.884934655212	45
6	974	2299.337709247451	45
6	976	2301.157408505392	46
6	978	2310.542912566416	47
6	980	2316.096112479992	48
6	981	2316.731969079591	48
6	982	2321.914577723488	47
6	984	2324.857901397619	47
6	985	2325.054833861463	47
6	987	2329.828241345159	47
6	988	2332.693244845552	47
6	992	2336.636636448296	47
6	996	2342.58296503385	48
6	998	2344.407946736265	49
6	1000	2347.851559815224	50
6	1005	2363.887143678592	51
6	1009	2368.453322025333	52
6	1010	2372.101371501724	52
6	1014	2384.92887531202	52
6	1017	2392.242113020186	53
6	1018	2393.192394700985	53
6	1020	2402.905379266026	53
6	1021	2406.224208428539	53
6	1025	2414.704580193717	53
6	1027	2416.079366247579	54
6	1030	2418.726709731	55
6	1031	2419.035229618172	55
6	1033	2427.294030763727	55
6	1034	2437.899817957131	55
6	1036	2438.424958185678	55
6	1043	2441.73512436978	56
6	1046	2445.627055548079	57
6	1047	2447.265868658172	57
6	1049	2448.642151641041	57
6	1058	2479.805499485109	58
6	1060	2489.270064040171	59
6	1064	2494.009934103584	60
7	175	398.343106074126	161.19814300409
7	176	400.436243268089	148.81148471836
7	177	400.729082751474	144.58913340781
7	180	403.253679772657	140.69147617841
7	181	403.310693480699	135.3410425531
7	184	406.318849967206	131.279389953
7	185	410.802550446229	121.11813952198
7	188	413.590175236404	117.37955474184
7	193	423.251982777809	126.85142945018
7	198	430.287952725652	128.38477208713
7	201	435.169449652658	127.71630003515
7	202	435.580303898178	125.57799296634
7	203	437.285637250742	105.01991311202
7	204	444.756951977874	111.252893835
7	209	467.848383726258	131.29242336774
7	214	485.690685010453	143.83597233345
7	215	486.503523960611	138.49283609472
7	216	487.602345660398	133.38153776833
7	219	495.781131868256	136.9644537634
7	222	498.918586072189	135.99970112477
7	225	503.036490999285	120.53404342563
7	233	528.900542403417	142.20857615143
7	238	553.748503139575	162.26818080755
7	239	558.78099726684	155.86921118363
7	242	564.47565164207	160.56616760587
7	249	588.45469455494	176.28138897081
7	250	596.167911230839	180.0657987016
7	253	600.626413564822	178.85681131132
7	254	601.490671776339	174.35771729229
7	257	607.103207677686	178.02975136809
7	260	628.118615039884	194.26870612045
7	261	631.567599107175	184.15910971328
7	262	632.390962379256	174.17409932157
7	263	632.802073430864	150.88353156536
7	301	725.535930500947	240.49654711748
7	306	736.234295193641	243.58897212894
7	307	737.493628076271	239.07634020815
7	308	745.324467680589	244.65927035928
7	309	748.816116650705	244.59677933704
7	310	754.934825812872	241.8567100655
7	311	769.972966760889	240.36680755666
7	316	781.857459049553	234.47373922455
7	319	787.005987662962	224.18565188935
7	320	800.643262341149	235.07398189163
7	323	805.42023588514	233.99562072309
7	356	875.334847863564	298.88596221551
7	357	876.894700469984	277.75114642495
7	365	892.27192667841	285.98228965885
7	368	896.039239856937	269.56720872776
7	373	906.430737667972	272.09417919992
7	378	923.990941133117	289.54291274876
7	379	924.902910486026	274.55070581596
7	380	928.718538320171	262.9521178316
7	383	938.222504362499	266.56140814274
7	384	941.550480807746	260.70587973026
7	393	948.430312981566	253.99631596997
7	396	969.47048459042	268.48451470109
7	397	971.540968694748	269.73477052346
7	400	982.029585837726	268.07122382999
7	401	982.954438712094	262.30869630303
7	402	990.277402127388	260.44440946987
7	405	995.388525575268	259.85705209386
7	406	997.565337109703	220.77538405882
7	407	1001.558042729013	221.94369203968
7	408	1002.526813302988	217.38615054963
7	411	1004.71598295501	199.79630526978
7	414	1013.618090303154	204.30716838517
7	419	1024.209920629874	211.10511019111
7	422	1031.495444191836	218.18837645269
7	427	1041.426205784182	223.11761594064
7	432	1056.118540228127	231.81653803582
7	435	1057.810469229182	220.94553809245
7	436	1060.294328622412	222.94355548399
7	451	1088.598797300205	245.27238014566
7	452	1090.610949753841	240.39840793552
7	455	1092.480216108751	230.22395684683
7	458	1099.886545428239	218.05634749842
7	465	1112.06042855495	228.4045431332
7	468	1117.584151694637	223.73010004407
7	471	1122.68945895778	224.7584966325
7	472	1124.279469661682	220.37391712507
7	475	1131.527566656502	224.04362898236
7	517	1255.750432456312	345.68345643372
7	520	1258.650221995029	325.39711446014
7	521	1260.147506042885	318.4904286802
7	522	1260.898803662703	317.93052550099
7	523	1261.071391413127	314.63065663949
7	524	1263.278123920797	315.12435934454
7	525	1267.387830913864	301.86649117252
7	526	1280.717635888662	299.71355983554
7	529	1288.480637461573	298.06718245905
7	530	1288.779984289792	284.33060863681
7	533	1297.499678326554	289.49599540312
7	538	1316.421453824281	301.03764967722
7	547	1332.714971107254	312.29702139987
7	548	1338.537825470046	313.98406910413
7	553	1350.339931162567	317.09055186375
7	558	1352.371014732206	315.0803071759
7	559	1354.124535648774	304.26575202601
7	560	1357.071569960472	303.60136325266
7	561	1357.308736614925	299.70084052939
7	564	1367.56593607784	306.16397609531
7	565	1372.860056610593	307.03807207712
7	566	1376.208136262421	308.42058134955
7	571	1386.727754450773	318.47481523698
7	576	1396.504895349492	305.15711749383
7	577	1396.813057075654	300.5441259153
7	578	1398.956781169779	297.99561049207
7	581	1410.500184928577	305.93549411954
7	582	1417.119565710007	312.26090669482
7	589	1437.79812119104	325.7301908436
7	594	1444.97559695221	325.87595918514
7	595	1446.778227118421	315.82074954084
7	596	1447.152158992567	308.37202750341
7	597	1448.181301107608	304.53361705639
7	600	1452.971894964756	308.64802331062
7	603	1458.100020392548	309.64986240452
7	606	1468.007030006308	309.37981812613
7	607	1472.594445962635	313.26277153753
7	608	1478.393419873126	310.03972401516
7	609	1479.4414305957	291.25053178884
7	610	1484.4151122552	290.16770304544
7	617	1501.406904319944	286.11749090579
7	618	1503.196536068455	263.16431875491
7	619	1503.384873787319	263.30236812303
7	620	1503.872157148805	250.16123984406
7	623	1511.762815318958	254.46911775505
7	626	1513.202802522448	229.38969308656
7	627	1514.03536472306	222.64595695873
7	634	1527.120936349859	225.82082688717
7	641	1547.219553442301	233.64972945428
7	642	1549.903523872354	233.20618191793
7	645	1555.424202827673	209.25700524019
7	646	1565.651674703973	215.62295100068
7	647	1565.913752465449	214.40161731899
7	648	1566.326036296577	214.15357900589
7	651	1574.605416328856	211.38060147868
7	654	1576.326586260915	198.5536364345
7	655	1576.844102092096	198.46443276147
7	675	1617.807816456344	226.37549022038
7	676	1618.273204262654	224.58711934715
7	679	1621.882722934272	216.2531557549
7	680	1622.459534003185	203.99035896011
7	687	1635.583657231962	215.82283340724
7	734	1751.891284377672	325.99808492113
7	735	1763.770819279903	323.93395444652
7	752	1808.833562258944	364.07114846844
7	753	1811.565900566307	363.30250449002
7	756	1822.109628271568	368.44998187962
7	757	1824.960543244965	359.59142493433
7	760	1826.877261333696	329.70030503311
7	761	1834.262590066117	336.30057389315
7	772	1854.82001627751	356.81427189859
7	780	1880.259631588904	371.48247995517
7	781	1880.675931838966	367.59491732858
7	789	1910.356117797481	391.3317705186
7	790	1912.149283874027	390.92492202601
7	793	1925.712790292073	404.29167255227
7	799	1941.35002489295	414.17369211703
7	800	1953.68456582623	414.6107990587
7	801	1959.966332832604	417.87111688822
7	802	1966.845854906172	415.03458590728
7	805	1967.960564143566	399.32750261908
7	806	1974.034189089699	399.35413709262
7	809	1980.057079309326	399.32554775988
7	814	1995.248025547849	408.99082113503
7	815	1996.674603431223	407.12894831141
7	816	1997.052291581156	393.12843318398
7	819	2002.441030318085	392.93303861204
7	822	2009.368963579208	390.24581504082
7	825	2016.318344960091	390.65535232502
7	828	2021.928246006087	393.08220182989
7	829	2028.987587171329	397.06662525114
7	834	2032.884230409546	397.20688508146
7	835	2034.014630522537	392.36114159702
7	846	2061.836414432687	406.84031098838
7	847	2069.283007069398	406.19233108846
7	850	2074.878632279315	370.191545203
7	851	2076.3036473183	366.53328366576
7	856	2096.455747233069	380.18972440537
7	862	2104.654370841398	383.71054587397
7	865	2112.335217206565	383.69749315917
7	868	2116.615074414917	384.97832681072
7	869	2117.371946703217	370.49320814742
7	872	2124.198232410553	356.80564418856
7	875	2140.383819364782	372.69813220275
7	878	2144.374931760342	359.82469049941
7	879	2145.661942322523	360.82090246414
7	882	2150.724513352051	364.30927004023
7	883	2155.392729875146	365.7765919662
7	884	2158.329546273652	364.509199512
7	895	2179.367889914153	378.94111459664
7	896	2179.791728726517	367.47017308161
7	897	2184.959450354953	358.82694007162
7	902	2191.339806147625	354.10710548235
7	909	2197.573196451844	357.06828566275
7	916	2207.330652767486	364.74049053995
7	919	2209.726383288234	361.73193075891
7	924	2216.459792278796	362.38784937587
7	929	2221.352753158732	364.6765021947
7	936	2233.746509683232	374.9379821089
7	939	2234.721420052799	351.24456085554
7	940	2239.455081429612	345.43894559035
7	941	2240.622993480646	325.19321892298
7	942	2246.883866879829	319.71653259016
7	949	2256.757569263291	289.57424878827
7	952	2263.424653120683	283.79873355941
7	957	2266.472373775373	280.77945021624
7	958	2266.923306929423	273.41408792261
7	961	2280.647788424624	281.60291631066
7	962	2283.741411902797	277.51621930178
7	963	2287.668723252052	276.26278506567
7	964	2290.920311403517	272.28300232882
7	971	2296.092421385945	265.7665555314
7	972	2298.884934655212	267.84225970584
7	981	2316.731969079591	281.60351674472
7	982	2321.914577723488	284.31488359529
7	985	2325.054833861463	251.98746261903
7	988	2332.693244845552	254.32038336773
7	1007	2366.044321094392	279.70663072372
7	1010	2372.101371501724	274.55595796683
7	1015	2391.04257969701	281.69862089939
7	1018	2393.192394700985	277.87224510675
7	1021	2406.224208428539	282.78652135454
7	1028	2417.170489197232	278.59078359417
7	1031	2419.035229618172	275.52376015244
7	1034	2437.899817957131	292.04565666088
7	1044	2441.864763076397	279.48195096137
7	1047	2447.265868658172	284.17658495977
8	176	400.436243268089	19
8	177	400.729082751474	20
8	180	403.253679772657	21
8	181	403.310693480699	22
8	184	406.318849967206	23
8	185	410.802550446229	24
8	188	413.590175236404	25
8	193	423.251982777809	26
8	201	435.169449652658	27
8	202	435.580303898178	28
8	203	437.285637250742	29
8	204	444.756951977874	30
8	215	486.503523960611	31
8	216	487.602345660398	32
8	219	495.781131868256	33
8	222	498.918586072189	34
8	225	503.036490999285	35
8	238	553.748503139575	36
8	239	558.78099726684	37
8	242	564.47565164207	38
8	250	596.167911230839	39
8	253	600.626413564822	40
8	254	601.490671776339	41
8	257	607.103207677686	42
8	261	631.567599107175	43
8	262	632.390962379256	44
8	263	632.802073430864	45
8	306	736.234295193641	46
8	307	737.493628076271	47
8	308	745.324467680589	48
8	309	748.816116650705	49
8	310	754.934825812872	50
8	311	769.972966760889	51
8	316	781.857459049553	52
8	319	787.005987662962	53
8	320	800.643262341149	54
8	323	805.42023588514	55
8	357	876.894700469984	56
8	368	896.039239856937	57
8	379	924.902910486026	58
8	380	928.718538320171	59
8	383	938.222504362499	60
8	384	941.550480807746	61
8	393	948.430312981566	62
8	396	969.47048459042	63
8	397	971.540968694748	64
8	400	982.029585837726	65
8	401	982.954438712094	66
8	402	990.277402127388	67
8	406	997.565337109703	68
8	407	1001.558042729013	69
8	408	1002.526813302988	70
8	411	1004.71598295501	71
8	422	1031.495444191836	72
8	435	1057.810469229182	73
8	436	1060.294328622412	74
8	452	1090.610949753841	75
8	455	1092.480216108751	76
8	458	1099.886545428239	77
8	468	1117.584151694637	78
8	471	1122.68945895778	79
8	472	1124.279469661682	80
8	475	1131.527566656502	81
8	520	1258.650221995029	82
8	521	1260.147506042885	83
8	522	1260.898803662703	84
8	523	1261.071391413127	85
8	524	1263.278123920797	86
8	525	1267.387830913864	87
8	526	1280.717635888662	88
8	529	1288.480637461573	89
8	530	1288.779984289792	90
8	533	1297.499678326554	91
8	548	1338.537825470046	92
8	553	1350.339931162567	93
8	559	1354.124535648774	94
8	560	1357.071569960472	95
8	561	1357.308736614925	96
8	564	1367.56593607784	97
8	565	1372.860056610593	98
8	566	1376.208136262421	99
8	571	1386.727754450773	100
8	576	1396.504895349492	101
8	577	1396.813057075654	102
8	578	1398.956781169779	103
8	581	1410.500184928577	104
8	582	1417.119565710007	105
8	594	1444.97559695221	106
8	595	1446.778227118421	107
8	596	1447.152158992567	108
8	597	1448.181301107608	109
8	600	1452.971894964756	110
8	606	1468.007030006308	111
8	607	1472.594445962635	112
8	608	1478.393419873126	113
8	609	1479.4414305957	114
8	610	1484.4151122552	115
8	617	1501.406904319944	116
8	618	1503.196536068455	117
8	619	1503.384873787319	118
8	620	1503.872157148805	119
8	623	1511.762815318958	120
8	626	1513.202802522448	121
8	627	1514.03536472306	122
8	634	1527.120936349859	123
8	642	1549.903523872354	124
8	646	1565.651674703973	125
8	647	1565.913752465449	126
8	648	1566.326036296577	127
8	651	1574.605416328856	128
8	655	1576.844102092096	129
8	676	1618.273204262654	130
8	680	1622.459534003185	131
8	735	1763.770819279903	132
8	753	1811.565900566307	133
8	756	1822.109628271568	134
8	757	1824.960543244965	135
8	761	1834.262590066117	136
8	781	1880.675931838966	137
8	790	1912.149283874027	138
8	793	1925.712790292073	139
8	800	1953.68456582623	140
8	801	1959.966332832604	141
8	802	1966.845854906172	142
8	805	1967.960564143566	143
8	806	1974.034189089699	144
8	809	1980.057079309326	145
8	815	1996.674603431223	146
8	816	1997.052291581156	147
8	819	2002.441030318085	148
8	822	2009.368963579208	149
8	825	2016.318344960091	150
8	828	2021.928246006087	151
8	829	2028.987587171329	152
8	834	2032.884230409546	153
8	835	2034.014630522537	154
8	847	2069.283007069398	155
8	850	2074.878632279315	156
8	851	2076.3036473183	157
8	865	2112.335217206565	158
8	869	2117.371946703217	159
8	872	2124.198232410553	160
8	875	2140.383819364782	161
8	878	2144.374931760342	162
8	879	2145.661942322523	163
8	883	2155.392729875146	164
8	884	2158.329546273652	165
8	896	2179.791728726517	166
8	897	2184.959450354953	167
8	909	2197.573196451844	168
8	916	2207.330652767486	169
8	919	2209.726383288234	170
8	924	2216.459792278796	171
8	929	2221.352753158732	172
8	939	2234.721420052799	173
8	940	2239.455081429612	174
8	941	2240.622993480646	175
8	942	2246.883866879829	176
8	949	2256.757569263291	177
8	952	2263.424653120683	178
8	958	2266.923306929423	179
8	962	2283.741411902797	180
8	963	2287.668723252052	181
8	964	2290.920311403517	182
8	972	2298.884934655212	183
8	981	2316.731969079591	184
8	982	2321.914577723488	185
8	985	2325.054833861463	186
8	988	2332.693244845552	187
8	1010	2372.101371501724	188
8	1018	2393.192394700985	189
8	1021	2406.224208428539	190
8	1031	2419.035229618172	191
8	1034	2437.899817957131	192
8	1047	2447.265868658172	193
9	176	400.436243268089	163.29128019805
9	177	400.729082751474	149.10432420174
9	180	403.253679772657	147.11373042899
9	181	403.310693480699	140.74848988645
9	184	406.318849967206	138.3491990396
9	185	410.802550446229	135.76309043202
9	188	413.590175236404	123.90576431216
9	193	423.251982777809	127.04136228325
9	201	435.169449652658	133.26626901413
9	202	435.580303898178	128.12715428067
9	203	437.285637250742	127.2833263189
9	204	444.756951977874	112.49122783915
9	215	486.503523960611	144.64881128361
9	216	487.602345660398	139.59165779451
9	219	495.781131868256	141.56032397619
9	222	498.918586072189	140.10190796733
9	225	503.036490999285	140.11760605186
9	238	553.748503139575	167.05653688759
9	239	558.78099726684	167.30067493482
9	242	564.47565164207	161.56386555886
9	250	596.167911230839	183.9946056467
9	253	600.626413564822	184.52430103558
9	254	601.490671776339	179.72106952284
9	257	607.103207677686	179.97025319364
9	261	631.567599107175	197.71769018774
9	262	632.390962379256	184.98247298537
9	263	632.802073430864	174.58521037317
9	306	736.234295193641	251.19491181018
9	307	737.493628076271	244.84830501158
9	308	745.324467680589	246.90717981247
9	309	748.816116650705	248.1509193294
9	310	754.934825812872	250.71548849921
9	311	769.972966760889	256.89485101352
9	316	781.857459049553	252.25129984533
9	319	787.005987662962	239.62226783796
9	320	800.643262341149	237.82292656753
9	323	805.42023588514	239.85095543562
9	357	876.894700469984	300.44581482193
9	368	896.039239856937	289.74960283738
9	379	924.902910486026	290.45488210167
9	380	928.718538320171	278.3663336501
9	383	938.222504362499	272.45608387392
9	384	941.550480807746	269.88938458799
9	393	948.430312981566	267.58571190408
9	396	969.47048459042	275.03648757882
9	397	971.540968694748	270.55499880541
9	400	982.029585837726	280.22338766644
9	401	982.954438712094	268.99607670436
9	402	990.277402127388	269.63165971833
9	406	997.565337109703	262.03386362829
9	407	1001.558042729013	224.76808967813
9	408	1002.526813302988	222.91246261366
9	411	1004.71598295501	219.57532020165
9	422	1031.495444191836	218.39063375307
9	435	1057.810469229182	233.50846703688
9	436	1060.294328622412	223.42939748568
9	452	1090.610949753841	247.2845325993
9	455	1092.480216108751	242.26767429043
9	458	1099.886545428239	237.63028616631
9	468	1117.584151694637	233.92826627288
9	471	1122.68945895778	228.83540730721
9	472	1124.279469661682	226.3485073364
9	475	1131.527566656502	227.62201411989
9	520	1258.650221995029	348.58324597244
9	521	1260.147506042885	326.89439850799
9	522	1260.898803662703	319.24172630002
9	523	1261.071391413127	318.10311325142
9	524	1263.278123920797	316.83738914716
9	525	1267.387830913864	319.2340663376
9	526	1280.717635888662	315.19629614731
9	529	1288.480637461573	307.47656140845
9	530	1288.779984289792	298.36652928727
9	533	1297.499678326554	293.05030267358
9	548	1338.537825470046	318.11987576266
9	553	1350.339931162567	325.78617479665
9	559	1354.124535648774	316.83382809247
9	560	1357.071569960472	307.21278633771
9	561	1357.308736614925	303.83852990711
9	564	1367.56593607784	309.95803999231
9	565	1372.860056610593	311.45809662806
9	566	1376.208136262421	310.38615172894
9	571	1386.727754450773	318.9401995379
9	576	1396.504895349492	328.2519561357
9	577	1396.813057075654	305.46527921999
9	578	1398.956781169779	302.68785000942
9	581	1410.500184928577	309.53901425087
9	582	1417.119565710007	312.55487490097
9	594	1444.97559695221	332.90766660477
9	595	1446.778227118421	327.67858935136
9	596	1447.152158992567	316.19468141499
9	597	1448.181301107608	309.40116961845
9	600	1452.971894964756	309.32421091354
9	606	1468.007030006308	319.55687201828
9	607	1472.594445962635	313.96723408246
9	608	1478.393419873126	319.06174544802
9	609	1479.4414305957	311.08773473774
9	610	1484.4151122552	296.22421344833
9	617	1501.406904319944	307.15949511018
9	618	1503.196536068455	287.9071226543
9	619	1503.384873787319	263.35265647378
9	620	1503.872157148805	263.78965148451
9	623	1511.762815318958	258.05189801421
9	626	1513.202802522448	255.90910495854
9	627	1514.03536472306	230.22225528718
9	634	1527.120936349859	235.73152858553
9	642	1549.903523872354	236.33369988433
9	646	1565.651674703973	219.48447711649
9	647	1565.913752465449	215.88502876216
9	648	1566.326036296577	214.81390115012
9	651	1574.605416328856	222.43295903817
9	655	1576.844102092096	199.07115226568
9	676	1618.273204262654	226.84087802669
9	680	1622.459534003185	216.82996682381
9	735	1763.770819279903	337.87761982336
9	753	1811.565900566307	366.80348677581
9	756	1822.109628271568	373.84623219528
9	757	1824.960543244965	371.30089685301
9	761	1834.262590066117	337.08563376553
9	781	1880.675931838966	371.89878020523
9	790	1912.149283874027	393.12493659515
9	793	1925.712790292073	404.48842844406
9	800	1953.68456582623	426.50823305031
9	801	1959.966332832604	420.89256606507
9	802	1966.845854906172	424.75063896179
9	805	1967.960564143566	416.14929514467
9	806	1974.034189089699	405.40112756521
9	809	1980.057079309326	405.37702731225
9	815	1996.674603431223	410.4173990184
9	816	1997.052291581156	407.50663646135
9	819	2002.441030318085	398.51717192091
9	822	2009.368963579208	399.86097187317
9	825	2016.318344960091	397.1951964217
9	828	2021.928246006087	396.26525337101
9	829	2028.987587171329	400.14154299514
9	834	2032.884230409546	400.96326848936
9	835	2034.014630522537	398.33728519445
9	847	2069.283007069398	414.28690362509
9	850	2074.878632279315	411.78795629837
9	851	2076.3036473183	371.61656024199
9	865	2112.335217206565	391.39139223913
9	869	2117.371946703217	385.73519909902
9	872	2124.198232410553	377.31949385476
9	875	2140.383819364782	372.99123114279
9	878	2144.374931760342	376.6892445983
9	879	2145.661942322523	361.11170106159
9	883	2155.392729875146	368.97748656333
9	884	2158.329546273652	368.7134083647
9	896	2179.791728726517	379.364953409
9	897	2184.959450354953	372.63789471004
9	909	2197.573196451844	360.34049578657
9	916	2207.330652767486	366.82574197839
9	919	2209.726383288234	367.1362210607
9	924	2216.459792278796	368.46533974948
9	929	2221.352753158732	367.2808102558
9	939	2234.721420052799	375.91289247847
9	940	2239.455081429612	355.97822223236
9	941	2240.622993480646	346.60685764139
9	942	2246.883866879829	331.45409232216
9	949	2256.757569263291	329.59023497362
9	952	2263.424653120683	296.24133264566
9	958	2266.923306929423	281.23038337029
9	962	2283.741411902797	284.69653978883
9	963	2287.668723252052	281.44353065103
9	964	2290.920311403517	279.51437321713
9	972	2298.884934655212	268.55906880067
9	981	2316.731969079591	285.68929413022
9	982	2321.914577723488	286.78612538862
9	985	2325.054833861463	287.45513973327
9	988	2332.693244845552	259.62587360312
9	1010	2372.101371501724	285.76368113105
9	1018	2393.192394700985	283.84843590337
9	1021	2406.224208428539	290.90405883431
9	1031	2419.035229618172	280.45552401511
9	1034	2437.899817957131	294.3883484914
9	1047	2447.265868658172	284.88305654314
10	197	429.073456309595	11
10	208	458.216863057689	12
10	213	485.039383383465	13
10	227	504.219337313665	14
10	244	565.569280449517	15
10	259	626.472031129181	16
10	265	634.336558468053	17
10	325	809.310921917985	18
10	361	883.655885421752	19
10	372	903.905552536614	20
10	375	907.483937674146	21
10	404	990.413455002523	22
10	413	1008.003682923438	23
10	418	1020.417949707382	24
10	424	1033.249379298814	25
10	431	1053.470206707816	26
10	440	1065.821984533476	27
10	464	1104.858659015191	28
10	479	1143.647684051215	29
10	535	1301.300109462689	30
10	540	1316.697341954421	31
10	557	1352.172457290686	32
10	586	1419.760823824721	33
10	602	1453.65964639195	34
10	638	1539.073766767534	35
10	644	1551.811268998897	36
10	653	1574.680051997075	37
10	657	1580.731531549448	38
10	678	1619.123148538388	39
10	684	1628.846044176192	40
10	691	1641.653488925519	41
10	737	1767.39258822199	42
10	759	1826.132510283332	43
10	763	1837.232700665273	44
10	774	1856.676250964027	45
10	783	1883.476859197256	46
10	795	1927.167334289672	47
10	811	1985.692923559129	48
10	837	2035.12845233487	49
10	855	2086.337690370672	50
10	858	2097.545413534898	51
10	867	2115.320149594233	52
10	881	2145.854161296251	53
10	890	2165.681529415681	54
10	899	2187.109250616897	55
10	931	2221.454825515369	56
10	956	2264.236815591852	57
10	960	2271.874558676346	58
10	970	2293.078236472355	59
10	990	2336.495621840945	60
10	1012	2372.17973835098	61
10	1023	2414.535637886846	62
10	1038	2439.36645112858	63
10	1051	2452.701691149425	64
11	1066	2500	0.0772
12	1066	2500	0.048

