version 2
run experiments_hard_game_mode1-1396-20230311-19:44:27-12032
attr configname experiments_hard_game_mode1
attr datetime 20230311-19:44:27
attr experiment experiments_hard_game_mode1
attr inifile omnetpp.ini
attr iterationvars "$0=9.5, $1=6, $2=0"
attr iterationvarsf 9.5,6,0-
attr measurement "$0=9.5, $1=6, $2=0"
attr network Network
attr processid 12032
attr repetition 16
attr replication #16
attr resultdir results
attr runnumber 1396
attr seedset 16
param *.boss.arrival_mean 20
param *.boss.service_mean 9.5
param *.minion.arrival_mean 10
param *.minion.service_mean 6
param *.player.recover_rate_x 0
param **.minion.arrival_distribution 0
param **.minion.service_distribution 0
param **.boss.arrival_distribution 0
param **.boss.service_distribution 0

vector 0 Network.player boss_defeated_stat:vector ETV
attr source signal_boss_defeated
vector 1 Network.player boss_jobs_queue_number_stat:vector ETV
attr source signal_boss_jobs_queue_number
vector 2 Network.player boss_response_time_stat:vector ETV
attr source signal_boss_response_time
vector 3 Network.player boss_waiting_time_stat:vector ETV
attr source signal_boss_waiting_time
vector 4 Network.player minion_jobs_number_stat:vector ETV
attr source signal_minion_jobs_number
vector 5 Network.player minion_jobs_queue_number_stat:vector ETV
attr source signal_minion_jobs_queue_number
vector 6 Network.player boss_jobs_number_stat:vector ETV
attr source signal_boss_jobs_number
vector 7 Network.player minion_waiting_time_stat:vector ETV
attr source signal_minion_waiting_time
vector 8 Network.player minion_defeated_stat:vector ETV
attr source signal_minion_defeated
vector 9 Network.player minion_response_time_stat:vector ETV
attr source signal_minion_response_time
vector 10 Network.player minion_recovered_stat:vector ETV
attr source signal_minion_recovered
vector 11 Network.player minion_throughput:vector ETV
attr source signal_minion_throughput
vector 12 Network.player boss_throughput:vector ETV
attr source signal_boss_throughput
0	147	353.40520861996	18
0	148	353.861498618096	19
0	149	360.733666942577	20
0	156	377.093689181826	21
0	157	379.050345839833	22
0	162	387.563944694554	23
0	165	393.547319606144	24
0	168	396.30657469272	25
0	174	401.77762993429	26
0	177	405.372889799226	27
0	184	412.543175378618	28
0	192	426.789067741756	29
0	198	438.174506616961	30
0	221	480.800563663833	31
0	243	538.489846409319	32
0	244	541.315014184493	33
0	251	554.745816875732	34
0	252	554.851992090275	35
0	265	570.912141494605	36
0	282	594.260809371113	37
0	297	635.845069115343	38
0	305	658.766757545169	39
0	316	676.277849791057	40
0	317	676.697266818972	41
0	322	688.289255755606	42
0	337	717.751494357521	43
0	338	723.855249684417	44
0	339	728.671387744602	45
0	342	738.364088717073	46
0	354	760.885002872364	47
0	359	771.536797943922	48
0	364	774.054531552752	49
0	365	776.015317319174	50
0	373	786.3101324098	51
0	389	820.228237921917	52
0	398	827.85590751993	53
0	399	834.203709834075	54
0	414	845.913710873062	55
0	417	848.889476530406	56
0	426	878.022953947813	57
0	431	882.109457933169	58
0	434	890.860044429947	59
0	435	891.409466956397	60
0	438	896.298027202554	61
0	441	911.713999659317	62
0	442	915.878768771878	63
0	449	953.410478877382	64
0	450	969.397914355354	65
0	461	990.315424414671	66
0	462	993.671886855648	67
0	463	994.64027517333	68
0	468	1002.113075778224	69
0	473	1005.946123986838	70
0	486	1037.287211844029	71
0	493	1060.477817543035	72
0	494	1062.402520988994	73
0	495	1062.814191508441	74
0	502	1075.182654101623	75
0	509	1087.6337203744	76
0	518	1100.187078615699	77
0	521	1108.564477293075	78
0	522	1109.013241634522	79
0	523	1109.931641498383	80
0	538	1143.113859281266	81
0	543	1162.637112357241	82
0	544	1167.034648995571	83
0	547	1173.496013560234	84
0	548	1185.156241104133	85
0	598	1273.506690801754	86
0	603	1276.547734079388	87
0	606	1294.377910475539	88
0	638	1355.227747244166	89
0	660	1384.555023982678	90
0	661	1388.011158997161	91
0	672	1415.586692764857	92
0	673	1417.006837193835	93
0	674	1422.497938052852	94
0	683	1457.586039925561	95
0	684	1460.942030978634	96
0	689	1473.331038793107	97
0	700	1495.728934277246	98
0	703	1517.092316184987	99
0	706	1534.6444942072	100
0	707	1538.798577189143	101
0	712	1544.972177315884	102
0	738	1613.86773868821	103
0	739	1621.056193556783	104
0	740	1625.916761508142	105
0	745	1644.743966053793	106
0	750	1660.195637737571	107
0	759	1679.810485642354	108
0	760	1685.445945542939	109
0	771	1704.51236008306	110
0	795	1757.670508180943	111
0	798	1762.107818324141	112
0	809	1781.783107715294	113
0	816	1807.168017654002	114
0	819	1809.77271733933	115
0	860	1905.126557212347	116
0	863	1915.843116454926	117
0	864	1916.950140940253	118
0	865	1922.276652531227	119
0	868	1927.677425522299	120
0	869	1930.09964573307	121
0	879	1951.514231943712	122
0	880	1953.078698873433	123
0	889	1962.06555344539	124
0	899	1982.365517185764	125
0	904	1997.470631630829	126
0	919	2027.772191392074	127
0	920	2029.593593536142	128
0	923	2039.245279692531	129
0	924	2041.493213640722	130
0	954	2110.651811955158	131
0	955	2110.883052972378	132
0	958	2117.99267282066	133
0	959	2118.991377570484	134
0	962	2121.660555455949	135
0	975	2144.336835287756	136
0	976	2144.610967422123	137
0	977	2155.753327349156	138
0	980	2166.899881808878	139
0	1001	2207.464713864657	140
0	1002	2210.804632005614	141
0	1007	2227.331650200828	142
0	1014	2241.293166938143	143
0	1015	2245.69479886661	144
0	1027	2253.206747066772	145
0	1041	2297.082542112931	146
0	1048	2316.770894377282	147
0	1100	2385.505645630798	148
0	1108	2399.227118295402	149
0	1116	2417.287925017583	150
0	1123	2429.048744036315	151
0	1140	2455.882395937209	152
0	1141	2457.635357727627	153
0	1146	2462.303255156261	154
1	147	353.40520861996	4
1	148	353.861498618096	3
1	149	360.733666942577	2
1	155	369.138949755894	2
1	156	377.093689181826	2
1	157	379.050345839833	1
1	161	385.453117749827	1
1	162	387.563944694554	1
1	164	392.547813056844	1
1	165	393.547319606144	1
1	168	396.30657469272	0
1	171	400.238876986431	0
1	173	400.875830780534	1
1	174	401.77762993429	1
1	176	402.148108483634	1
1	177	405.372889799226	1
1	184	412.543175378618	0
1	191	424.812540692519	0
1	192	426.789067741756	0
1	195	429.941475816797	0
1	198	438.174506616961	0
1	214	476.703449272382	0
1	221	480.800563663833	0
1	224	483.215547513179	0
1	230	497.665056686089	1
1	236	502.518415000999	2
1	240	518.010136143749	3
1	243	538.489846409319	3
1	244	541.315014184493	2
1	251	554.745816875732	1
1	252	554.851992090275	0
1	260	567.422534967774	0
1	265	570.912141494605	0
1	281	589.254921646886	0
1	282	594.260809371113	0
1	296	633.612335763276	0
1	297	635.845069115343	0
1	302	653.717876567391	0
1	304	656.162405383807	1
1	305	658.766757545169	1
1	307	664.883556027538	1
1	309	665.805119266422	2
1	311	666.345196335487	3
1	316	676.277849791057	3
1	317	676.697266818972	2
1	319	681.955333536092	2
1	321	685.56874799801	3
1	322	688.289255755606	3
1	334	711.427100791882	3
1	337	717.751494357521	3
1	338	723.855249684417	2
1	339	728.671387744602	1
1	342	738.364088717073	0
1	349	753.719190786411	0
1	351	758.457762291243	1
1	353	759.862359115068	2
1	354	760.885002872364	2
1	359	771.536797943922	1
1	363	773.592507289388	1
1	364	774.054531552752	1
1	365	776.015317319174	0
1	370	782.804215248613	0
1	373	786.3101324098	0
1	384	812.083228163358	0
1	386	814.53789680283	1
1	389	820.228237921917	1
1	391	821.314613689265	1
1	393	823.339640693145	2
1	395	824.380758877111	3
1	397	826.130509309885	4
1	398	827.85590751993	4
1	399	834.203709834075	3
1	401	840.108369561828	3
1	405	841.927159132011	4
1	407	843.753911163271	5
1	411	844.204056085925	6
1	413	844.767347024862	7
1	414	845.913710873062	7
1	417	848.889476530406	6
1	425	874.251744450862	6
1	426	878.022953947813	6
1	430	881.630829256108	6
1	431	882.109457933169	6
1	433	882.640125728282	6
1	434	890.860044429947	6
1	435	891.409466956397	5
1	437	895.753310537335	5
1	438	896.298027202554	5
1	440	908.271428453241	5
1	441	911.713999659317	5
1	442	915.878768771878	4
1	444	916.148443900527	4
1	449	953.410478877382	4
1	450	969.397914355354	3
1	452	972.831961978536	3
1	454	979.360375048207	4
1	458	984.240373431469	5
1	461	990.315424414671	5
1	462	993.671886855648	4
1	463	994.64027517333	3
1	465	994.891896571427	3
1	468	1002.113075778224	3
1	470	1003.858883076407	3
1	473	1005.946123986838	3
1	475	1015.591232681327	3
1	477	1016.22762365404	4
1	486	1037.287211844029	4
1	488	1037.619457588496	4
1	490	1044.868849600906	5
1	493	1060.477817543035	5
1	494	1062.402520988994	4
1	495	1062.814191508441	3
1	497	1065.665815288377	3
1	501	1069.837508154843	4
1	502	1075.182654101623	4
1	506	1083.0195610608	4
1	508	1085.716712364398	5
1	509	1087.6337203744	5
1	515	1091.165896348159	5
1	518	1100.187078615699	5
1	520	1101.862008106945	5
1	521	1108.564477293075	5
1	522	1109.013241634522	4
1	523	1109.931641498383	3
1	527	1110.640880361671	3
1	538	1143.113859281266	3
1	543	1162.637112357241	2
1	544	1167.034648995571	1
1	546	1168.530077245097	1
1	547	1173.496013560234	1
1	548	1185.156241104133	0
1	593	1268.922055384295	0
1	595	1269.704014982941	1
1	598	1273.506690801754	1
1	603	1276.547734079388	0
1	605	1289.557095687291	0
1	606	1294.377910475539	0
1	635	1352.506855732944	0
1	638	1355.227747244166	0
1	649	1370.404388530883	0
1	653	1373.105114693269	1
1	655	1380.113067217977	2
1	659	1381.736131665	3
1	660	1384.555023982678	3
1	661	1388.011158997161	2
1	667	1398.191573523998	2
1	669	1401.824001929381	3
1	671	1411.331822722844	4
1	672	1415.586692764857	4
1	673	1417.006837193835	3
1	674	1422.497938052852	2
1	683	1457.586039925561	1
1	684	1460.942030978634	0
1	688	1473.250787678847	0
1	689	1473.331038793107	0
1	693	1484.54545862394	0
1	695	1490.786627567511	1
1	700	1495.728934277246	1
1	702	1515.939404877614	1
1	703	1517.092316184987	1
1	705	1518.058639666684	1
1	706	1534.6444942072	1
1	707	1538.798577189143	0
1	711	1541.328091502649	0
1	712	1544.972177315884	0
1	725	1588.998828454145	0
1	733	1591.826544490865	1
1	737	1607.947249559554	2
1	738	1613.86773868821	2
1	739	1621.056193556783	1
1	740	1625.916761508142	0
1	742	1626.570445940533	0
1	745	1644.743966053793	0
1	749	1654.192015298371	0
1	750	1660.195637737571	0
1	756	1674.039597021772	0
1	758	1676.296778732605	1
1	759	1679.810485642354	1
1	760	1685.445945542939	0
1	770	1704.085550962152	0
1	771	1704.51236008306	0
1	782	1734.959901667771	0
1	788	1750.512206608145	1
1	795	1757.670508180943	1
1	798	1762.107818324141	0
1	804	1772.016630625158	0
1	809	1781.783107715294	0
1	811	1784.953323999097	0
1	813	1793.940302291954	1
1	816	1807.168017654002	1
1	819	1809.77271733933	0
1	845	1863.116674614531	0
1	851	1884.1048210951	1
1	853	1886.579840852465	2
1	857	1891.821254052115	3
1	859	1901.129284237924	4
1	860	1905.126557212347	4
1	863	1915.843116454926	3
1	864	1916.950140940253	2
1	865	1922.276652531227	1
1	867	1926.365454818449	1
1	868	1927.677425522299	1
1	869	1930.09964573307	0
1	876	1944.433785012692	0
1	878	1950.622018393725	1
1	879	1951.514231943712	1
1	880	1953.078698873433	0
1	884	1957.125124651231	0
1	889	1962.06555344539	0
1	894	1976.624516113971	0
1	896	1977.707499429506	1
1	899	1982.365517185764	1
1	904	1997.470631630829	0
1	910	2011.380908373739	0
1	914	2024.89113310012	1
1	916	2025.694562311325	2
1	919	2027.772191392074	2
1	920	2029.593593536142	1
1	922	2037.032684837172	1
1	923	2039.245279692531	1
1	924	2041.493213640722	0
1	929	2054.92630997997	0
1	933	2066.558161474897	1
1	941	2074.312271274971	2
1	945	2085.148294294305	3
1	947	2099.473183195357	4
1	949	2102.146138877737	5
1	954	2110.651811955158	5
1	955	2110.883052972378	4
1	957	2116.145782370907	4
1	958	2117.99267282066	4
1	959	2118.991377570484	3
1	961	2121.486056362826	3
1	962	2121.660555455949	3
1	966	2128.938193055579	3
1	970	2138.670385373158	4
1	975	2144.336835287756	4
1	976	2144.610967422123	3
1	977	2155.753327349156	2
1	980	2166.899881808878	1
1	988	2186.38555087349	1
1	994	2196.988326593044	2
1	1000	2203.396636789965	3
1	1001	2207.464713864657	3
1	1002	2210.804632005614	2
1	1004	2217.082690419149	2
1	1007	2227.331650200828	2
1	1014	2241.293166938143	1
1	1015	2245.69479886661	0
1	1026	2251.232106227058	0
1	1027	2253.206747066772	0
1	1040	2294.752183040791	0
1	1041	2297.082542112931	0
1	1047	2310.846390442859	0
1	1048	2316.770894377282	0
1	1095	2378.277617112147	0
1	1100	2385.505645630798	0
1	1107	2399.108451542096	0
1	1108	2399.227118295402	0
1	1113	2403.159387325714	0
1	1116	2417.287925017583	0
1	1122	2427.431392732234	0
1	1123	2429.048744036315	0
1	1131	2444.598988443805	0
1	1135	2455.21295102021	1
1	1140	2455.882395937209	1
1	1141	2457.635357727627	0
1	1143	2458.382625969776	0
1	1146	2462.303255156261	0
2	147	353.40520861996	59.821029441792
2	148	353.861498618096	47.662606299103
2	149	360.733666942577	31.780380575969
2	156	377.093689181826	46.316158921479
2	157	379.050345839833	45.244396711598
2	162	387.563944694554	18.42499493866
2	165	393.547319606144	8.094201856317
2	168	396.30657469272	3.758761635876
2	174	401.77762993429	1.538752947859
2	177	405.372889799226	4.497059018692
2	184	412.543175378618	10.395066894984
2	192	426.789067741756	1.976527049237
2	198	438.174506616961	8.233030800164
2	221	480.800563663833	4.097114391451
2	243	538.489846409319	55.27429889614
2	244	541.315014184493	43.649957498404
2	251	554.745816875732	52.227401874733
2	252	554.851992090275	36.841855946526
2	265	570.912141494605	3.489606526831
2	282	594.260809371113	5.005887724227
2	297	635.845069115343	2.232733352067
2	305	658.766757545169	5.048880977778
2	316	676.277849791057	20.11544440725
2	317	676.697266818972	11.813710791434
2	322	688.289255755606	22.484136489184
2	337	717.751494357521	51.406298022034
2	338	723.855249684417	41.899916148325
2	339	728.671387744602	43.102639746592
2	342	738.364088717073	26.936987925191
2	354	760.885002872364	7.165812085953
2	359	771.536797943922	13.079035652679
2	364	774.054531552752	14.192172437684
2	365	776.015317319174	2.422810029786
2	373	786.3101324098	3.505917161187
2	389	820.228237921917	8.145009758559
2	398	827.85590751993	13.3180107171
2	399	834.203709834075	12.88909614481
2	414	845.913710873062	22.574070179917
2	417	848.889476530406	24.508717653295
2	426	878.022953947813	51.892444637928
2	431	882.109457933169	42.001088371341
2	434	890.860044429947	48.932885297936
2	435	891.409466956397	47.655555793126
2	438	896.298027202554	52.093971116629
2	441	911.713999659317	66.946652634455
2	442	915.878768771878	41.627024321016
2	449	953.410478877382	71.779649621274
2	450	969.397914355354	86.757788627072
2	461	990.315424414671	94.562113877336
2	462	993.671886855648	85.400458402407
2	463	994.64027517333	78.491831272803
2	468	1002.113075778224	29.281113799688
2	473	1005.946123986838	26.585748938631
2	486	1037.287211844029	53.04683841256
2	493	1060.477817543035	65.585920971608
2	494	1062.402520988994	58.543637912587
2	495	1062.814191508441	47.222958827114
2	502	1075.182654101623	58.955030447583
2	509	1087.6337203744	50.014262785904
2	518	1100.187078615699	55.318229014793
2	521	1108.564477293075	42.898662004698
2	522	1109.013241634522	39.175733479679
2	523	1109.931641498383	26.912080437583
2	538	1143.113859281266	57.397146916868
2	543	1162.637112357241	71.471216009082
2	544	1167.034648995571	65.172640888626
2	547	1173.496013560234	62.855133198563
2	548	1185.156241104133	16.626163859036
2	598	1273.506690801754	4.584635417459
2	603	1276.547734079388	6.843719096447
2	606	1294.377910475539	4.820814788248
2	638	1355.227747244166	2.720891511222
2	660	1384.555023982678	14.150635451795
2	661	1388.011158997161	14.906044303892
2	672	1415.586692764857	35.47362554688
2	673	1417.006837193835	35.270705528835
2	674	1422.497938052852	24.306364528854
2	683	1457.586039925561	55.76203799618
2	684	1460.942030978634	49.61020825579
2	689	1473.331038793107	0.08025111426
2	700	1495.728934277246	11.183475653306
2	703	1517.092316184987	26.305688617476
2	706	1534.6444942072	18.705089329586
2	707	1538.798577189143	20.739937522459
2	712	1544.972177315884	3.644085813235
2	738	1613.86773868821	24.868910234065
2	739	1621.056193556783	29.229649065918
2	740	1625.916761508142	17.969511948588
2	745	1644.743966053793	18.17352011326
2	750	1660.195637737571	6.0036224392
2	759	1679.810485642354	5.770888620582
2	760	1685.445945542939	9.149166810334
2	771	1704.51236008306	0.426809120908
2	795	1757.670508180943	22.710606513172
2	798	1762.107818324141	11.595611715996
2	809	1781.783107715294	9.766477090136
2	816	1807.168017654002	22.214693654905
2	819	1809.77271733933	15.832415047376
2	860	1905.126557212347	42.009882597816
2	863	1915.843116454926	31.738295359826
2	864	1916.950140940253	30.370300087788
2	865	1922.276652531227	30.455398479112
2	868	1927.677425522299	26.548141284375
2	869	1930.09964573307	3.734190914621
2	879	1951.514231943712	7.08044693102
2	880	1953.078698873433	2.456680479708
2	889	1962.06555344539	4.940428794159
2	899	1982.365517185764	5.741001071793
2	904	1997.470631630829	19.763132201323
2	919	2027.772191392074	16.391283018335
2	920	2029.593593536142	4.702460436022
2	923	2039.245279692531	13.550717381206
2	924	2041.493213640722	4.46052880355
2	954	2110.651811955158	55.725501975188
2	955	2110.883052972378	44.324891497481
2	958	2117.99267282066	43.680401545689
2	959	2118.991377570484	33.843083276179
2	962	2121.660555455949	22.187372260592
2	975	2144.336835287756	42.190696410019
2	976	2144.610967422123	28.465185051216
2	977	2155.753327349156	34.26727098633
2	980	2166.899881808878	37.961688753299
2	1001	2207.464713864657	68.794328491499
2	1002	2210.804632005614	24.419081132124
2	1007	2227.331650200828	30.343323607784
2	1014	2241.293166938143	37.896530148178
2	1015	2245.69479886661	28.612108447461
2	1027	2253.206747066772	1.974640839714
2	1041	2297.082542112931	2.33035907214
2	1048	2316.770894377282	5.924503934423
2	1100	2385.505645630798	7.228028518651
2	1108	2399.227118295402	0.118666753306
2	1116	2417.287925017583	14.128537691869
2	1123	2429.048744036315	1.617351304081
2	1140	2455.882395937209	11.283407493404
2	1141	2457.635357727627	2.422406707417
2	1146	2462.303255156261	3.920629186485
3	147	353.40520861996	47.206316300967
3	148	353.861498618096	24.908212251488
3	149	360.733666942577	29.95613668223
3	156	377.093689181826	43.287740053591
3	157	379.050345839833	9.911396083939
3	162	387.563944694554	2.110826944727
3	165	393.547319606144	0.9995065493
3	171	400.238876986431	0
3	174	401.77762993429	0.901799153756
3	177	405.372889799226	3.224781315592
3	191	424.812540692519	0
3	195	429.941475816797	0
3	214	476.703449272382	0
3	224	483.215547513179	0
3	243	538.489846409319	40.82478972323
3	244	541.315014184493	38.796599183494
3	251	554.745816875732	36.735680731983
3	260	567.422534967774	0
3	281	589.254921646886	0
3	296	633.612335763276	0
3	302	653.717876567391	0
3	305	658.766757545169	2.604352161362
3	316	676.277849791057	11.394293763519
3	317	676.697266818972	10.89214755255
3	322	688.289255755606	21.944059420119
3	337	717.751494357521	35.796160821429
3	338	723.855249684417	38.286501686407
3	339	728.671387744602	17.24428695272
3	349	753.719190786411	0
3	354	760.885002872364	2.427240581121
3	359	771.536797943922	11.674438828854
3	364	774.054531552752	0.462024263364
3	370	782.804215248613	0
3	384	812.083228163358	0
3	389	820.228237921917	5.690341119087
3	398	827.85590751993	6.541293830665
3	399	834.203709834075	10.86406914093
3	414	845.913710873062	21.532951995951
3	417	848.889476530406	22.758967220521
3	426	878.022953947813	37.914584385985
3	431	882.109457933169	40.182298801158
3	434	890.860044429947	47.106133266676
3	435	891.409466956397	47.205410870472
3	438	896.298027202554	51.530680177692
3	441	911.713999659317	37.462255208455
3	442	915.878768771878	34.24793951577
3	449	953.410478877382	70.7703531491
3	450	969.397914355354	73.644603818019
3	461	990.315424414671	82.04399596143
3	462	993.671886855648	77.523442955121
3	463	994.64027517333	21.808313194794
3	468	1002.113075778224	22.752700730017
3	473	1005.946123986838	21.705750555369
3	486	1037.287211844029	42.395315272602
3	493	1060.477817543035	56.618934466628
3	494	1062.402520988994	46.811288307667
3	495	1062.814191508441	46.586567854401
3	502	1075.182654101623	37.563196513127
3	509	1087.6337203744	42.764870773494
3	518	1100.187078615699	34.521263327322
3	521	1108.564477293075	38.726969138232
3	522	1109.013241634522	25.993680573722
3	523	1109.931641498383	24.214929133985
3	538	1143.113859281266	51.947962933107
3	543	1162.637112357241	60.775104250296
3	544	1167.034648995571	56.3937686339
3	547	1173.496013560234	4.965936315137
3	593	1268.922055384295	0
3	598	1273.506690801754	3.802675818813
3	605	1289.557095687291	0
3	635	1352.506855732944	0
3	649	1370.404388530883	0
3	660	1384.555023982678	11.449909289409
3	661	1388.011158997161	7.898091779184
3	672	1415.586692764857	33.850561099857
3	673	1417.006837193835	18.815263669837
3	674	1422.497938052852	20.673936123471
3	683	1457.586039925561	46.254217202717
3	688	1473.250787678847	0
3	693	1484.54545862394	0
3	700	1495.728934277246	4.942306709735
3	703	1517.092316184987	1.152911307373
3	706	1534.6444942072	16.585854540516
3	711	1541.328091502649	0
3	725	1588.998828454145	0
3	738	1613.86773868821	22.041194197345
3	739	1621.056193556783	13.108943997229
3	742	1626.570445940533	0
3	749	1654.192015298371	0
3	756	1674.039597021772	0
3	759	1679.810485642354	3.513706909749
3	770	1704.085550962152	0
3	782	1734.959901667771	0
3	795	1757.670508180943	7.158301572798
3	804	1772.016630625158	0
3	811	1784.953323999097	0
3	816	1807.168017654002	13.227715362048
3	845	1863.116674614531	0
3	860	1905.126557212347	21.021736117247
3	863	1915.843116454926	29.263275602461
3	864	1916.950140940253	25.128886888138
3	865	1922.276652531227	21.147368293303
3	868	1927.677425522299	1.31197070385
3	876	1944.433785012692	0
3	879	1951.514231943712	0.892213549987
3	884	1957.125124651231	0
3	894	1976.624516113971	0
3	899	1982.365517185764	4.658017756258
3	910	2011.380908373739	0
3	919	2027.772191392074	2.881058291954
3	920	2029.593593536142	3.899031224817
3	923	2039.245279692531	2.212594855359
3	929	2054.92630997997	0
3	954	2110.651811955158	44.093650480261
3	955	2110.883052972378	36.570781697407
3	958	2117.99267282066	32.844378526355
3	959	2118.991377570484	19.518194375127
3	962	2121.660555455949	19.514416578212
3	975	2144.336835287756	28.191052916849
3	976	2144.610967422123	23.124911059297
3	977	2155.753327349156	26.815134293577
3	980	2166.899881808878	28.22949643572
3	1001	2207.464713864657	21.079162991167
3	1002	2210.804632005614	13.81630541257
3	1007	2227.331650200828	23.935013410863
3	1014	2241.293166938143	24.210476518994
3	1026	2251.232106227058	0
3	1040	2294.752183040791	0
3	1047	2310.846390442859	0
3	1095	2378.277617112147	0
3	1107	2399.108451542096	0
3	1113	2403.159387325714	0
3	1122	2427.431392732234	0
3	1131	2444.598988443805	0
3	1140	2455.882395937209	0.669444916999
3	1143	2458.382625969776	0
4	151	368.8046549948	9
4	153	369.032996633138	10
4	159	385.435273342652	11
4	167	395.504937079227	12
4	179	406.002142878933	12
4	181	408.543864616083	13
4	183	412.164437928249	14
4	186	417.244564880827	15
4	197	435.069822641035	12
4	201	444.73253469601	12
4	206	455.434219047854	10
4	208	455.45372300501	11
4	216	478.347216278201	8
4	218	478.710433170724	9
4	220	480.515052140072	10
4	226	485.243762285156	10
4	228	496.430731378896	11
4	232	498.869864410954	12
4	234	500.849184752619	13
4	238	506.038526886384	14
4	242	529.03255173219	15
4	246	549.13126875251	16
4	248	549.829030414174	17
4	250	552.782456114895	18
4	254	558.884773278836	19
4	262	568.083617207115	16
4	264	568.383343501675	17
4	267	570.956829549864	18
4	269	576.920273206442	19
4	272	579.228099088614	19
4	274	580.025927210517	20
4	276	581.960803174712	21
4	278	583.433851699979	22
4	286	605.380070849932	20
4	289	616.36163040096	20
4	292	627.496320317452	20
4	313	668.91895575793	16
4	315	673.632126531543	17
4	324	692.737293312491	18
4	326	692.918810680698	19
4	328	698.208839881957	20
4	330	702.555790210454	21
4	332	710.703307436593	22
4	336	714.356468550313	23
4	341	737.620965960018	24
4	344	743.1260328442	25
4	356	765.352438260707	23
4	358	770.362943641312	24
4	361	772.590606204854	25
4	368	781.007393373859	25
4	372	785.519972651797	26
4	378	794.080819717003	24
4	382	810.378030875903	23
4	388	820.140635894339	24
4	403	841.166212997282	25
4	409	844.039921077412	26
4	416	848.302603167896	27
4	419	849.706097178447	28
4	421	858.520764046529	29
4	423	861.33210841493	30
4	428	881.28589739406	31
4	446	926.689134492761	32
4	448	952.159183579918	33
4	456	983.615274297069	34
4	460	985.450572638088	35
4	467	997.883823659565	36
4	472	1005.253755993298	37
4	479	1019.847206502666	38
4	481	1025.906087628769	39
4	483	1026.815700418062	40
4	485	1030.751785346012	41
4	492	1054.062849771534	42
4	499	1069.199323993526	43
4	504	1076.910443218145	44
4	511	1088.016501996055	45
4	513	1089.058385482649	46
4	517	1093.245356086608	47
4	525	1109.990164271915	48
4	529	1111.495252375282	49
4	531	1119.046614610703	50
4	533	1129.048153925745	51
4	535	1140.924912413329	52
4	537	1141.176407268333	53
4	540	1145.209157071525	54
4	542	1153.208662393435	55
4	551	1186.892623908681	55
4	554	1189.393137052777	55
4	559	1192.271530187622	53
4	561	1197.484946457018	54
4	563	1200.247521930234	55
4	566	1212.314244647592	55
4	569	1213.33421831449	55
4	571	1214.745160013319	56
4	575	1224.217229415423	55
4	579	1232.030075498215	54
4	582	1239.324803119424	54
4	584	1241.921592407204	55
4	587	1248.182563811562	55
4	589	1249.989371655212	56
4	591	1268.583645825222	57
4	597	1269.903191477051	58
4	600	1275.699501245044	59
4	602	1276.539094628564	60
4	608	1295.103409452435	61
4	612	1304.605261721148	60
4	614	1305.27584812283	61
4	617	1315.638127851192	61
4	625	1334.215975512914	56
4	627	1336.216146553867	57
4	629	1340.202387362151	58
4	637	1354.930411622285	55
4	642	1360.587040029986	54
4	644	1365.372416060755	55
4	646	1368.420623397465	56
4	651	1370.786550902306	56
4	657	1381.304519843128	57
4	663	1393.562697652392	58
4	665	1394.377663390847	59
4	676	1434.496305583305	60
4	678	1435.634050048171	61
4	680	1454.156554264205	62
4	682	1457.51916996784	63
4	697	1491.331558083045	60
4	699	1491.798302433568	61
4	715	1549.162095721887	59
4	722	1581.557356075964	55
4	727	1589.131202587709	55
4	729	1589.294164742861	56
4	731	1590.705176290522	57
4	735	1599.956013350065	58
4	744	1636.95698598887	59
4	747	1648.144304386084	60
4	752	1666.226233340729	61
4	762	1694.649658107823	60
4	768	1697.371471155653	57
4	773	1709.751706419028	58
4	784	1746.230053122328	52
4	786	1750.168781653657	53
4	790	1750.854767205996	54
4	792	1751.925694445872	55
4	794	1753.15717556659	56
4	797	1759.551241949131	57
4	806	1775.91823188014	54
4	808	1779.585498614743	55
4	815	1800.827451251764	56
4	818	1808.974265082063	57
4	822	1813.470520932614	57
4	824	1817.480747434096	58
4	829	1828.11134490128	56
4	833	1832.033704236289	55
4	835	1832.306448773937	56
4	847	1871.163604866137	49
4	849	1873.230586242004	50
4	855	1889.171303031015	51
4	862	1908.390896428453	52
4	882	1953.154341822785	48
4	886	1957.958807211611	49
4	888	1958.78621161249	50
4	898	1982.118910009493	48
4	901	1988.259230996169	49
4	903	1989.254752134088	50
4	908	2009.415578530733	49
4	912	2019.676921367552	50
4	918	2026.199892969346	51
4	926	2046.095534625078	52
4	931	2062.559819886271	52
4	935	2067.97077610183	53
4	937	2068.207186465525	54
4	939	2070.390746796148	55
4	943	2079.613808485977	56
4	951	2106.43432796086	57
4	953	2107.23919062207	58
4	964	2121.979406440984	59
4	968	2129.836419138046	60
4	972	2139.755152732331	61
4	974	2140.259631609512	62
4	979	2157.627423304001	63
4	982	2171.095969015303	64
4	984	2175.570323536926	65
4	986	2182.56237537649	66
4	990	2190.052476805452	67
4	992	2190.534655587643	68
4	996	2199.206720632074	69
4	998	2199.435648587307	70
4	1006	2218.126545013904	71
4	1009	2235.641893261106	72
4	1011	2235.989629010231	73
4	1013	2240.700158213268	74
4	1017	2246.420518575202	75
4	1019	2246.492313956009	76
4	1021	2249.465598681333	77
4	1023	2249.982771900026	78
4	1029	2254.26808561051	78
4	1032	2271.570851785134	78
4	1034	2272.325738493696	79
4	1043	2306.930094956021	76
4	1045	2309.771897382743	77
4	1050	2317.243445888437	78
4	1053	2323.095494087291	78
4	1055	2324.853037154747	79
4	1058	2325.960436090938	79
4	1060	2332.419764879063	80
4	1062	2336.351130649538	81
4	1065	2343.03888059311	81
4	1067	2343.960495122872	82
4	1070	2345.60143337475	82
4	1075	2352.841460758396	80
4	1078	2355.388540674754	80
4	1080	2360.859292971737	81
4	1085	2364.480158459102	79
4	1087	2366.840552200106	80
4	1089	2370.056817384359	81
4	1091	2374.281138577653	82
4	1097	2379.331653338291	81
4	1099	2383.233276973216	82
4	1104	2395.553949359182	81
4	1110	2399.420097252837	81
4	1115	2417.268262125275	81
4	1119	2419.133451329679	81
4	1125	2429.232149905465	81
4	1128	2441.783611930452	81
4	1133	2452.309464931063	81
4	1137	2455.406009742327	82
4	1139	2455.559475358924	83
4	1145	2462.114056386014	84
4	1149	2466.330720422387	84
4	1151	2467.218619836442	85
4	1154	2480.211963592418	85
5	151	368.8046549948	8
5	153	369.032996633138	9
5	159	385.435273342652	10
5	167	395.504937079227	11
5	169	397.171078548213	11
5	179	406.002142878933	11
5	181	408.543864616083	12
5	183	412.164437928249	13
5	186	417.244564880827	14
5	187	417.489031913326	14
5	188	420.784509880885	13
5	189	422.886795558782	12
5	193	427.808796213163	11
5	197	435.069822641035	11
5	199	439.331250982475	11
5	201	444.73253469601	11
5	202	447.383935055481	11
5	203	450.251385145749	10
5	204	451.334337226078	9
5	206	455.434219047854	9
5	208	455.45372300501	10
5	209	460.233882122029	10
5	210	465.801421343418	9
5	211	466.438210928543	8
5	212	472.134362364616	7
5	216	478.347216278201	7
5	218	478.710433170724	8
5	220	480.515052140072	9
5	222	482.821501154237	9
5	226	485.243762285156	9
5	228	496.430731378896	10
5	232	498.869864410954	11
5	234	500.849184752619	12
5	238	506.038526886384	13
5	242	529.03255173219	14
5	246	549.13126875251	15
5	248	549.829030414174	16
5	250	552.782456114895	17
5	254	558.884773278836	18
5	255	561.170822723957	18
5	256	562.663679970469	17
5	257	566.039806945307	16
5	258	566.67335731674	15
5	262	568.083617207115	15
5	264	568.383343501675	16
5	267	570.956829549864	17
5	269	576.920273206442	18
5	270	577.824145898287	18
5	272	579.228099088614	18
5	274	580.025927210517	19
5	276	581.960803174712	20
5	278	583.433851699979	21
5	279	587.275996645973	21
5	283	598.564481498761	20
5	284	599.246359503196	19
5	286	605.380070849932	19
5	287	614.153290189289	19
5	289	616.36163040096	19
5	290	617.803269385553	19
5	292	627.496320317452	19
5	293	632.383066082524	19
5	294	633.06285860282	18
5	298	640.408136247774	17
5	299	644.326989255672	16
5	300	647.871343041257	15
5	313	668.91895575793	15
5	315	673.632126531543	16
5	324	692.737293312491	17
5	326	692.918810680698	18
5	328	698.208839881957	19
5	330	702.555790210454	20
5	332	710.703307436593	21
5	336	714.356468550313	22
5	341	737.620965960018	23
5	344	743.1260328442	24
5	345	748.798088489746	24
5	346	749.986747306771	23
5	347	751.6037607533	22
5	356	765.352438260707	22
5	358	770.362943641312	23
5	361	772.590606204854	24
5	366	780.734402080667	24
5	368	781.007393373859	24
5	372	785.519972651797	25
5	374	786.3610124875	25
5	375	792.328608472515	24
5	376	793.469070178954	23
5	378	794.080819717003	23
5	379	798.977800712898	23
5	380	803.772456578217	22
5	382	810.378030875903	22
5	388	820.140635894339	23
5	403	841.166212997282	24
5	409	844.039921077412	25
5	416	848.302603167896	26
5	419	849.706097178447	27
5	421	858.520764046529	28
5	423	861.33210841493	29
5	428	881.28589739406	30
5	446	926.689134492761	31
5	448	952.159183579918	32
5	456	983.615274297069	33
5	460	985.450572638088	34
5	467	997.883823659565	35
5	472	1005.253755993298	36
5	479	1019.847206502666	37
5	481	1025.906087628769	38
5	483	1026.815700418062	39
5	485	1030.751785346012	40
5	492	1054.062849771534	41
5	499	1069.199323993526	42
5	504	1076.910443218145	43
5	511	1088.016501996055	44
5	513	1089.058385482649	45
5	517	1093.245356086608	46
5	525	1109.990164271915	47
5	529	1111.495252375282	48
5	531	1119.046614610703	49
5	533	1129.048153925745	50
5	535	1140.924912413329	51
5	537	1141.176407268333	52
5	540	1145.209157071525	53
5	542	1153.208662393435	54
5	549	1185.338608963693	54
5	551	1186.892623908681	54
5	552	1189.268265507311	54
5	554	1189.393137052777	54
5	555	1190.112501719298	54
5	556	1191.282991553302	53
5	557	1191.953887203454	52
5	559	1192.271530187622	52
5	561	1197.484946457018	53
5	563	1200.247521930234	54
5	564	1210.578802234447	54
5	566	1212.314244647592	54
5	567	1213.161733976294	54
5	569	1213.33421831449	54
5	571	1214.745160013319	55
5	572	1218.27788391352	55
5	573	1218.588196133105	54
5	575	1224.217229415423	54
5	576	1225.994681487525	54
5	577	1230.807828467107	53
5	579	1232.030075498215	53
5	580	1237.06606965367	53
5	582	1239.324803119424	53
5	584	1241.921592407204	54
5	585	1246.932485768001	54
5	587	1248.182563811562	54
5	589	1249.989371655212	55
5	591	1268.583645825222	56
5	597	1269.903191477051	57
5	600	1275.699501245044	58
5	602	1276.539094628564	59
5	608	1295.103409452435	60
5	609	1297.213651707009	60
5	610	1297.676614702723	59
5	612	1304.605261721148	59
5	614	1305.27584812283	60
5	615	1313.745115543539	60
5	617	1315.638127851192	60
5	618	1318.205370367292	60
5	619	1320.946202571116	59
5	620	1323.120313158931	58
5	621	1325.56342020727	57
5	622	1329.277907256358	56
5	623	1332.451748617972	55
5	625	1334.215975512914	55
5	627	1336.216146553867	56
5	629	1340.202387362151	57
5	630	1345.165364383397	57
5	631	1346.592765659855	56
5	632	1348.568139387368	55
5	633	1351.740615049772	54
5	637	1354.930411622285	54
5	639	1355.812500890511	54
5	640	1356.177284814257	53
5	642	1360.587040029986	53
5	644	1365.372416060755	54
5	646	1368.420623397465	55
5	647	1368.445821764909	55
5	651	1370.786550902306	55
5	657	1381.304519843128	56
5	663	1393.562697652392	57
5	665	1394.377663390847	58
5	676	1434.496305583305	59
5	678	1435.634050048171	60
5	680	1454.156554264205	61
5	682	1457.51916996784	62
5	685	1463.360904054753	62
5	686	1464.812336859699	61
5	690	1476.960551870709	60
5	691	1483.099984919616	59
5	697	1491.331558083045	59
5	699	1491.798302433568	60
5	708	1539.185915271496	60
5	709	1541.111434076206	59
5	713	1545.428517085355	58
5	715	1549.162095721887	58
5	716	1552.608307582821	58
5	717	1570.519053557894	57
5	718	1577.288479865948	56
5	719	1577.896973115409	55
5	720	1578.20382078854	54
5	722	1581.557356075964	54
5	723	1587.224085588865	54
5	727	1589.131202587709	54
5	729	1589.294164742861	55
5	731	1590.705176290522	56
5	735	1599.956013350065	57
5	744	1636.95698598887	58
5	747	1648.144304386084	59
5	752	1666.226233340729	60
5	753	1670.969130214195	60
5	754	1671.156348921346	59
5	762	1694.649658107823	59
5	763	1695.466524754861	59
5	764	1695.910203317674	58
5	765	1696.595340999596	57
5	766	1697.262360357236	56
5	768	1697.371471155653	56
5	773	1709.751706419028	57
5	774	1710.041452638247	57
5	775	1715.502719970412	56
5	776	1724.423517618992	55
5	777	1728.965796509896	54
5	778	1730.527603995132	53
5	779	1733.15123730119	52
5	780	1734.213308832945	51
5	784	1746.230053122328	51
5	786	1750.168781653657	52
5	790	1750.854767205996	53
5	792	1751.925694445872	54
5	794	1753.15717556659	55
5	797	1759.551241949131	56
5	799	1765.996479894063	56
5	800	1767.956144984692	55
5	801	1769.065607355314	54
5	802	1769.904506851239	53
5	806	1775.91823188014	53
5	808	1779.585498614743	54
5	815	1800.827451251764	55
5	818	1808.974265082063	56
5	820	1812.796099148659	56
5	822	1813.470520932614	56
5	824	1817.480747434096	57
5	825	1819.512323242968	57
5	826	1820.961901545946	56
5	827	1823.257325637439	55
5	829	1828.11134490128	55
5	830	1829.788330323368	55
5	831	1830.715569160685	54
5	833	1832.033704236289	54
5	835	1832.306448773937	55
5	836	1835.160251287105	55
5	837	1835.418258454684	54
5	838	1841.295017336628	53
5	839	1842.643714087911	52
5	840	1849.400263766085	51
5	841	1852.498186024995	50
5	842	1853.551486080902	49
5	843	1860.320724425142	48
5	847	1871.163604866137	48
5	849	1873.230586242004	49
5	855	1889.171303031015	50
5	862	1908.390896428453	51
5	870	1930.702764238548	51
5	871	1930.802725034937	50
5	872	1936.699439932979	49
5	873	1941.888950701699	48
5	874	1942.706853612902	47
5	882	1953.154341822785	47
5	886	1957.958807211611	48
5	888	1958.78621161249	49
5	890	1970.081547175837	49
5	891	1970.108216580111	48
5	892	1974.716721136969	47
5	898	1982.118910009493	47
5	901	1988.259230996169	48
5	903	1989.254752134088	49
5	905	2000.91205463406	49
5	906	2003.462426505014	48
5	908	2009.415578530733	48
5	912	2019.676921367552	49
5	918	2026.199892969346	50
5	926	2046.095534625078	51
5	927	2047.360806431362	51
5	931	2062.559819886271	51
5	935	2067.97077610183	52
5	937	2068.207186465525	53
5	939	2070.390746796148	54
5	943	2079.613808485977	55
5	951	2106.43432796086	56
5	953	2107.23919062207	57
5	964	2121.979406440984	58
5	968	2129.836419138046	59
5	972	2139.755152732331	60
5	974	2140.259631609512	61
5	979	2157.627423304001	62
5	982	2171.095969015303	63
5	984	2175.570323536926	64
5	986	2182.56237537649	65
5	990	2190.052476805452	66
5	992	2190.534655587643	67
5	996	2199.206720632074	68
5	998	2199.435648587307	69
5	1006	2218.126545013904	70
5	1009	2235.641893261106	71
5	1011	2235.989629010231	72
5	1013	2240.700158213268	73
5	1017	2246.420518575202	74
5	1019	2246.492313956009	75
5	1021	2249.465598681333	76
5	1023	2249.982771900026	77
5	1024	2250.269271601359	77
5	1029	2254.26808561051	77
5	1030	2258.729292780238	77
5	1032	2271.570851785134	77
5	1034	2272.325738493696	78
5	1035	2282.409366686559	78
5	1036	2290.06182142326	77
5	1037	2290.163813386135	76
5	1038	2293.678776326009	75
5	1043	2306.930094956021	75
5	1045	2309.771897382743	76
5	1050	2317.243445888437	77
5	1051	2322.166156378415	77
5	1053	2323.095494087291	77
5	1055	2324.853037154747	78
5	1056	2325.073450424712	78
5	1058	2325.960436090938	78
5	1060	2332.419764879063	79
5	1062	2336.351130649538	80
5	1063	2336.553689665957	80
5	1065	2343.03888059311	80
5	1067	2343.960495122872	81
5	1068	2344.922279043995	81
5	1070	2345.60143337475	81
5	1071	2346.192054009507	81
5	1072	2347.887751683048	80
5	1073	2350.855173240689	79
5	1075	2352.841460758396	79
5	1076	2355.036437774766	79
5	1078	2355.388540674754	79
5	1080	2360.859292971737	80
5	1081	2360.862004242042	80
5	1082	2361.166527307036	79
5	1083	2363.793938971431	78
5	1085	2364.480158459102	78
5	1087	2366.840552200106	79
5	1089	2370.056817384359	80
5	1091	2374.281138577653	81
5	1092	2375.189656177011	81
5	1093	2378.269608619524	80
5	1097	2379.331653338291	80
5	1099	2383.233276973216	81
5	1101	2392.517060389033	81
5	1102	2395.19023414947	80
5	1104	2395.553949359182	80
5	1105	2396.453098397267	80
5	1110	2399.420097252837	80
5	1111	2402.989336240578	80
5	1115	2417.268262125275	80
5	1117	2418.529317188995	80
5	1119	2419.133451329679	80
5	1120	2421.03378653761	80
5	1125	2429.232149905465	80
5	1126	2431.376779346525	80
5	1128	2441.783611930452	80
5	1129	2443.182515660451	80
5	1133	2452.309464931063	80
5	1137	2455.406009742327	81
5	1139	2455.559475358924	82
5	1145	2462.114056386014	83
5	1147	2466.130419577048	83
5	1149	2466.330720422387	83
5	1151	2467.218619836442	84
5	1152	2469.872428918877	84
5	1154	2480.211963592418	84
5	1155	2482.7097231286	84
5	1156	2497.09863878208	83
6	155	369.138949755894	3
6	161	385.453117749827	2
6	164	392.547813056844	2
6	171	400.238876986431	1
6	173	400.875830780534	2
6	176	402.148108483634	2
6	191	424.812540692519	1
6	195	429.941475816797	1
6	214	476.703449272382	1
6	224	483.215547513179	1
6	230	497.665056686089	2
6	236	502.518415000999	3
6	240	518.010136143749	4
6	260	567.422534967774	1
6	281	589.254921646886	1
6	296	633.612335763276	1
6	302	653.717876567391	1
6	304	656.162405383807	2
6	307	664.883556027538	2
6	309	665.805119266422	3
6	311	666.345196335487	4
6	319	681.955333536092	3
6	321	685.56874799801	4
6	334	711.427100791882	4
6	349	753.719190786411	1
6	351	758.457762291243	2
6	353	759.862359115068	3
6	363	773.592507289388	2
6	370	782.804215248613	1
6	384	812.083228163358	1
6	386	814.53789680283	2
6	391	821.314613689265	2
6	393	823.339640693145	3
6	395	824.380758877111	4
6	397	826.130509309885	5
6	401	840.108369561828	4
6	405	841.927159132011	5
6	407	843.753911163271	6
6	411	844.204056085925	7
6	413	844.767347024862	8
6	425	874.251744450862	7
6	430	881.630829256108	7
6	433	882.640125728282	7
6	437	895.753310537335	6
6	440	908.271428453241	6
6	444	916.148443900527	5
6	452	972.831961978536	4
6	454	979.360375048207	5
6	458	984.240373431469	6
6	465	994.891896571427	4
6	470	1003.858883076407	4
6	475	1015.591232681327	4
6	477	1016.22762365404	5
6	488	1037.619457588496	5
6	490	1044.868849600906	6
6	497	1065.665815288377	4
6	501	1069.837508154843	5
6	506	1083.0195610608	5
6	508	1085.716712364398	6
6	515	1091.165896348159	6
6	520	1101.862008106945	6
6	527	1110.640880361671	4
6	546	1168.530077245097	2
6	593	1268.922055384295	1
6	595	1269.704014982941	2
6	605	1289.557095687291	1
6	635	1352.506855732944	1
6	649	1370.404388530883	1
6	653	1373.105114693269	2
6	655	1380.113067217977	3
6	659	1381.736131665	4
6	667	1398.191573523998	3
6	669	1401.824001929381	4
6	671	1411.331822722844	5
6	688	1473.250787678847	1
6	693	1484.54545862394	1
6	695	1490.786627567511	2
6	702	1515.939404877614	2
6	705	1518.058639666684	2
6	711	1541.328091502649	1
6	725	1588.998828454145	1
6	733	1591.826544490865	2
6	737	1607.947249559554	3
6	742	1626.570445940533	1
6	749	1654.192015298371	1
6	756	1674.039597021772	1
6	758	1676.296778732605	2
6	770	1704.085550962152	1
6	782	1734.959901667771	1
6	788	1750.512206608145	2
6	804	1772.016630625158	1
6	811	1784.953323999097	1
6	813	1793.940302291954	2
6	845	1863.116674614531	1
6	851	1884.1048210951	2
6	853	1886.579840852465	3
6	857	1891.821254052115	4
6	859	1901.129284237924	5
6	867	1926.365454818449	2
6	876	1944.433785012692	1
6	878	1950.622018393725	2
6	884	1957.125124651231	1
6	894	1976.624516113971	1
6	896	1977.707499429506	2
6	910	2011.380908373739	1
6	914	2024.89113310012	2
6	916	2025.694562311325	3
6	922	2037.032684837172	2
6	929	2054.92630997997	1
6	933	2066.558161474897	2
6	941	2074.312271274971	3
6	945	2085.148294294305	4
6	947	2099.473183195357	5
6	949	2102.146138877737	6
6	957	2116.145782370907	5
6	961	2121.486056362826	4
6	966	2128.938193055579	4
6	970	2138.670385373158	5
6	988	2186.38555087349	2
6	994	2196.988326593044	3
6	1000	2203.396636789965	4
6	1004	2217.082690419149	3
6	1026	2251.232106227058	1
6	1040	2294.752183040791	1
6	1047	2310.846390442859	1
6	1095	2378.277617112147	1
6	1107	2399.108451542096	1
6	1113	2403.159387325714	1
6	1122	2427.431392732234	1
6	1131	2444.598988443805	1
6	1135	2455.21295102021	2
6	1143	2458.382625969776	1
7	168	396.30657469272	128.71758135633
7	169	397.171078548213	128.23116411355
7	184	412.543175378618	141.76822716959
7	187	417.489031913326	142.52905077411
7	188	420.784509880885	115.78009276667
7	189	422.886795558782	117.58523520961
7	192	426.789067741756	92.71166130862
7	193	427.808796213163	91.390078958003
7	198	438.174506616961	69.369851622161
7	199	439.331250982475	70.298254349337
7	202	447.383935055481	61.948661712829
7	203	450.251385145749	54.746448066522
7	204	451.334337226078	51.095460239647
7	209	460.233882122029	54.231739243096
7	210	465.801421343418	57.257556727335
7	211	466.438210928543	54.273773000294
7	212	472.134362364616	54.889797483789
7	221	480.800563663833	55.988022971314
7	222	482.821501154237	52.88002533744
7	252	554.851992090275	119.78216944924
7	255	561.170822723957	116.43828802795
7	256	562.663679970469	107.22946092262
7	257	566.039806945307	110.5860839403
7	258	566.67335731674	89.969908044358
7	265	570.912141494605	92.564925216404
7	270	577.824145898287	99.113712727563
7	279	587.275996645973	106.7609445059
7	282	594.260809371113	111.04526185793
7	283	598.564481498761	113.32071921361
7	284	599.246359503196	102.8156281243
7	287	614.153290189289	115.28342577834
7	290	617.803269385553	116.95408463293
7	293	632.383066082524	126.34453919614
7	294	633.06285860282	104.03030687063
7	297	635.845069115343	86.713800362833
7	298	640.408136247774	90.5791058336
7	299	644.326989255672	91.544533140777
7	300	647.871343041257	88.986569762421
7	342	738.364088717073	170.9415537493
7	345	748.798088489746	180.71447128263
7	346	749.986747306771	181.6034038051
7	347	751.6037607533	180.64693120344
7	365	776.015317319174	199.09504411273
7	366	780.734402080667	201.50630299205
7	373	786.3101324098	206.28420519928
7	374	786.3610124875	204.40020931279
7	375	792.328608472515	208.89475677254
7	376	793.469070178954	204.21414853207
7	379	798.977800712898	193.59772986297
7	380	803.772456578217	187.41082617726
7	548	1185.156241104133	557.65992078668
7	549	1185.338608963693	551.72627320042
7	552	1189.268265507311	535.55038893992
7	555	1190.112501719298	521.19354596137
7	556	1191.282991553302	517.65086502176
7	557	1191.953887203454	499.21659389096
7	564	1210.578802234447	517.65999155375
7	567	1213.161733976294	514.95289409434
7	572	1218.27788391352	515.72209370307
7	573	1218.588196133105	507.88488869651
7	576	1225.994681487525	511.63821293721
7	577	1230.807828467107	493.18686250709
7	580	1237.06606965367	493.94003680947
7	585	1246.932485768001	493.21329498159
7	603	1276.547734079388	511.19529581868
7	606	1294.377910475539	524.01496683423
7	609	1297.213651707009	524.62304550216
7	610	1297.676614702723	516.66922132886
7	615	1313.745115543539	530.94090029493
7	618	1318.205370367292	532.6853977155
7	619	1320.946202571116	526.86538285411
7	620	1323.120313158931	512.74228228303
7	621	1325.56342020727	513.48019204391
7	622	1329.277907256358	509.13727136202
7	623	1332.451748617972	491.28553562069
7	630	1345.165364383397	501.12544330599
7	631	1346.592765659855	498.29016249196
7	632	1348.568139387368	498.86204220892
7	633	1351.740615049772	493.21985100324
7	638	1355.227747244166	493.89563882924
7	639	1355.812500890511	474.52660349645
7	640	1356.177284814257	429.4881503215
7	647	1368.445821764909	416.28663818499
7	684	1460.942030978634	477.32675668156
7	685	1463.360904054753	477.91033141666
7	686	1464.812336859699	466.92851320013
7	689	1473.331038793107	468.07728279981
7	690	1476.960551870709	457.11334536804
7	691	1483.099984919616	457.19389729085
7	707	1538.798577189143	511.98287677108
7	708	1539.185915271496	508.43412992548
7	709	1541.111434076206	487.04858430467
7	712	1544.972177315884	475.77285332236
7	713	1545.428517085355	468.51807386721
7	716	1552.608307582821	464.59180558677
7	717	1570.519053557894	481.46066807524
7	718	1577.288479865948	484.04312377934
7	719	1577.896973115409	467.90680884349
7	720	1578.20382078854	466.70856841326
7	723	1587.224085588865	468.17747097816
7	740	1625.916761508142	496.8686075824
7	745	1644.743966053793	503.81905364046
7	750	1660.195637737571	519.01923046924
7	753	1670.969130214195	525.75997314267
7	754	1671.156348921346	517.94768652791
7	760	1685.445945542939	498.55332163426
7	763	1695.466524754861	506.07338770208
7	764	1695.910203317674	503.63867313005
7	765	1696.595340999596	499.11039454258
7	766	1697.262360357236	497.014838427
7	771	1704.51236008306	492.19811543547
7	774	1710.041452638247	496.70723432376
7	775	1715.502719970412	500.75755995709
7	776	1724.423517618992	500.20628820357
7	777	1728.965796509896	496.93572101168
7	778	1730.527603995132	491.20280087571
7	779	1733.15123730119	491.22964489399
7	780	1734.213308832945	486.03074502138
7	798	1762.107818324141	512.11844666893
7	799	1765.996479894063	497.41283406884
7	800	1767.956144984692	499.0340896004
7	801	1769.065607355314	499.16241587826
7	802	1769.904506851239	494.2050056062
7	809	1781.783107715294	505.24401308673
7	819	1809.77271733933	520.21562165204
7	820	1812.796099148659	517.69268969622
7	825	1819.512323242968	514.90706152182
7	826	1820.961901545946	515.68605342312
7	827	1823.257325637439	507.61919778625
7	830	1829.788330323368	495.57235481045
7	831	1830.715569160685	494.49942260682
7	836	1835.160251287105	494.95786392495
7	837	1835.418258454684	482.91140272174
7	838	1841.295017336628	486.36460571434
7	839	1842.643714087911	482.05667405792
7	840	1849.400263766085	484.02784770533
7	841	1852.498186024995	484.07756262753
7	842	1853.551486080902	483.14709755002
7	843	1860.320724425142	489.53417352284
7	869	1930.09964573307	548.79512588994
7	870	1930.702764238548	537.14006658616
7	871	1930.802725034937	536.42506164409
7	872	1936.699439932979	502.20313434967
7	873	1941.888950701699	506.25490065353
7	874	1942.706853612902	488.5502993487
7	880	1953.078698873433	495.55952890559
7	889	1962.06555344539	488.81476576654
7	890	1970.081547175837	485.5360885519
7	891	1970.108216580111	478.77665849707
7	892	1974.716721136969	482.9184187034
7	904	1997.470631630829	456.14254012818
7	905	2000.91205463406	451.74995891217
7	906	2003.462426505014	421.90507042905
7	924	2041.493213640722	452.49438518658
7	927	2047.360806431362	458.22960384365
7	1015	2245.69479886661	656.40063412375
7	1024	2250.269271601359	659.56409531084
7	1027	2253.206747066772	653.25073371671
7	1030	2258.729292780238	632.15884683971
7	1035	2282.409366686559	645.45238069769
7	1036	2290.06182142326	641.91751703718
7	1037	2290.163813386135	635.97179808776
7	1038	2293.678776326009	627.45254298528
7	1041	2297.082542112931	623.04294509116
7	1048	2316.770894377282	622.12123626946
7	1051	2322.166156378415	624.79468522276
7	1056	2325.073450424712	620.98789946256
7	1063	2336.553689665957	626.80198324693
7	1068	2344.922279043995	609.96237737622
7	1071	2346.192054009507	599.96200088718
7	1072	2347.887751683048	597.71897002939
7	1073	2350.855173240689	600.00040603469
7	1076	2355.036437774766	603.11074332889
7	1081	2360.862004242042	607.70482867545
7	1082	2361.166527307036	601.61528535791
7	1083	2363.793938971431	591.77730834627
7	1092	2375.189656177011	599.27142429687
7	1093	2378.269608619524	598.68411000478
7	1100	2385.505645630798	600.5523216317
7	1101	2392.517060389033	591.68960913727
7	1102	2395.19023414947	586.21596906741
7	1105	2396.453098397267	582.98257746465
7	1108	2399.227118295402	581.74637086131
7	1111	2402.989336240578	574.8779913393
7	1116	2417.287925017583	585.25422078129
7	1117	2418.529317188995	586.22286841506
7	1120	2421.03378653761	557.91711192308
7	1123	2429.048744036315	557.88513917018
7	1126	2431.376779346525	558.14619310452
7	1129	2443.182515660451	554.01121262944
7	1141	2457.635357727627	549.24446129917
7	1146	2462.303255156261	517.86947014357
7	1147	2466.130419577048	512.97607775426
7	1152	2469.872428918877	512.74730426765
7	1155	2482.7097231286	524.75091591699
7	1156	2497.09863878208	538.31242716959
8	169	397.171078548213	24
8	187	417.489031913326	25
8	188	420.784509880885	26
8	189	422.886795558782	27
8	193	427.808796213163	28
8	199	439.331250982475	29
8	202	447.383935055481	30
8	203	450.251385145749	31
8	204	451.334337226078	32
8	209	460.233882122029	33
8	210	465.801421343418	34
8	211	466.438210928543	35
8	212	472.134362364616	36
8	222	482.821501154237	37
8	255	561.170822723957	38
8	256	562.663679970469	39
8	257	566.039806945307	40
8	258	566.67335731674	41
8	270	577.824145898287	42
8	279	587.275996645973	43
8	283	598.564481498761	44
8	284	599.246359503196	45
8	287	614.153290189289	46
8	290	617.803269385553	47
8	293	632.383066082524	48
8	294	633.06285860282	49
8	298	640.408136247774	50
8	299	644.326989255672	51
8	300	647.871343041257	52
8	345	748.798088489746	53
8	346	749.986747306771	54
8	347	751.6037607533	55
8	366	780.734402080667	56
8	374	786.3610124875	57
8	375	792.328608472515	58
8	376	793.469070178954	59
8	379	798.977800712898	60
8	380	803.772456578217	61
8	549	1185.338608963693	62
8	552	1189.268265507311	63
8	555	1190.112501719298	64
8	556	1191.282991553302	65
8	557	1191.953887203454	66
8	564	1210.578802234447	67
8	567	1213.161733976294	68
8	572	1218.27788391352	69
8	573	1218.588196133105	70
8	576	1225.994681487525	71
8	577	1230.807828467107	72
8	580	1237.06606965367	73
8	585	1246.932485768001	74
8	609	1297.213651707009	75
8	610	1297.676614702723	76
8	615	1313.745115543539	77
8	618	1318.205370367292	78
8	619	1320.946202571116	79
8	620	1323.120313158931	80
8	621	1325.56342020727	81
8	622	1329.277907256358	82
8	623	1332.451748617972	83
8	630	1345.165364383397	84
8	631	1346.592765659855	85
8	632	1348.568139387368	86
8	633	1351.740615049772	87
8	639	1355.812500890511	88
8	640	1356.177284814257	89
8	647	1368.445821764909	90
8	685	1463.360904054753	91
8	686	1464.812336859699	92
8	690	1476.960551870709	93
8	691	1483.099984919616	94
8	708	1539.185915271496	95
8	709	1541.111434076206	96
8	713	1545.428517085355	97
8	716	1552.608307582821	98
8	717	1570.519053557894	99
8	718	1577.288479865948	100
8	719	1577.896973115409	101
8	720	1578.20382078854	102
8	723	1587.224085588865	103
8	753	1670.969130214195	104
8	754	1671.156348921346	105
8	763	1695.466524754861	106
8	764	1695.910203317674	107
8	765	1696.595340999596	108
8	766	1697.262360357236	109
8	774	1710.041452638247	110
8	775	1715.502719970412	111
8	776	1724.423517618992	112
8	777	1728.965796509896	113
8	778	1730.527603995132	114
8	779	1733.15123730119	115
8	780	1734.213308832945	116
8	799	1765.996479894063	117
8	800	1767.956144984692	118
8	801	1769.065607355314	119
8	802	1769.904506851239	120
8	820	1812.796099148659	121
8	825	1819.512323242968	122
8	826	1820.961901545946	123
8	827	1823.257325637439	124
8	830	1829.788330323368	125
8	831	1830.715569160685	126
8	836	1835.160251287105	127
8	837	1835.418258454684	128
8	838	1841.295017336628	129
8	839	1842.643714087911	130
8	840	1849.400263766085	131
8	841	1852.498186024995	132
8	842	1853.551486080902	133
8	843	1860.320724425142	134
8	870	1930.702764238548	135
8	871	1930.802725034937	136
8	872	1936.699439932979	137
8	873	1941.888950701699	138
8	874	1942.706853612902	139
8	890	1970.081547175837	140
8	891	1970.108216580111	141
8	892	1974.716721136969	142
8	905	2000.91205463406	143
8	906	2003.462426505014	144
8	927	2047.360806431362	145
8	1024	2250.269271601359	146
8	1030	2258.729292780238	147
8	1035	2282.409366686559	148
8	1036	2290.06182142326	149
8	1037	2290.163813386135	150
8	1038	2293.678776326009	151
8	1051	2322.166156378415	152
8	1056	2325.073450424712	153
8	1063	2336.553689665957	154
8	1068	2344.922279043995	155
8	1071	2346.192054009507	156
8	1072	2347.887751683048	157
8	1073	2350.855173240689	158
8	1076	2355.036437774766	159
8	1081	2360.862004242042	160
8	1082	2361.166527307036	161
8	1083	2363.793938971431	162
8	1092	2375.189656177011	163
8	1093	2378.269608619524	164
8	1101	2392.517060389033	165
8	1102	2395.19023414947	166
8	1105	2396.453098397267	167
8	1111	2402.989336240578	168
8	1117	2418.529317188995	169
8	1120	2421.03378653761	170
8	1126	2431.376779346525	171
8	1129	2443.182515660451	172
8	1147	2466.130419577048	173
8	1152	2469.872428918877	174
8	1155	2482.7097231286	175
8	1156	2497.09863878208	176
9	169	397.171078548213	129.58208521182
9	187	417.489031913326	146.7140837043
9	188	420.784509880885	145.82452874167
9	189	422.886795558782	117.88237844457
9	193	427.808796213163	93.731389780027
9	199	439.331250982475	70.526595987675
9	202	447.383935055481	78.350938422343
9	203	450.251385145749	64.816111803097
9	204	451.334337226078	55.829400146851
9	209	460.233882122029	59.995005135598
9	210	465.801421343418	59.799278464485
9	211	466.438210928543	57.89434631246
9	212	472.134362364616	59.969924436367
9	222	482.821501154237	58.008960461718
9	255	561.170822723957	126.10100008292
9	256	562.663679970469	117.93114527446
9	257	566.039806945307	110.60558789745
9	258	566.67335731674	111.21963431173
9	270	577.824145898287	99.476929620086
9	279	587.275996645973	108.56556347525
9	283	598.564481498761	115.34893398558
9	284	599.246359503196	114.00259721804
9	287	614.153290189289	117.72255881039
9	290	617.803269385553	118.9334049746
9	293	632.383066082524	131.53388132991
9	294	633.06285860282	127.02433171644
9	298	640.408136247774	91.276867495264
9	299	644.326989255672	94.497958841498
9	300	647.871343041257	95.088886926362
9	345	748.798088489746	181.37555352197
9	346	749.986747306771	181.90313009966
9	347	751.6037607533	183.22041725163
9	366	780.734402080667	203.81412887422
9	374	786.3610124875	206.33508527698
9	375	792.328608472515	210.3678052978
9	376	793.469070178954	210.03521847897
9	379	798.977800712898	209.72287906601
9	380	803.772456578217	198.39238572829
9	549	1185.338608963693	557.84228864624
9	552	1189.268265507311	555.65592974404
9	555	1190.112501719298	536.39462515191
9	556	1191.282991553302	522.36403579537
9	557	1191.953887203454	518.32176067191
9	564	1210.578802234447	517.84150892196
9	567	1213.161733976294	520.2429232956
9	572	1218.27788391352	520.06904403156
9	573	1218.588196133105	516.03240592265
9	576	1225.994681487525	515.29137405093
9	577	1230.807828467107	516.45135991679
9	580	1237.06606965367	499.44510369365
9	585	1246.932485768001	503.8064529238
9	609	1297.213651707009	526.8507080657
9	610	1297.676614702723	525.08600849787
9	615	1313.745115543539	532.73772216968
9	618	1318.205370367292	535.40115511868
9	619	1320.946202571116	535.42622991932
9	620	1323.120313158931	529.03949344193
9	621	1325.56342020727	515.18538933137
9	622	1329.277907256358	517.194679093
9	623	1332.451748617972	512.31111272363
9	630	1345.165364383397	503.99915138611
9	631	1346.592765659855	502.55284458244
9	632	1348.568139387368	500.26553621947
9	633	1351.740615049772	502.03451787132
9	639	1355.812500890511	494.48039247558
9	640	1356.177284814257	474.8913874202
9	647	1368.445821764909	441.75668727215
9	685	1463.360904054753	479.74562975768
9	686	1464.812336859699	479.36176422161
9	690	1476.960551870709	471.70679587741
9	691	1483.099984919616	463.25277841695
9	708	1539.185915271496	512.37021485343
9	709	1541.111434076206	510.35964873019
9	713	1545.428517085355	476.22919309183
9	716	1552.608307582821	475.69786436468
9	717	1570.519053557894	482.50255156184
9	718	1577.288479865948	488.2300943833
9	719	1577.896973115409	484.6516170288
9	720	1578.20382078854	468.21365651663
9	723	1587.224085588865	475.72883321358
9	753	1670.969130214195	529.79272294586
9	754	1671.156348921346	525.94719184982
9	763	1695.466524754861	508.57390084618
9	764	1695.910203317674	506.5170662649
9	765	1696.595340999596	504.32381081197
9	766	1697.262360357236	499.77741390022
9	774	1710.041452638247	497.72720799066
9	775	1715.502719970412	502.16850165592
9	776	1724.423517618992	509.67835760567
9	777	1728.965796509896	504.74856709447
9	778	1730.527603995132	498.49752849692
9	779	1733.15123730119	493.82643418177
9	780	1734.213308832945	492.29171642574
9	799	1765.996479894063	516.00710823885
9	800	1767.956144984692	499.37249915947
9	801	1769.065607355314	500.14355197102
9	802	1769.904506851239	500.00131537419
9	820	1812.796099148659	523.23900346137
9	825	1819.512323242968	524.40891379053
9	826	1820.961901545946	516.3566398248
9	827	1823.257325637439	517.98147751461
9	830	1829.788330323368	514.15020247218
9	831	1830.715569160685	496.49959364777
9	836	1835.160251287105	498.94410473324
9	837	1835.418258454684	495.21587109253
9	838	1841.295017336628	488.78816160368
9	839	1842.643714087911	487.71330246563
9	840	1849.400263766085	488.8132237361
9	841	1852.498186024995	487.12576996424
9	842	1853.551486080902	485.13086268344
9	843	1860.320724425142	489.91633589426
9	870	1930.702764238548	549.39824439542
9	871	1930.802725034937	537.24002738255
9	872	1936.699439932979	542.32177654213
9	873	1941.888950701699	507.39264511839
9	874	1942.706853612902	507.07280356473
9	890	1970.081547175837	496.83075949699
9	891	1970.108216580111	485.56275795617
9	892	1974.716721136969	483.38516305392
9	905	2000.91205463406	459.58396313141
9	906	2003.462426505014	454.30033078313
9	927	2047.360806431362	458.36197797722
9	1024	2250.269271601359	660.9751068585
9	1030	2258.729292780238	658.77327943017
9	1035	2282.409366686559	655.83892074603
9	1036	2290.06182142326	653.10483543439
9	1037	2290.163813386135	642.01950900005
9	1038	2293.678776326009	639.48676102764
9	1051	2322.166156378415	627.51649827059
9	1056	2325.073450424712	627.70197926906
9	1063	2336.553689665957	632.46813870381
9	1068	2344.922279043995	635.17057262497
9	1071	2346.192054009507	611.23215234174
9	1072	2347.887751683048	601.65769856072
9	1073	2350.855173240689	600.68639158703
9	1076	2355.036437774766	604.18167056877
9	1081	2360.862004242042	608.93630979617
9	1082	2361.166527307036	608.00935174045
9	1083	2363.793938971431	604.2426970223
9	1092	2375.189656177011	603.17302555185
9	1093	2378.269608619524	602.35137673938
9	1101	2392.517060389033	607.56373638994
9	1102	2395.19023414947	594.36278289771
9	1105	2396.453098397267	587.4788333152
9	1111	2402.989336240578	585.50858880648
9	1117	2418.529317188995	586.49561295271
9	1120	2421.03378653761	588.72733776367
9	1126	2431.376779346525	560.21317448039
9	1129	2443.182515660451	569.95192941845
9	1147	2466.130419577048	521.69663456436
9	1152	2469.872428918877	516.71808709609
9	1155	2482.7097231286	525.58459847737
9	1156	2497.09863878208	539.13983157047
10	171	400.238876986431	5
10	191	424.812540692519	6
10	195	429.941475816797	7
10	214	476.703449272382	8
10	224	483.215547513179	9
10	260	567.422534967774	10
10	281	589.254921646886	11
10	296	633.612335763276	12
10	302	653.717876567391	13
10	349	753.719190786411	14
10	370	782.804215248613	15
10	384	812.083228163358	16
10	593	1268.922055384295	17
10	605	1289.557095687291	18
10	635	1352.506855732944	19
10	649	1370.404388530883	20
10	688	1473.250787678847	21
10	693	1484.54545862394	22
10	711	1541.328091502649	23
10	725	1588.998828454145	24
10	742	1626.570445940533	25
10	749	1654.192015298371	26
10	756	1674.039597021772	27
10	770	1704.085550962152	28
10	782	1734.959901667771	29
10	804	1772.016630625158	30
10	811	1784.953323999097	31
10	845	1863.116674614531	32
10	876	1944.433785012692	33
10	884	1957.125124651231	34
10	894	1976.624516113971	35
10	910	2011.380908373739	36
10	929	2054.92630997997	37
10	1026	2251.232106227058	38
10	1040	2294.752183040791	39
10	1047	2310.846390442859	40
10	1095	2378.277617112147	41
10	1107	2399.108451542096	42
10	1113	2403.159387325714	43
10	1122	2427.431392732234	44
10	1131	2444.598988443805	45
10	1143	2458.382625969776	46
11	1157	2500	0.0704
12	1157	2500	0.0616

