version 2
run experiments_hard_game_mode1-507-20230311-19:41:09-7214
attr configname experiments_hard_game_mode1
attr datetime 20230311-19:41:09
attr experiment experiments_hard_game_mode1
attr inifile omnetpp.ini
attr iterationvars "$0=8, $1=6, $2=0"
attr iterationvarsf 8,6,0-
attr measurement "$0=8, $1=6, $2=0"
attr network Network
attr processid 7214
attr repetition 27
attr replication #27
attr resultdir results
attr runnumber 507
attr seedset 27
param *.boss.arrival_mean 20
param *.boss.service_mean 8
param *.minion.arrival_mean 10
param *.minion.service_mean 6
param *.player.recover_rate_x 0
param **.minion.arrival_distribution 0
param **.minion.service_distribution 0
param **.boss.arrival_distribution 0
param **.boss.service_distribution 0

vector 0 Network.player boss_jobs_number_stat:vector ETV
attr source signal_boss_jobs_number
vector 1 Network.player boss_jobs_queue_number_stat:vector ETV
attr source signal_boss_jobs_queue_number
vector 2 Network.player boss_waiting_time_stat:vector ETV
attr source signal_boss_waiting_time
vector 3 Network.player boss_defeated_stat:vector ETV
attr source signal_boss_defeated
vector 4 Network.player boss_response_time_stat:vector ETV
attr source signal_boss_response_time
vector 5 Network.player minion_jobs_number_stat:vector ETV
attr source signal_minion_jobs_number
vector 6 Network.player minion_jobs_queue_number_stat:vector ETV
attr source signal_minion_jobs_queue_number
vector 7 Network.player minion_waiting_time_stat:vector ETV
attr source signal_minion_waiting_time
vector 8 Network.player minion_defeated_stat:vector ETV
attr source signal_minion_defeated
vector 9 Network.player minion_response_time_stat:vector ETV
attr source signal_minion_response_time
vector 10 Network.player minion_recovered_stat:vector ETV
attr source signal_minion_recovered
vector 11 Network.player minion_throughput:vector ETV
attr source signal_minion_throughput
vector 12 Network.player boss_throughput:vector ETV
attr source signal_boss_throughput
0	152	368.831334544424	1
0	155	389.110670426301	1
0	157	392.470448185346	2
0	164	406.857955342912	1
0	175	426.413797271532	1
0	177	428.216150320548	2
0	179	429.56556717974	3
0	188	439.368663954059	3
0	193	453.418493226684	3
0	196	460.280800586182	3
0	202	465.421436393306	4
0	204	468.331227174635	5
0	229	532.267433263168	1
0	231	532.47057314743	2
0	245	551.950976185058	1
0	250	562.599858163725	1
0	260	566.167079330092	2
0	268	579.735833390176	1
0	273	587.83685848517	1
0	275	588.269454985046	2
0	277	589.0392234944	3
0	281	605.436577269174	2
0	287	613.330361908421	1
0	289	614.946250003507	2
0	295	625.020069418922	1
0	302	635.493773863116	1
0	304	651.93908874367	2
0	309	659.479702327961	2
0	311	660.616830717591	3
0	317	690.058304817686	2
0	326	724.440579512485	2
0	336	742.817448148488	1
0	340	750.436630718249	2
0	343	761.240283547267	2
0	345	768.129381117159	3
0	350	776.291255989424	3
0	367	836.22542674111	1
0	369	836.732694464763	2
0	390	886.875913427531	1
0	392	888.751654418823	2
0	398	906.16981819263	1
0	409	944.66435003739	1
0	430	972.102428593869	1
0	439	985.612944754038	1
0	442	992.436786322198	1
0	447	998.179883676915	1
0	450	1002.472414686305	1
0	466	1031.121101478372	1
0	475	1059.823730250331	1
0	481	1075.364437874632	2
0	516	1170.367082354032	1
0	520	1180.109766243292	1
0	535	1212.664506770435	1
0	546	1233.325160215043	1
0	560	1269.88515367764	1
0	562	1273.651998237192	2
0	565	1278.05293541854	2
0	573	1302.754338639653	3
0	575	1305.574118968634	4
0	579	1306.39506238908	5
0	583	1314.661552737215	6
0	596	1332.983630237907	4
0	609	1359.150555686224	2
0	614	1363.697256601952	1
0	638	1444.719652389594	1
0	642	1450.44504109149	2
0	644	1450.821689742854	3
0	649	1461.008519765219	3
0	669	1486.539293398296	1
0	674	1511.564798431682	1
0	681	1522.912315959582	1
0	703	1554.359213467081	1
0	711	1573.55463600345	1
0	731	1618.60610114374	1
0	740	1647.732977010864	1
0	742	1652.716300240126	2
0	755	1699.903565993872	1
0	757	1700.164731177748	2
0	760	1704.09610134274	2
0	776	1732.70694833244	1
0	779	1739.431147144398	1
0	783	1743.465202265492	2
0	787	1749.865499275879	3
0	798	1781.419902188234	1
0	804	1794.03587162119	2
0	839	1854.253817291772	1
0	858	1890.882005542659	1
0	860	1890.959832848247	2
0	867	1906.259346134547	1
0	879	1951.970516732074	1
0	885	1972.812470886184	2
0	902	2016.313752534131	1
0	910	2026.634220104932	1
0	939	2113.398607569763	1
0	942	2122.859661153812	1
0	962	2162.021322230943	1
0	967	2165.890783281384	1
0	969	2172.746428742143	2
0	978	2189.245132141111	1
0	994	2233.879336630663	1
0	999	2239.267804364735	1
0	1010	2252.616090301519	1
0	1053	2345.378507754397	1
0	1060	2358.900332232856	1
0	1066	2370.717925181556	1
0	1080	2418.046391651931	1
0	1084	2423.759721043991	1
0	1094	2453.422693129747	1
0	1096	2458.491186840242	2
0	1108	2480.169364514395	1
1	152	368.831334544424	0
1	153	377.219952699725	0
1	155	389.110670426301	0
1	157	392.470448185346	1
1	158	393.471584850959	1
1	161	400.836033648824	0
1	164	406.857955342912	0
1	165	409.039589871283	0
1	175	426.413797271532	0
1	177	428.216150320548	1
1	179	429.56556717974	2
1	184	436.379745020853	2
1	188	439.368663954059	2
1	189	439.67550908759	2
1	193	453.418493226684	2
1	194	459.926037560839	2
1	196	460.280800586182	2
1	202	465.421436393306	3
1	204	468.331227174635	4
1	209	497.358696186471	4
1	210	498.237544633254	3
1	211	500.40914306994	2
1	216	506.41463835794	1
1	219	507.092068907243	0
1	229	532.267433263168	0
1	231	532.47057314743	1
1	232	534.915706406742	1
1	237	543.775322025272	0
1	245	551.950976185058	0
1	248	560.252348862912	0
1	250	562.599858163725	0
1	260	566.167079330092	1
1	263	570.366740085021	1
1	266	571.935332874453	0
1	268	579.735833390176	0
1	269	582.300269686845	0
1	273	587.83685848517	0
1	275	588.269454985046	1
1	277	589.0392234944	2
1	278	598.02911062029	2
1	279	603.051303836786	1
1	281	605.436577269174	1
1	282	606.889279517037	1
1	283	607.897121616025	0
1	287	613.330361908421	0
1	289	614.946250003507	1
1	290	621.160725985902	1
1	291	621.775407744008	0
1	295	625.020069418922	0
1	298	627.087283942831	0
1	302	635.493773863116	0
1	304	651.93908874367	1
1	305	653.976629671	1
1	309	659.479702327961	1
1	311	660.616830717591	2
1	312	665.665183899592	2
1	313	678.302762702601	1
1	317	690.058304817686	1
1	320	711.709799581285	1
1	326	724.440579512485	1
1	327	726.398984711508	1
1	330	731.592503707123	0
1	336	742.817448148488	0
1	340	750.436630718249	1
1	341	756.32561978321	1
1	343	761.240283547267	1
1	345	768.129381117159	2
1	346	768.734608476168	2
1	350	776.291255989424	2
1	359	806.378821590294	2
1	362	815.908470439626	1
1	365	822.7967156341	0
1	367	836.22542674111	0
1	369	836.732694464763	1
1	374	851.078466837572	1
1	377	864.524516889779	0
1	390	886.875913427531	0
1	392	888.751654418823	1
1	393	897.238827451343	1
1	394	901.614843142161	0
1	398	906.16981819263	0
1	399	908.690854958284	0
1	409	944.66435003739	0
1	410	944.887003552534	0
1	430	972.102428593869	0
1	437	985.154130438103	0
1	439	985.612944754038	0
1	440	990.456037516867	0
1	442	992.436786322198	0
1	443	997.16550608971	0
1	447	998.179883676915	0
1	448	999.070251379358	0
1	450	1002.472414686305	0
1	457	1018.801937064897	0
1	466	1031.121101478372	0
1	471	1044.716880422932	0
1	475	1059.823730250331	0
1	481	1075.364437874632	1
1	482	1082.059810652993	1
1	483	1091.631227650387	0
1	516	1170.367082354032	0
1	517	1173.220628439049	0
1	520	1180.109766243292	0
1	521	1186.774290736471	0
1	535	1212.664506770435	0
1	536	1214.853543639357	0
1	546	1233.325160215043	0
1	547	1235.889307323672	0
1	560	1269.88515367764	0
1	562	1273.651998237192	1
1	563	1276.285384977453	1
1	565	1278.05293541854	1
1	573	1302.754338639653	2
1	575	1305.574118968634	3
1	579	1306.39506238908	4
1	583	1314.661552737215	5
1	592	1328.164886526936	5
1	593	1331.558145384093	4
1	594	1332.746535758117	3
1	596	1332.983630237907	3
1	605	1343.210045371376	3
1	606	1350.85478335332	2
1	607	1354.27069764919	1
1	609	1359.150555686224	1
1	610	1359.579968655524	1
1	611	1362.388453476408	0
1	614	1363.697256601952	0
1	615	1367.851171054929	0
1	638	1444.719652389594	0
1	642	1450.44504109149	1
1	644	1450.821689742854	2
1	645	1450.865620332593	2
1	649	1461.008519765219	2
1	650	1461.27680899576	2
1	651	1461.765748319488	1
1	652	1464.884221811779	0
1	669	1486.539293398296	0
1	670	1494.830617930736	0
1	674	1511.564798431682	0
1	675	1515.658680678531	0
1	681	1522.912315959582	0
1	690	1531.789899495434	0
1	703	1554.359213467081	0
1	706	1557.432362601828	0
1	711	1573.55463600345	0
1	712	1573.616237636394	0
1	731	1618.60610114374	0
1	738	1642.139361089405	0
1	740	1647.732977010864	0
1	742	1652.716300240126	1
1	743	1663.075399059895	1
1	752	1683.153095999696	0
1	755	1699.903565993872	0
1	757	1700.164731177748	1
1	758	1700.550932756318	1
1	760	1704.09610134274	1
1	763	1714.00031088218	1
1	766	1717.446992819561	0
1	776	1732.70694833244	0
1	777	1732.984318326968	0
1	779	1739.431147144398	0
1	783	1743.465202265492	1
1	787	1749.865499275879	2
1	788	1752.336435437636	2
1	795	1775.30657209127	1
1	796	1776.639529428596	0
1	798	1781.419902188234	0
1	804	1794.03587162119	1
1	809	1805.456337462422	1
1	810	1808.508481166271	0
1	839	1854.253817291772	0
1	844	1867.397404708694	0
1	858	1890.882005542659	0
1	860	1890.959832848247	1
1	861	1893.075139883603	1
1	862	1898.326238007313	0
1	867	1906.259346134547	0
1	868	1909.839351314343	0
1	879	1951.970516732074	0
1	885	1972.812470886184	1
1	888	1979.20234093715	1
1	893	1994.36440301001	0
1	902	2016.313752534131	0
1	907	2020.630010271853	0
1	910	2026.634220104932	0
1	917	2029.853386284619	0
1	939	2113.398607569763	0
1	940	2116.470273470136	0
1	942	2122.859661153812	0
1	943	2125.671726891708	0
1	962	2162.021322230943	0
1	963	2162.153958234389	0
1	967	2165.890783281384	0
1	969	2172.746428742143	1
1	970	2173.647970069031	1
1	971	2173.959409759095	0
1	978	2189.245132141111	0
1	979	2192.282349703834	0
1	994	2233.879336630663	0
1	995	2234.315743504621	0
1	999	2239.267804364735	0
1	1002	2241.709585914367	0
1	1010	2252.616090301519	0
1	1011	2253.711457636411	0
1	1053	2345.378507754397	0
1	1058	2358.820765785405	0
1	1060	2358.900332232856	0
1	1061	2359.171956978055	0
1	1066	2370.717925181556	0
1	1069	2384.252418295645	0
1	1080	2418.046391651931	0
1	1081	2420.100212422008	0
1	1084	2423.759721043991	0
1	1085	2430.954082159128	0
1	1094	2453.422693129747	0
1	1096	2458.491186840242	1
1	1097	2459.703194944469	1
1	1100	2465.416225052542	0
1	1108	2480.169364514395	0
1	1111	2481.743576549616	0
2	152	368.831334544424	0
2	155	389.110670426301	0
2	158	393.471584850959	1.001136665613
2	164	406.857955342912	0
2	175	426.413797271532	0
2	184	436.379745020853	8.163594700305
2	189	439.67550908759	10.10994190785
2	194	459.926037560839	20.55737360678
2	209	497.358696186471	43.940202959787
2	210	498.237544633254	37.956744047072
2	211	500.40914306994	34.987706676634
2	216	506.41463835794	38.083411183305
2	229	532.267433263168	0
2	232	534.915706406742	2.445133259312
2	245	551.950976185058	0
2	250	562.599858163725	0
2	263	570.366740085021	4.199660754929
2	268	579.735833390176	0
2	273	587.83685848517	0
2	278	598.02911062029	9.759655635244
2	279	603.051303836786	14.012080342386
2	282	606.889279517037	1.452702247863
2	287	613.330361908421	0
2	290	621.160725985902	6.214475982395
2	295	625.020069418922	0
2	302	635.493773863116	0
2	305	653.976629671	2.03754092733
2	312	665.665183899592	6.185481571631
2	313	678.302762702601	17.68593198501
2	320	711.709799581285	21.651494763599
2	327	726.398984711508	1.958405199023
2	336	742.817448148488	0
2	341	756.32561978321	5.888989064961
2	346	768.734608476168	7.494324928901
2	359	806.378821590294	38.249440473135
2	362	815.908470439626	39.617214450202
2	367	836.22542674111	0
2	374	851.078466837572	14.345772372809
2	390	886.875913427531	0
2	393	897.238827451343	8.48717303252
2	398	906.16981819263	0
2	409	944.66435003739	0
2	430	972.102428593869	0
2	439	985.612944754038	0
2	442	992.436786322198	0
2	447	998.179883676915	0
2	450	1002.472414686305	0
2	466	1031.121101478372	0
2	475	1059.823730250331	0
2	482	1082.059810652993	6.695372778361
2	516	1170.367082354032	0
2	520	1180.109766243292	0
2	535	1212.664506770435	0
2	546	1233.325160215043	0
2	560	1269.88515367764	0
2	563	1276.285384977453	2.633386740261
2	592	1328.164886526936	50.111951108396
2	593	1331.558145384093	28.80380674444
2	594	1332.746535758117	27.172416789483
2	605	1343.210045371376	36.814982982296
2	606	1350.85478335332	36.193230616105
2	607	1354.27069764919	21.287067411283
2	610	1359.579968655524	0.4294129693
2	614	1363.697256601952	0
2	638	1444.719652389594	0
2	645	1450.865620332593	0.420579241103
2	650	1461.27680899576	10.455119252906
2	651	1461.765748319488	0.757228554269
2	669	1486.539293398296	0
2	674	1511.564798431682	0
2	681	1522.912315959582	0
2	703	1554.359213467081	0
2	711	1573.55463600345	0
2	731	1618.60610114374	0
2	740	1647.732977010864	0
2	743	1663.075399059895	10.359098819769
2	755	1699.903565993872	0
2	758	1700.550932756318	0.38620157857
2	763	1714.00031088218	9.90420953944
2	776	1732.70694833244	0
2	779	1739.431147144398	0
2	788	1752.336435437636	8.871233172144
2	795	1775.30657209127	25.441072815391
2	798	1781.419902188234	0
2	809	1805.456337462422	11.420465841232
2	839	1854.253817291772	0
2	858	1890.882005542659	0
2	861	1893.075139883603	2.115307035356
2	867	1906.259346134547	0
2	879	1951.970516732074	0
2	888	1979.20234093715	6.389870050966
2	902	2016.313752534131	0
2	910	2026.634220104932	0
2	939	2113.398607569763	0
2	942	2122.859661153812	0
2	962	2162.021322230943	0
2	967	2165.890783281384	0
2	970	2173.647970069031	0.901541326888
2	978	2189.245132141111	0
2	994	2233.879336630663	0
2	999	2239.267804364735	0
2	1010	2252.616090301519	0
2	1053	2345.378507754397	0
2	1060	2358.900332232856	0
2	1066	2370.717925181556	0
2	1080	2418.046391651931	0
2	1084	2423.759721043991	0
2	1094	2453.422693129747	0
2	1097	2459.703194944469	1.212008104227
2	1108	2480.169364514395	0
3	153	377.219952699725	14
3	158	393.471584850959	15
3	161	400.836033648824	16
3	165	409.039589871283	17
3	184	436.379745020853	18
3	189	439.67550908759	19
3	194	459.926037560839	20
3	209	497.358696186471	21
3	210	498.237544633254	22
3	211	500.40914306994	23
3	216	506.41463835794	24
3	219	507.092068907243	25
3	232	534.915706406742	26
3	237	543.775322025272	27
3	248	560.252348862912	28
3	263	570.366740085021	29
3	266	571.935332874453	30
3	269	582.300269686845	31
3	278	598.02911062029	32
3	279	603.051303836786	33
3	282	606.889279517037	34
3	283	607.897121616025	35
3	290	621.160725985902	36
3	291	621.775407744008	37
3	298	627.087283942831	38
3	305	653.976629671	39
3	312	665.665183899592	40
3	313	678.302762702601	41
3	320	711.709799581285	42
3	327	726.398984711508	43
3	330	731.592503707123	44
3	341	756.32561978321	45
3	346	768.734608476168	46
3	359	806.378821590294	47
3	362	815.908470439626	48
3	365	822.7967156341	49
3	374	851.078466837572	50
3	377	864.524516889779	51
3	393	897.238827451343	52
3	394	901.614843142161	53
3	399	908.690854958284	54
3	410	944.887003552534	55
3	437	985.154130438103	56
3	440	990.456037516867	57
3	443	997.16550608971	58
3	448	999.070251379358	59
3	457	1018.801937064897	60
3	471	1044.716880422932	61
3	482	1082.059810652993	62
3	483	1091.631227650387	63
3	517	1173.220628439049	64
3	521	1186.774290736471	65
3	536	1214.853543639357	66
3	547	1235.889307323672	67
3	563	1276.285384977453	68
3	592	1328.164886526936	69
3	593	1331.558145384093	70
3	594	1332.746535758117	71
3	605	1343.210045371376	72
3	606	1350.85478335332	73
3	607	1354.27069764919	74
3	610	1359.579968655524	75
3	611	1362.388453476408	76
3	615	1367.851171054929	77
3	645	1450.865620332593	78
3	650	1461.27680899576	79
3	651	1461.765748319488	80
3	652	1464.884221811779	81
3	670	1494.830617930736	82
3	675	1515.658680678531	83
3	690	1531.789899495434	84
3	706	1557.432362601828	85
3	712	1573.616237636394	86
3	738	1642.139361089405	87
3	743	1663.075399059895	88
3	752	1683.153095999696	89
3	758	1700.550932756318	90
3	763	1714.00031088218	91
3	766	1717.446992819561	92
3	777	1732.984318326968	93
3	788	1752.336435437636	94
3	795	1775.30657209127	95
3	796	1776.639529428596	96
3	809	1805.456337462422	97
3	810	1808.508481166271	98
3	844	1867.397404708694	99
3	861	1893.075139883603	100
3	862	1898.326238007313	101
3	868	1909.839351314343	102
3	888	1979.20234093715	103
3	893	1994.36440301001	104
3	907	2020.630010271853	105
3	917	2029.853386284619	106
3	940	2116.470273470136	107
3	943	2125.671726891708	108
3	963	2162.153958234389	109
3	970	2173.647970069031	110
3	971	2173.959409759095	111
3	979	2192.282349703834	112
3	995	2234.315743504621	113
3	1002	2241.709585914367	114
3	1011	2253.711457636411	115
3	1058	2358.820765785405	116
3	1061	2359.171956978055	117
3	1069	2384.252418295645	118
3	1081	2420.100212422008	119
3	1085	2430.954082159128	120
3	1097	2459.703194944469	121
3	1100	2465.416225052542	122
3	1111	2481.743576549616	123
4	153	377.219952699725	8.388618155301
4	158	393.471584850959	4.360914424658
4	161	400.836033648824	8.365585463478
4	165	409.039589871283	2.181634528371
4	184	436.379745020853	9.965947749321
4	189	439.67550908759	11.459358767042
4	194	459.926037560839	30.360470381099
4	209	497.358696186471	57.990032232412
4	210	498.237544633254	44.81905140657
4	211	500.40914306994	40.128342483758
4	216	506.41463835794	40.993201964634
4	219	507.092068907243	38.760841732608
4	232	534.915706406742	2.648273143574
4	237	543.775322025272	11.304748877842
4	248	560.252348862912	8.301372677854
4	263	570.366740085021	7.766881921296
4	266	571.935332874453	5.768253544361
4	269	582.300269686845	2.564436296669
4	278	598.02911062029	10.19225213512
4	279	603.051303836786	14.78184885174
4	282	606.889279517037	17.850056022637
4	283	607.897121616025	2.460544346851
4	290	621.160725985902	7.830364077481
4	291	621.775407744008	6.829157740501
4	298	627.087283942831	2.067214523909
4	305	653.976629671	18.482855807884
4	312	665.665183899592	13.726095155922
4	313	678.302762702601	18.82306037464
4	320	711.709799581285	51.092968863694
4	327	726.398984711508	36.340679893822
4	330	731.592503707123	7.151924194638
4	341	756.32561978321	13.508171634722
4	346	768.734608476168	18.297977757919
4	359	806.378821590294	45.138538043027
4	362	815.908470439626	47.779089322467
4	365	822.7967156341	46.505459644676
4	374	851.078466837572	14.853040096462
4	377	864.524516889779	27.791822425016
4	393	897.238827451343	10.362914023812
4	394	901.614843142161	12.863188723338
4	399	908.690854958284	2.521036765654
4	410	944.887003552534	0.222653515144
4	437	985.154130438103	13.051701844234
4	440	990.456037516867	4.843092762829
4	443	997.16550608971	4.728719767512
4	448	999.070251379358	0.890367702443
4	457	1018.801937064897	16.329522378592
4	471	1044.716880422932	13.59577894456
4	482	1082.059810652993	22.236080402662
4	483	1091.631227650387	16.266789775755
4	517	1173.220628439049	2.853546085017
4	521	1186.774290736471	6.664524493179
4	536	1214.853543639357	2.189036868922
4	547	1235.889307323672	2.564147108629
4	563	1276.285384977453	6.400231299813
4	592	1328.164886526936	54.512888289744
4	593	1331.558145384093	53.505209965553
4	594	1332.746535758117	29.992197118464
4	605	1343.210045371376	37.635926402742
4	606	1350.85478335332	44.45972096424
4	607	1354.27069764919	39.609144911975
4	610	1359.579968655524	26.596338417617
4	611	1362.388453476408	3.237897790184
4	615	1367.851171054929	4.153914452977
4	645	1450.865620332593	6.145967942999
4	650	1461.27680899576	10.83176790427
4	651	1461.765748319488	10.944058576634
4	652	1464.884221811779	3.87570204656
4	670	1494.830617930736	8.29132453244
4	675	1515.658680678531	4.093882246849
4	690	1531.789899495434	8.877583535852
4	706	1557.432362601828	3.073149134747
4	712	1573.616237636394	0.061601632944
4	738	1642.139361089405	23.533259945665
4	743	1663.075399059895	15.342422049031
4	752	1683.153095999696	30.43679575957
4	758	1700.550932756318	0.647366762446
4	763	1714.00031088218	13.835579704432
4	766	1717.446992819561	13.350891476821
4	777	1732.984318326968	0.277369994528
4	788	1752.336435437636	12.905288293238
4	795	1775.30657209127	31.841369825778
4	796	1776.639529428596	26.774030152717
4	809	1805.456337462422	24.036435274188
4	810	1808.508481166271	14.472609545081
4	844	1867.397404708694	13.143587416922
4	861	1893.075139883603	2.193134340944
4	862	1898.326238007313	7.366405159066
4	868	1909.839351314343	3.580005179796
4	888	1979.20234093715	27.231824205076
4	893	1994.36440301001	21.551932123826
4	907	2020.630010271853	4.316257737722
4	917	2029.853386284619	3.219166179687
4	940	2116.470273470136	3.071665900373
4	943	2125.671726891708	2.812065737896
4	963	2162.153958234389	0.132636003446
4	970	2173.647970069031	7.757186787647
4	971	2173.959409759095	1.212981016952
4	979	2192.282349703834	3.037217562723
4	995	2234.315743504621	0.436406873958
4	1002	2241.709585914367	2.441781549632
4	1011	2253.711457636411	1.095367334892
4	1058	2358.820765785405	13.442258031008
4	1061	2359.171956978055	0.271624745199
4	1069	2384.252418295645	13.534493114089
4	1081	2420.100212422008	2.053820770077
4	1085	2430.954082159128	7.194361115137
4	1097	2459.703194944469	6.280501814722
4	1100	2465.416225052542	6.9250382123
4	1111	2481.743576549616	1.574212035221
5	160	397.949897162909	1
5	167	411.471568794108	1
5	170	420.230523895315	1
5	173	423.626370630007	1
5	181	433.979021401061	2
5	183	434.997459550596	3
5	186	436.463358371075	4
5	191	447.3390123704	5
5	198	460.684561441791	6
5	200	462.209260645508	7
5	206	471.80022684556	8
5	208	482.12454206374	9
5	213	501.94602011595	10
5	215	504.152873383937	11
5	218	506.764314853358	12
5	221	516.720497587459	13
5	224	525.084643806652	13
5	234	535.727868267657	11
5	236	537.018404049543	12
5	241	549.634151508763	11
5	243	551.56278072711	12
5	247	559.039735221251	13
5	252	562.877230825547	14
5	254	562.954784115561	15
5	256	565.008561718757	16
5	258	565.430729754966	17
5	262	568.095931702788	18
5	265	571.345060115002	19
5	271	582.639845148548	20
5	285	608.459123519515	21
5	293	622.936509287057	22
5	297	626.569211957683	23
5	300	631.689727490417	24
5	307	659.407904956321	25
5	315	679.657796540349	26
5	319	701.327193298871	27
5	322	713.90688556752	28
5	324	720.086850441601	29
5	329	727.457895586696	30
5	332	733.313309239065	31
5	338	749.354740548087	30
5	348	776.276508363408	31
5	352	777.28756776415	32
5	354	787.378396625648	33
5	356	790.643643360153	34
5	358	800.042271453348	35
5	361	810.570050040013	36
5	364	817.725022293353	37
5	371	839.515907787457	38
5	373	841.688057020289	39
5	376	862.791215186079	40
5	379	869.66179205242	41
5	382	876.497427822597	41
5	384	877.513300832293	42
5	387	886.270071100297	42
5	396	902.631208475954	42
5	401	920.651580677701	43
5	405	936.116745149452	42
5	412	945.211657223258	41
5	417	958.429144938276	39
5	421	965.565444506313	38
5	423	965.738090244711	39
5	425	966.252998812531	40
5	427	969.063236927235	41
5	432	973.705196395811	41
5	434	975.394861851765	42
5	436	981.092227947627	43
5	445	997.320396551664	44
5	452	1004.131180005746	45
5	454	1009.808859567802	46
5	456	1017.930388621933	47
5	459	1022.419777073105	48
5	463	1025.300882535409	47
5	468	1037.939473070161	47
5	470	1039.229428256462	48
5	473	1049.658067412039	49
5	477	1061.06979822698	50
5	479	1071.919528734719	51
5	485	1095.56391038071	52
5	490	1103.766454948256	50
5	494	1110.542400832551	49
5	498	1123.489569023027	48
5	500	1124.218693505945	49
5	509	1152.481030913731	43
5	511	1158.036682929179	44
5	524	1197.501637819124	40
5	528	1200.101138425325	39
5	530	1211.222097662782	40
5	533	1211.487149992353	40
5	538	1222.187040243271	41
5	542	1229.137359880271	40
5	544	1230.742420810067	41
5	549	1241.579059115042	42
5	551	1243.485386794217	43
5	555	1259.835760388708	42
5	558	1261.215077139916	42
5	567	1281.144771545962	43
5	569	1286.813517328929	44
5	571	1290.596789691155	45
5	577	1305.962453132044	46
5	581	1312.995428447974	47
5	585	1317.376687031108	48
5	587	1320.216093915217	49
5	589	1324.53062450491	50
5	591	1325.881155680585	51
5	598	1335.272079502913	52
5	600	1335.806599765196	53
5	602	1336.515749204007	54
5	604	1342.118909752105	55
5	618	1384.84673323077	54
5	620	1386.893093362784	55
5	622	1391.798389368981	56
5	625	1403.202839834223	56
5	627	1403.920456823309	57
5	629	1420.273671390911	58
5	635	1440.173971765543	55
5	640	1449.518260083194	55
5	647	1460.539974187747	56
5	655	1467.848024405061	56
5	657	1469.095230486552	57
5	659	1469.985964243131	58
5	663	1480.056475120775	57
5	665	1481.268096005576	58
5	672	1497.204046517625	57
5	679	1518.875082245208	56
5	683	1525.623965836859	57
5	685	1527.782095723479	58
5	687	1529.596622400465	59
5	689	1531.339929549102	60
5	695	1539.152779654656	58
5	697	1540.895297695028	59
5	700	1552.853280549139	59
5	705	1554.383510647309	59
5	709	1572.961662525789	59
5	714	1575.714470806213	60
5	718	1583.828528454689	59
5	723	1598.809142560443	57
5	728	1613.696400737282	55
5	733	1621.907817106086	55
5	735	1622.31002925285	56
5	737	1624.358444580792	57
5	745	1663.757812045068	58
5	747	1666.416554936188	59
5	749	1672.64424859245	60
5	751	1680.526224448561	61
5	762	1710.318132843612	61
5	765	1714.293339977835	62
5	768	1718.084805929546	63
5	771	1725.484517705623	63
5	773	1726.975676381114	64
5	781	1743.294389927774	64
5	785	1744.421660029402	65
5	790	1755.941372109301	66
5	792	1763.668176453331	67
5	794	1770.221910112845	68
5	800	1790.113433138279	69
5	802	1791.583001313832	70
5	806	1801.182068619676	71
5	808	1804.051889999432	72
5	814	1816.993400954675	71
5	816	1819.834835112653	72
5	818	1821.339737626092	73
5	820	1825.14610524439	74
5	823	1828.541154669257	74
5	825	1828.717307722878	75
5	827	1829.424264379244	76
5	829	1834.169884143891	77
5	832	1839.70340363286	77
5	835	1843.468980196812	77
5	841	1855.716236927823	76
5	843	1861.806249823189	77
5	847	1869.715884528952	77
5	849	1871.377560180694	78
5	851	1873.028429102896	79
5	854	1877.997101666317	79
5	864	1903.84832920382	78
5	870	1910.23864665529	78
5	875	1923.432083544034	76
5	881	1960.039365907734	75
5	883	1968.288958189991	76
5	887	1975.326106130925	77
5	890	1980.980090044125	78
5	892	1982.684070999175	79
5	897	1999.747928399395	78
5	900	2010.133410106158	78
5	904	2016.520771429637	79
5	906	2016.753743487101	80
5	912	2027.642227590007	80
5	914	2027.966526499892	81
5	916	2028.769498076468	82
5	920	2033.860208532856	82
5	925	2049.487973869718	80
5	928	2060.097357441063	80
5	930	2069.15897862647	81
5	945	2134.481129799226	75
5	949	2142.074008915878	74
5	951	2146.781749050434	75
5	953	2146.784535038275	76
5	956	2148.086814447921	76
5	960	2158.500431566153	75
5	974	2177.132411439339	73
5	976	2177.799656478916	74
5	981	2193.954006118779	75
5	986	2206.945878337797	73
5	988	2208.441259711246	74
5	990	2209.854623402569	75
5	997	2237.548623821418	74
5	1001	2241.407922421277	75
5	1004	2241.759293760181	76
5	1006	2244.136904210264	77
5	1014	2258.445932998195	75
5	1016	2258.665064005915	76
5	1031	2297.678040884525	64
5	1033	2298.970300673345	65
5	1036	2302.107353899143	65
5	1039	2309.250515592818	65
5	1041	2319.217539614216	66
5	1048	2341.010863998471	62
5	1051	2343.787560148528	62
5	1055	2356.269138156631	63
5	1057	2357.424688540216	64
5	1068	2371.83423005954	62
5	1076	2405.260191258795	58
5	1078	2409.872830752608	59
5	1088	2435.258806490311	58
5	1099	2465.030252498576	55
5	1104	2475.340337087485	54
5	1110	2480.296612191078	53
5	1113	2486.589377076387	54
5	1118	2495.328009140238	52
6	160	397.949897162909	0
6	162	404.241673706402	0
6	167	411.471568794108	0
6	168	411.581808667236	0
6	170	420.230523895315	0
6	171	423.042776876204	0
6	173	423.626370630007	0
6	181	433.979021401061	1
6	183	434.997459550596	2
6	186	436.463358371075	3
6	191	447.3390123704	4
6	198	460.684561441791	5
6	200	462.209260645508	6
6	206	471.80022684556	7
6	208	482.12454206374	8
6	213	501.94602011595	9
6	215	504.152873383937	10
6	218	506.764314853358	11
6	221	516.720497587459	12
6	222	522.129506326935	12
6	224	525.084643806652	12
6	225	526.022201599771	12
6	226	528.255523486425	11
6	227	529.565991446687	10
6	234	535.727868267657	10
6	236	537.018404049543	11
6	238	545.961285582442	11
6	239	546.09719744043	10
6	241	549.634151508763	10
6	243	551.56278072711	11
6	247	559.039735221251	12
6	252	562.877230825547	13
6	254	562.954784115561	14
6	256	565.008561718757	15
6	258	565.430729754966	16
6	262	568.095931702788	17
6	265	571.345060115002	18
6	271	582.639845148548	19
6	285	608.459123519515	20
6	293	622.936509287057	21
6	297	626.569211957683	22
6	300	631.689727490417	23
6	307	659.407904956321	24
6	315	679.657796540349	25
6	319	701.327193298871	26
6	322	713.90688556752	27
6	324	720.086850441601	28
6	329	727.457895586696	29
6	332	733.313309239065	30
6	333	739.946839077257	30
6	334	742.215671150598	29
6	338	749.354740548087	29
6	348	776.276508363408	30
6	352	777.28756776415	31
6	354	787.378396625648	32
6	356	790.643643360153	33
6	358	800.042271453348	34
6	361	810.570050040013	35
6	364	817.725022293353	36
6	371	839.515907787457	37
6	373	841.688057020289	38
6	376	862.791215186079	39
6	379	869.66179205242	40
6	380	873.234882384931	40
6	382	876.497427822597	40
6	384	877.513300832293	41
6	385	878.591734268386	41
6	387	886.270071100297	41
6	388	886.695566816677	41
6	396	902.631208475954	41
6	401	920.651580677701	42
6	402	922.641173245684	42
6	403	925.386255009439	41
6	405	936.116745149452	41
6	406	937.479750104083	41
6	407	943.133209201359	40
6	412	945.211657223258	40
6	413	948.218415214793	40
6	414	952.26560554119	39
6	415	952.289565394623	38
6	417	958.429144938276	38
6	418	960.003595001738	38
6	419	964.185047640807	37
6	421	965.565444506313	37
6	423	965.738090244711	38
6	425	966.252998812531	39
6	427	969.063236927235	40
6	428	969.345832570516	40
6	432	973.705196395811	40
6	434	975.394861851765	41
6	436	981.092227947627	42
6	445	997.320396551664	43
6	452	1004.131180005746	44
6	454	1009.808859567802	45
6	456	1017.930388621933	46
6	459	1022.419777073105	47
6	460	1022.664591387972	47
6	461	1024.16345807979	46
6	463	1025.300882535409	46
6	464	1029.101216393331	46
6	468	1037.939473070161	46
6	470	1039.229428256462	47
6	473	1049.658067412039	48
6	477	1061.06979822698	49
6	479	1071.919528734719	50
6	485	1095.56391038071	51
6	486	1100.419132457075	51
6	487	1101.285997724854	50
6	488	1102.107851018024	49
6	490	1103.766454948256	49
6	491	1104.961789006757	49
6	492	1108.021387394015	48
6	494	1110.542400832551	48
6	495	1110.750788598997	48
6	496	1116.989770509799	47
6	498	1123.489569023027	47
6	500	1124.218693505945	48
6	501	1127.058061364708	48
6	502	1127.158740865165	47
6	503	1128.058364305353	46
6	504	1131.895914570288	45
6	505	1140.649829977378	44
6	506	1146.604622016229	43
6	507	1146.93889027694	42
6	509	1152.481030913731	42
6	511	1158.036682929179	43
6	512	1162.295350573408	43
6	513	1164.031741682021	42
6	514	1166.071618290063	41
6	518	1175.912333191674	40
6	522	1195.735675305242	39
6	524	1197.501637819124	39
6	525	1198.538433808333	39
6	526	1199.12315833666	38
6	528	1200.101138425325	38
6	530	1211.222097662782	39
6	531	1211.464741760633	39
6	533	1211.487149992353	39
6	538	1222.187040243271	40
6	539	1222.485269561132	40
6	540	1222.826967857537	39
6	542	1229.137359880271	39
6	544	1230.742420810067	40
6	549	1241.579059115042	41
6	551	1243.485386794217	42
6	552	1249.012469829307	42
6	553	1255.565251097257	41
6	555	1259.835760388708	41
6	556	1260.876521130963	41
6	558	1261.215077139916	41
6	567	1281.144771545962	42
6	569	1286.813517328929	43
6	571	1290.596789691155	44
6	577	1305.962453132044	45
6	581	1312.995428447974	46
6	585	1317.376687031108	47
6	587	1320.216093915217	48
6	589	1324.53062450491	49
6	591	1325.881155680585	50
6	598	1335.272079502913	51
6	600	1335.806599765196	52
6	602	1336.515749204007	53
6	604	1342.118909752105	54
6	612	1362.977336209364	54
6	616	1371.885529587045	53
6	618	1384.84673323077	53
6	620	1386.893093362784	54
6	622	1391.798389368981	55
6	623	1394.460683843457	55
6	625	1403.202839834223	55
6	627	1403.920456823309	56
6	629	1420.273671390911	57
6	630	1420.390906148294	57
6	631	1427.57710782465	56
6	632	1432.86683274925	55
6	633	1436.351377900985	54
6	635	1440.173971765543	54
6	636	1440.637005544104	54
6	640	1449.518260083194	54
6	647	1460.539974187747	55
6	653	1465.85955810434	55
6	655	1467.848024405061	55
6	657	1469.095230486552	56
6	659	1469.985964243131	57
6	660	1472.541128704027	57
6	661	1478.804581484167	56
6	663	1480.056475120775	56
6	665	1481.268096005576	57
6	666	1483.092172110912	57
6	667	1484.208102234968	56
6	672	1497.204046517625	56
6	676	1517.513194309347	56
6	677	1517.542768323086	55
6	679	1518.875082245208	55
6	683	1525.623965836859	56
6	685	1527.782095723479	57
6	687	1529.596622400465	58
6	689	1531.339929549102	59
6	691	1534.028451068115	59
6	692	1535.033076242367	58
6	693	1535.480921733727	57
6	695	1539.152779654656	57
6	697	1540.895297695028	58
6	698	1550.967440792128	58
6	700	1552.853280549139	58
6	701	1553.913219862178	58
6	705	1554.383510647309	58
6	707	1558.024165585199	58
6	709	1572.961662525789	58
6	714	1575.714470806213	59
6	715	1579.063891030408	59
6	716	1579.885431588547	58
6	718	1583.828528454689	58
6	719	1589.14643871773	58
6	720	1595.021141580004	57
6	721	1597.368961316933	56
6	723	1598.809142560443	56
6	724	1603.232148448307	56
6	725	1607.406679880515	55
6	726	1610.386696913972	54
6	728	1613.696400737282	54
6	729	1617.545056550809	54
6	733	1621.907817106086	54
6	735	1622.31002925285	55
6	737	1624.358444580792	56
6	745	1663.757812045068	57
6	747	1666.416554936188	58
6	749	1672.64424859245	59
6	751	1680.526224448561	60
6	753	1687.245278210673	60
6	762	1710.318132843612	60
6	765	1714.293339977835	61
6	768	1718.084805929546	62
6	769	1719.480945944334	62
6	771	1725.484517705623	62
6	773	1726.975676381114	63
6	774	1730.951593866804	63
6	781	1743.294389927774	63
6	785	1744.421660029402	64
6	790	1755.941372109301	65
6	792	1763.668176453331	66
6	794	1770.221910112845	67
6	800	1790.113433138279	68
6	802	1791.583001313832	69
6	806	1801.182068619676	70
6	808	1804.051889999432	71
6	811	1808.902227639717	71
6	812	1809.951661805883	70
6	814	1816.993400954675	70
6	816	1819.834835112653	71
6	818	1821.339737626092	72
6	820	1825.14610524439	73
6	821	1827.518040979267	73
6	823	1828.541154669257	73
6	825	1828.717307722878	74
6	827	1829.424264379244	75
6	829	1834.169884143891	76
6	830	1837.156566480364	76
6	832	1839.70340363286	76
6	833	1840.759753875909	76
6	835	1843.468980196812	76
6	836	1849.173255500105	76
6	837	1853.291726568847	75
6	841	1855.716236927823	75
6	843	1861.806249823189	76
6	845	1867.830185010831	76
6	847	1869.715884528952	76
6	849	1871.377560180694	77
6	851	1873.028429102896	78
6	852	1874.832578510227	78
6	854	1877.997101666317	78
6	855	1884.594804642241	78
6	856	1885.018995419464	77
6	864	1903.84832920382	77
6	865	1904.034586449897	77
6	870	1910.23864665529	77
6	871	1912.229270047692	77
6	872	1912.426476839913	76
6	873	1918.52149835711	75
6	875	1923.432083544034	75
6	876	1934.322276575239	75
6	877	1941.561553842892	74
6	881	1960.039365907734	74
6	883	1968.288958189991	75
6	887	1975.326106130925	76
6	890	1980.980090044125	77
6	892	1982.684070999175	78
6	894	1995.366169404445	78
6	895	1996.717115897451	77
6	897	1999.747928399395	77
6	898	2008.436597842095	77
6	900	2010.133410106158	77
6	904	2016.520771429637	78
6	906	2016.753743487101	79
6	908	2022.984354216864	79
6	912	2027.642227590007	79
6	914	2027.966526499892	80
6	916	2028.769498076468	81
6	918	2033.221120653556	81
6	920	2033.860208532856	81
6	921	2036.136516594414	81
6	922	2042.980946112445	80
6	923	2043.703079013845	79
6	925	2049.487973869718	79
6	926	2059.773456908473	79
6	928	2060.097357441063	79
6	930	2069.15897862647	80
6	931	2070.351924817275	80
6	932	2078.920262238446	79
6	933	2090.279613347493	78
6	934	2090.831502521362	77
6	935	2092.134304068644	76
6	936	2107.185127019539	75
6	937	2110.229900918473	74
6	945	2134.481129799226	74
6	946	2136.105031619473	74
6	947	2139.95271505051	73
6	949	2142.074008915878	73
6	951	2146.781749050434	74
6	953	2146.784535038275	75
6	954	2147.395059967693	75
6	956	2148.086814447921	75
6	957	2148.545865363631	75
6	958	2153.552772831218	74
6	960	2158.500431566153	74
6	964	2163.939422043944	74
6	965	2165.03227108203	73
6	972	2174.962829141688	72
6	974	2177.132411439339	72
6	976	2177.799656478916	73
6	981	2193.954006118779	74
6	982	2197.352744704033	74
6	983	2199.270600820805	73
6	984	2201.596378197386	72
6	986	2206.945878337797	72
6	988	2208.441259711246	73
6	990	2209.854623402569	74
6	991	2213.69011913764	74
6	992	2231.474362243955	73
6	997	2237.548623821418	73
6	1001	2241.407922421277	74
6	1004	2241.759293760181	75
6	1006	2244.136904210264	76
6	1007	2246.692529076243	76
6	1008	2246.967698612353	75
6	1012	2254.824775995594	74
6	1014	2258.445932998195	74
6	1016	2258.665064005915	75
6	1017	2262.233857192486	75
6	1018	2264.398340507472	74
6	1019	2268.857407597441	73
6	1020	2270.419992893581	72
6	1021	2276.133919151287	71
6	1022	2279.864740618046	70
6	1023	2281.203573261288	69
6	1024	2283.209510808808	68
6	1025	2284.564354672305	67
6	1026	2291.220701275718	66
6	1027	2294.292273885997	65
6	1028	2296.030868622615	64
6	1029	2296.852685087714	63
6	1031	2297.678040884525	63
6	1033	2298.970300673345	64
6	1034	2299.497614941589	64
6	1036	2302.107353899143	64
6	1037	2308.380087070426	64
6	1039	2309.250515592818	64
6	1041	2319.217539614216	65
6	1042	2320.112750172303	65
6	1043	2320.202594737452	64
6	1044	2323.002811434523	63
6	1045	2334.572399879386	62
6	1046	2337.037571848796	61
6	1048	2341.010863998471	61
6	1049	2343.20622187849	61
6	1051	2343.787560148528	61
6	1055	2356.269138156631	62
6	1057	2357.424688540216	63
6	1062	2361.979706268459	63
6	1063	2362.831899173175	62
6	1064	2364.012464136513	61
6	1068	2371.83423005954	61
6	1070	2384.843060523747	61
6	1071	2384.867410511314	60
6	1072	2388.606212800252	59
6	1073	2389.021367298331	58
6	1074	2404.007748710975	57
6	1076	2405.260191258795	57
6	1078	2409.872830752608	58
6	1082	2422.688088327728	58
6	1086	2432.625446020824	57
6	1088	2435.258806490311	57
6	1089	2444.204170266176	57
6	1090	2445.303749404629	56
6	1091	2449.298528493052	55
6	1092	2450.392445450686	54
6	1099	2465.030252498576	54
6	1101	2469.743868438022	54
6	1102	2470.742950393401	53
6	1104	2475.340337087485	53
6	1105	2475.447825393361	53
6	1106	2479.428331751815	52
6	1110	2480.296612191078	52
6	1113	2486.589377076387	53
6	1114	2486.908494689917	53
6	1115	2487.722497684369	52
6	1116	2491.329528463309	51
6	1118	2495.328009140238	51
7	161	400.836033648824	2.886136485915
7	167	411.471568794108	0
7	170	420.230523895315	0
7	173	423.626370630007	0
7	219	507.092068907243	80.678271635711
7	222	522.129506326935	88.150484925874
7	225	526.022201599771	91.024742049175
7	226	528.255523486425	91.79216511535
7	227	529.565991446687	82.226979076287
7	237	543.775322025272	83.090760583481
7	238	545.961285582442	83.752024936934
7	239	546.09719744043	74.29697059487
7	248	560.252348862912	78.127806799172
7	266	571.935332874453	69.989312758503
7	269	582.300269686845	78.147396302908
7	283	607.897121616025	101.13280676267
7	291	621.775407744008	105.05491015655
7	298	627.087283942831	102.00264013618
7	330	731.592503707123	199.32507044395
7	333	739.946839077257	204.2189708096
7	334	742.215671150598	205.19726710105
7	365	822.7967156341	273.16256412534
7	377	864.524516889779	312.96173616267
7	380	873.234882384931	321.28390619987
7	385	878.591734268386	319.55199904713
7	388	886.695566816677	324.09570865295
7	394	901.614843142161	338.73761231661
7	399	908.690854958284	345.73607084272
7	402	922.641173245684	357.63261152693
7	403	925.386255009439	359.95552525447
7	406	937.479750104083	369.3838184013
7	407	943.133209201359	371.78814908636
7	410	944.887003552534	365.15117016236
7	413	948.218415214793	365.57857006624
7	414	952.26560554119	364.42874705602
7	415	952.289565394623	343.83044187511
7	418	960.003595001738	346.67323309332
7	419	964.185047640807	341.24853835375
7	428	969.345832570516	344.32576315159
7	437	985.154130438103	358.58491848042
7	440	990.456037516867	358.76631002645
7	443	997.16550608971	361.67173222659
7	448	999.070251379358	339.66234642304
7	457	1018.801937064897	339.14414052455
7	460	1022.664591387972	321.3373980891
7	461	1024.16345807979	310.25657251227
7	464	1029.101216393331	309.01436595173
7	471	1044.716880422932	317.25898483624
7	483	1091.631227650387	358.31791841132
7	486	1100.419132457075	357.60168430859
7	487	1101.285997724854	351.93125717677
7	488	1102.107851018024	325.83134265462
7	491	1104.961789006757	327.67422124261
7	492	1108.021387394015	320.64299076837
7	495	1110.750788598997	320.10714523884
7	496	1116.989770509799	316.94749905645
7	501	1127.058061364708	316.48801132469
7	502	1127.158740865165	309.43371857181
7	503	1128.058364305353	291.83293756424
7	504	1131.895914570288	292.38000678283
7	505	1140.649829977378	298.96177295709
7	506	1146.604622016229	283.81340683015
7	507	1146.93889027694	277.27709822452
7	512	1162.295350573408	285.79792275081
7	513	1164.031741682021	286.51844084973
7	514	1166.071618290063	279.80154718977
7	517	1173.220628439049	286.34471501152
7	518	1175.912333191674	273.28112471572
7	521	1186.774290736471	280.60447254384
7	522	1195.735675305242	275.08409462754
7	525	1198.538433808333	262.42168865888
7	526	1199.12315833666	254.45880829927
7	531	1211.464741760633	266.25308453738
7	536	1214.853543639357	256.42439870108
7	539	1222.485269561132	256.91982505482
7	540	1222.826967857537	257.08887761283
7	547	1235.889307323672	269.63630851114
7	552	1249.012469829307	279.94923290207
7	553	1255.565251097257	283.46282250339
7	556	1260.876521130963	287.17132473515
7	611	1362.388453476408	386.99359162464
7	612	1362.977336209364	381.88510826174
7	615	1367.851171054929	382.23822630089
7	616	1371.885529587045	379.44874326485
7	623	1394.460683843457	397.14028729179
7	630	1420.390906148294	422.21102247138
7	631	1427.57710782465	425.10469313834
7	632	1432.86683274925	428.7356527435
7	633	1436.351377900985	426.54251833318
7	636	1440.637005544104	422.70661692217
7	652	1464.884221811779	442.46444473867
7	653	1465.85955810434	440.55867556893
7	660	1472.541128704027	441.42002722566
7	661	1478.804581484167	440.86510841401
7	666	1483.092172110912	443.86274385445
7	667	1484.208102234968	434.55003482293
7	670	1494.830617930736	435.0068876804
7	675	1515.658680678531	454.58888245155
7	676	1517.513194309347	445.59366557463
7	677	1517.542768323086	421.97885794238
7	690	1531.789899495434	428.02344454718
7	691	1534.028451068115	423.48605023556
7	692	1535.033076242367	411.54350721934
7	693	1535.480921733727	411.26222822778
7	698	1550.967440792128	398.4864098784
7	701	1553.913219862178	395.876536933
7	706	1557.432362601828	387.0652802478
7	707	1558.024165585199	377.91439934191
7	712	1573.616237636394	376.11459981727
7	715	1579.063891030408	378.96275260508
7	716	1579.885431588547	368.66333392577
7	719	1589.14643871773	377.65928872538
7	720	1595.021141580004	382.35663480957
7	721	1597.368961316933	375.18192107366
7	724	1603.232148448307	374.09478856804
7	725	1607.406679880515	376.66425907045
7	726	1610.386696913972	377.06153669893
7	729	1617.545056550809	375.96599743577
7	738	1642.139361089405	398.65397429519
7	752	1683.153095999696	423.31733561099
7	753	1687.245278210673	426.03020107076
7	766	1717.446992819561	447.56183914192
7	769	1719.480945944334	438.33617439837
7	774	1730.951593866804	444.13807653788
7	777	1732.984318326968	442.38752863581
7	796	1776.639529428596	470.67707629655
7	810	1808.508481166271	495.5130527183
7	811	1808.902227639717	491.52554060861
7	812	1809.951661805883	489.73556789067
7	821	1827.518040979267	502.98741647436
7	830	1837.156566480364	511.27541079978
7	833	1840.759753875909	505.487674373
7	836	1849.173255500105	513.36665573491
7	837	1853.291726568847	516.77597736484
7	844	1867.397404708694	525.27849495659
7	845	1867.830185010831	504.13292840888
7	852	1874.832578510227	489.98584527946
7	855	1884.594804642241	497.70171127946
7	856	1885.018995419464	493.22060605048
7	862	1898.326238007313	495.12339817309
7	865	1904.034586449897	500.11412962659
7	868	1909.839351314343	489.56567992343
7	871	1912.229270047692	472.05529828215
7	872	1912.426476839913	467.70682445032
7	873	1918.52149835711	469.00323827392
7	876	1934.322276575239	473.78230238749
7	877	1941.561553842892	473.71352943783
7	893	1994.36440301001	525.26917252346
7	894	1995.366169404445	525.38020516131
7	895	1996.717115897451	516.66064077668
7	898	2008.436597842095	527.16850183652
7	907	2020.630010271853	534.09071687356
7	908	2022.984354216864	525.78030769924
7	917	2029.853386284619	518.28858785294
7	918	2033.221120653556	514.34603840835
7	921	2036.136516594414	513.22420063483
7	922	2042.980946112445	517.35698027559
7	923	2043.703079013845	515.92098329037
7	926	2059.773456908473	530.17683450801
7	931	2070.351924817275	539.01199526817
7	932	2078.920262238446	539.76748258379
7	933	2090.279613347493	549.38431565247
7	934	2090.831502521362	537.97822197222
7	935	2092.134304068644	537.77509060156
7	936	2107.185127019539	552.80161637223
7	937	2110.229900918473	537.26823839268
7	940	2116.470273470136	542.91563746669
7	943	2125.671726891708	549.9572560855
7	946	2136.105031619473	552.27650316478
7	947	2139.95271505051	541.14357249007
7	954	2147.395059967693	533.69865923041
7	957	2148.545865363631	529.93976421989
7	958	2153.552772831218	531.64495572513
7	963	2162.153958234389	539.84392898154
7	964	2163.939422043944	539.58097746315
7	965	2165.03227108203	517.29929407117
7	971	2173.959409759095	510.20159771403
7	972	2174.962829141688	508.5462742055
7	979	2192.282349703834	519.63810111138
7	982	2197.352744704033	516.82652025547
7	983	2199.270600820805	499.36703482693
7	984	2201.596378197386	491.27824535377
7	991	2213.69011913764	499.3967791598
7	992	2231.474362243955	513.38955631441
7	995	2234.315743504621	508.831225799
7	1002	2241.709585914367	514.73390953325
7	1007	2246.692529076243	513.9855807438
7	1008	2246.967698612353	507.53655146796
7	1011	2253.711457636411	510.41706770864
7	1012	2254.824775995594	510.40311596619
7	1017	2262.233857192486	506.29248508318
7	1018	2264.398340507472	500.73016405414
7	1019	2268.857407597441	498.6354974846
7	1020	2270.419992893581	489.00009070535
7	1021	2276.133919151287	486.02048601301
7	1022	2279.864740618046	488.28173930421
7	1023	2281.203573261288	480.02150464161
7	1024	2283.209510808808	479.15762080938
7	1025	2284.564354672305	467.57095371763
7	1026	2291.220701275718	471.38586616306
7	1027	2294.292273885997	472.95253625991
7	1028	2296.030868622615	470.88476337822
7	1029	2296.852685087714	468.31153041846
7	1034	2299.497614941589	470.78030721871
7	1037	2308.380087070426	478.95582269118
7	1042	2320.112750172303	485.94286602841
7	1043	2320.202594737452	480.49919110459
7	1044	2323.002811434523	479.53383123771
7	1045	2334.572399879386	480.31858258761
7	1046	2337.037571848796	481.32133492097
7	1049	2343.20622187849	481.3999720553
7	1058	2358.820765785405	489.10488125645
7	1061	2359.171956978055	487.79439679736
7	1062	2361.979706268459	488.95127716556
7	1063	2362.831899173175	484.83479750686
7	1064	2364.012464136513	473.13045859385
7	1069	2384.252418295645	480.40408909182
7	1070	2384.843060523747	478.5837143892
7	1071	2384.867410511314	474.62876385602
7	1072	2388.606212800252	465.17412925622
7	1073	2389.021367298331	437.05085056626
7	1074	2404.007748710975	443.96838280324
7	1081	2420.100212422008	451.81125423202
7	1082	2422.688088327728	447.3619821968
7	1085	2430.954082159128	449.973992115
7	1086	2432.625446020824	449.94137502165
7	1089	2444.204170266176	444.45624186678
7	1090	2445.303749404629	435.17033929847
7	1091	2449.298528493052	432.98477595892
7	1092	2450.392445450686	433.87167402105
7	1100	2465.416225052542	448.66248156544
7	1101	2469.743868438022	443.10964833309
7	1102	2470.742950393401	443.10072280339
7	1105	2475.447825393361	447.48129889347
7	1106	2479.428331751815	450.65883367535
7	1111	2481.743576549616	447.88336801676
7	1114	2486.908494689917	437.4205208202
7	1115	2487.722497684369	427.62514024331
7	1116	2491.329528463309	422.17054983684
8	162	404.241673706402	38
8	168	411.581808667236	39
8	171	423.042776876204	40
8	222	522.129506326935	41
8	225	526.022201599771	42
8	226	528.255523486425	43
8	227	529.565991446687	44
8	238	545.961285582442	45
8	239	546.09719744043	46
8	333	739.946839077257	47
8	334	742.215671150598	48
8	380	873.234882384931	49
8	385	878.591734268386	50
8	388	886.695566816677	51
8	402	922.641173245684	52
8	403	925.386255009439	53
8	406	937.479750104083	54
8	407	943.133209201359	55
8	413	948.218415214793	56
8	414	952.26560554119	57
8	415	952.289565394623	58
8	418	960.003595001738	59
8	419	964.185047640807	60
8	428	969.345832570516	61
8	460	1022.664591387972	62
8	461	1024.16345807979	63
8	464	1029.101216393331	64
8	486	1100.419132457075	65
8	487	1101.285997724854	66
8	488	1102.107851018024	67
8	491	1104.961789006757	68
8	492	1108.021387394015	69
8	495	1110.750788598997	70
8	496	1116.989770509799	71
8	501	1127.058061364708	72
8	502	1127.158740865165	73
8	503	1128.058364305353	74
8	504	1131.895914570288	75
8	505	1140.649829977378	76
8	506	1146.604622016229	77
8	507	1146.93889027694	78
8	512	1162.295350573408	79
8	513	1164.031741682021	80
8	514	1166.071618290063	81
8	518	1175.912333191674	82
8	522	1195.735675305242	83
8	525	1198.538433808333	84
8	526	1199.12315833666	85
8	531	1211.464741760633	86
8	539	1222.485269561132	87
8	540	1222.826967857537	88
8	552	1249.012469829307	89
8	553	1255.565251097257	90
8	556	1260.876521130963	91
8	612	1362.977336209364	92
8	616	1371.885529587045	93
8	623	1394.460683843457	94
8	630	1420.390906148294	95
8	631	1427.57710782465	96
8	632	1432.86683274925	97
8	633	1436.351377900985	98
8	636	1440.637005544104	99
8	653	1465.85955810434	100
8	660	1472.541128704027	101
8	661	1478.804581484167	102
8	666	1483.092172110912	103
8	667	1484.208102234968	104
8	676	1517.513194309347	105
8	677	1517.542768323086	106
8	691	1534.028451068115	107
8	692	1535.033076242367	108
8	693	1535.480921733727	109
8	698	1550.967440792128	110
8	701	1553.913219862178	111
8	707	1558.024165585199	112
8	715	1579.063891030408	113
8	716	1579.885431588547	114
8	719	1589.14643871773	115
8	720	1595.021141580004	116
8	721	1597.368961316933	117
8	724	1603.232148448307	118
8	725	1607.406679880515	119
8	726	1610.386696913972	120
8	729	1617.545056550809	121
8	753	1687.245278210673	122
8	769	1719.480945944334	123
8	774	1730.951593866804	124
8	811	1808.902227639717	125
8	812	1809.951661805883	126
8	821	1827.518040979267	127
8	830	1837.156566480364	128
8	833	1840.759753875909	129
8	836	1849.173255500105	130
8	837	1853.291726568847	131
8	845	1867.830185010831	132
8	852	1874.832578510227	133
8	855	1884.594804642241	134
8	856	1885.018995419464	135
8	865	1904.034586449897	136
8	871	1912.229270047692	137
8	872	1912.426476839913	138
8	873	1918.52149835711	139
8	876	1934.322276575239	140
8	877	1941.561553842892	141
8	894	1995.366169404445	142
8	895	1996.717115897451	143
8	898	2008.436597842095	144
8	908	2022.984354216864	145
8	918	2033.221120653556	146
8	921	2036.136516594414	147
8	922	2042.980946112445	148
8	923	2043.703079013845	149
8	926	2059.773456908473	150
8	931	2070.351924817275	151
8	932	2078.920262238446	152
8	933	2090.279613347493	153
8	934	2090.831502521362	154
8	935	2092.134304068644	155
8	936	2107.185127019539	156
8	937	2110.229900918473	157
8	946	2136.105031619473	158
8	947	2139.95271505051	159
8	954	2147.395059967693	160
8	957	2148.545865363631	161
8	958	2153.552772831218	162
8	964	2163.939422043944	163
8	965	2165.03227108203	164
8	972	2174.962829141688	165
8	982	2197.352744704033	166
8	983	2199.270600820805	167
8	984	2201.596378197386	168
8	991	2213.69011913764	169
8	992	2231.474362243955	170
8	1007	2246.692529076243	171
8	1008	2246.967698612353	172
8	1012	2254.824775995594	173
8	1017	2262.233857192486	174
8	1018	2264.398340507472	175
8	1019	2268.857407597441	176
8	1020	2270.419992893581	177
8	1021	2276.133919151287	178
8	1022	2279.864740618046	179
8	1023	2281.203573261288	180
8	1024	2283.209510808808	181
8	1025	2284.564354672305	182
8	1026	2291.220701275718	183
8	1027	2294.292273885997	184
8	1028	2296.030868622615	185
8	1029	2296.852685087714	186
8	1034	2299.497614941589	187
8	1037	2308.380087070426	188
8	1042	2320.112750172303	189
8	1043	2320.202594737452	190
8	1044	2323.002811434523	191
8	1045	2334.572399879386	192
8	1046	2337.037571848796	193
8	1049	2343.20622187849	194
8	1062	2361.979706268459	195
8	1063	2362.831899173175	196
8	1064	2364.012464136513	197
8	1070	2384.843060523747	198
8	1071	2384.867410511314	199
8	1072	2388.606212800252	200
8	1073	2389.021367298331	201
8	1074	2404.007748710975	202
8	1082	2422.688088327728	203
8	1086	2432.625446020824	204
8	1089	2444.204170266176	205
8	1090	2445.303749404629	206
8	1091	2449.298528493052	207
8	1092	2450.392445450686	208
8	1101	2469.743868438022	209
8	1102	2470.742950393401	210
8	1105	2475.447825393361	211
8	1106	2479.428331751815	212
8	1114	2486.908494689917	213
8	1115	2487.722497684369	214
8	1116	2491.329528463309	215
9	162	404.241673706402	6.291776543493
9	168	411.581808667236	0.110239873128
9	171	423.042776876204	2.812252980889
9	222	522.129506326935	95.715709055403
9	225	526.022201599771	92.04318019871
9	226	528.255523486425	93.258063935829
9	227	529.565991446687	93.102633075612
9	238	545.961285582442	85.276724140651
9	239	546.09719744043	83.887936794922
9	333	739.946839077257	207.67940581409
9	334	742.215671150598	206.48780288294
9	380	873.234882384931	321.67210165782
9	385	878.591734268386	326.64075808333
9	388	886.695566816677	327.65583159543
9	402	922.641173245684	359.68638913012
9	403	925.386255009439	360.37769329068
9	406	937.479750104083	372.04902034912
9	407	943.133209201359	375.03727749857
9	413	948.218415214793	368.48258182462
9	414	952.26560554119	369.62576039264
9	415	952.289565394623	364.45270690945
9	418	960.003595001738	351.54447148222
9	419	964.185047640807	350.85468573239
9	428	969.345832570516	346.40932328346
9	460	1022.664591387972	343.00679484762
9	461	1024.16345807979	322.83626478092
9	464	1029.101216393331	315.19433082581
9	486	1100.419132457075	367.10582321801
9	487	1101.285997724854	358.46854957637
9	488	1102.107851018024	352.75311046994
9	491	1104.961789006757	328.68528064335
9	492	1108.021387394015	330.73381962986
9	495	1110.750788598997	323.37239197335
9	496	1116.989770509799	326.34612714965
9	501	1127.058061364708	327.01578991136
9	502	1127.158740865165	316.58869082515
9	503	1128.058364305353	310.333342012
9	504	1131.895914570288	295.67048782918
9	505	1140.649829977378	301.13392218992
9	506	1146.604622016229	304.91656499594
9	507	1146.93889027694	284.14767509086
9	512	1162.295350573408	292.63355852099
9	513	1164.031741682021	287.53431385942
9	514	1166.071618290063	288.55831745777
9	518	1175.912333191674	289.03641976414
9	522	1195.735675305242	289.56585711261
9	525	1198.538433808333	277.88685313063
9	526	1199.12315833666	263.00641318721
9	531	1211.464741760633	266.80039172324
9	539	1222.485269561132	264.05612462286
9	540	1222.826967857537	257.26152335122
9	552	1249.012469829307	282.75947101678
9	553	1255.565251097257	286.50201417002
9	556	1260.876521130963	288.77409253709
9	612	1362.977336209364	387.5824743576
9	616	1371.885529587045	386.27258483301
9	623	1394.460683843457	402.02389752126
9	630	1420.390906148294	423.07050959663
9	631	1427.57710782465	429.39722414774
9	632	1432.86683274925	430.39441806294
9	633	1436.351377900985	432.22019789524
9	636	1440.637005544104	430.8281459763
9	653	1465.85955810434	443.43978103123
9	660	1472.541128704027	447.24024616862
9	661	1478.804581484167	447.68348000579
9	666	1483.092172110912	445.15269904075
9	667	1484.208102234968	444.97867397851
9	676	1517.513194309347	456.44339608237
9	677	1517.542768323086	445.62323958837
9	691	1534.028451068115	430.26199611986
9	692	1535.033076242367	424.49067540982
9	693	1535.480921733727	411.9913527107
9	698	1550.967440792128	426.74874728618
9	701	1553.913219862178	401.43218894845
9	707	1558.024165585199	387.65708323117
9	715	1579.063891030408	381.56225321128
9	716	1579.885431588547	379.78429316322
9	719	1589.14643871773	377.92434105495
9	720	1595.021141580004	383.53399158765
9	721	1597.368961316933	384.7044545465
9	724	1603.232148448307	381.04510820504
9	725	1607.406679880515	378.26932000024
9	726	1610.386696913972	379.6442761039
9	729	1617.545056550809	384.21989633577
9	753	1687.245278210673	427.40951782196
9	769	1719.480945944334	449.59579226669
9	774	1730.951593866804	449.80682232084
9	811	1808.902227639717	495.90679919174
9	812	1809.951661805883	492.57497477478
9	821	1827.518040979267	507.30194706405
9	830	1837.156566480364	512.62594197545
9	833	1840.759753875909	514.87859819532
9	836	1849.173255500105	513.90117599719
9	837	1853.291726568847	517.48512680365
9	845	1867.830185010831	525.71127525873
9	852	1874.832578510227	511.13532190827
9	855	1884.594804642241	499.74807141147
9	856	1885.018995419464	498.12590205668
9	865	1904.034586449897	500.83174661567
9	871	1912.229270047692	491.95559865678
9	872	1912.426476839913	472.25250507437
9	873	1918.52149835711	473.80184596752
9	876	1934.322276575239	484.80401649204
9	877	1941.561553842892	481.02157965514
9	894	1995.366169404445	526.27093891789
9	895	1996.717115897451	526.73115165432
9	898	2008.436597842095	528.38012272132
9	908	2022.984354216864	536.44506081857
9	918	2033.221120653556	521.65632222187
9	921	2036.136516594414	517.26143434921
9	922	2042.980946112445	520.06863015286
9	923	2043.703079013845	518.07911317699
9	926	2059.773456908473	531.99136118499
9	931	2070.351924817275	540.75530241681
9	932	2078.920262238446	547.58033268934
9	933	2090.279613347493	551.12683369284
9	934	2090.831502521362	549.93620482633
9	935	2092.134304068644	539.2810235195
9	936	2107.185127019539	552.82591355246
9	937	2110.229900918473	555.84639027116
9	946	2136.105031619473	560.39056081326
9	947	2139.95271505051	556.12418659582
9	954	2147.395059967693	548.58591740725
9	957	2148.545865363631	534.84946462635
9	958	2153.552772831218	534.94667168748
9	964	2163.939422043944	541.62939279109
9	965	2165.03227108203	540.67382650124
9	972	2174.962829141688	511.20501709662
9	982	2197.352744704033	524.70849611158
9	983	2199.270600820805	518.74437637224
9	984	2201.596378197386	501.69281220351
9	991	2213.69011913764	503.37198629403
9	992	2231.474362243955	517.18102226612
9	1007	2246.692529076243	519.71685269513
9	1008	2246.967698612353	514.26075027991
9	1012	2254.824775995594	511.53038606782
9	1017	2262.233857192486	517.81219716308
9	1018	2264.398340507472	508.45696839817
9	1019	2268.857407597441	505.18923114411
9	1020	2270.419992893581	500.19808278074
9	1021	2276.133919151287	494.71401696305
9	1022	2279.864740618046	489.75130747977
9	1023	2281.203573261288	489.62057194746
9	1024	2283.209510808808	482.02744218913
9	1025	2284.564354672305	480.51246467287
9	1026	2291.220701275718	474.22730032104
9	1027	2294.292273885997	474.45743877334
9	1028	2296.030868622615	474.69113099652
9	1029	2296.852685087714	471.70657984332
9	1034	2299.497614941589	470.95646027233
9	1037	2308.380087070426	479.66277934755
9	1042	2320.112750172303	490.68848579306
9	1043	2320.202594737452	486.03271059356
9	1044	2323.002811434523	483.29940780166
9	1045	2334.572399879386	491.10341968257
9	1046	2337.037571848796	482.78375455702
9	1049	2343.20622187849	487.48998495067
9	1062	2361.979706268459	490.60214608776
9	1063	2362.831899173175	489.80347007028
9	1064	2364.012464136513	486.0153624702
9	1070	2384.843060523747	480.99473131993
9	1071	2384.867410511314	478.60806437677
9	1072	2388.606212800252	478.36756614496
9	1073	2389.021367298331	465.5892837543
9	1074	2404.007748710975	452.0372319789
9	1082	2422.688088327728	454.39913013774
9	1086	2432.625446020824	451.6453559767
9	1089	2444.204170266176	461.520099267
9	1090	2445.303749404629	445.55582100523
9	1091	2449.298528493052	439.16511838689
9	1092	2450.392445450686	434.07869291655
9	1101	2469.743868438022	452.99012495092
9	1102	2470.742950393401	444.10873028847
9	1105	2475.447825393361	447.80559780335
9	1106	2479.428331751815	451.46180525192
9	1114	2486.908494689917	453.04828615706
9	1115	2487.722497684369	438.23452381465
9	1116	2491.329528463309	431.23217102225
10	175	426.413797271532	11
10	229	532.267433263168	12
10	245	551.950976185058	13
10	250	562.599858163725	14
10	268	579.735833390176	15
10	273	587.83685848517	16
10	287	613.330361908421	17
10	295	625.020069418922	18
10	302	635.493773863116	19
10	336	742.817448148488	20
10	367	836.22542674111	21
10	390	886.875913427531	22
10	398	906.16981819263	23
10	409	944.66435003739	24
10	430	972.102428593869	25
10	439	985.612944754038	26
10	442	992.436786322198	27
10	447	998.179883676915	28
10	450	1002.472414686305	29
10	466	1031.121101478372	30
10	475	1059.823730250331	31
10	516	1170.367082354032	32
10	520	1180.109766243292	33
10	535	1212.664506770435	34
10	546	1233.325160215043	35
10	560	1269.88515367764	36
10	614	1363.697256601952	37
10	638	1444.719652389594	38
10	669	1486.539293398296	39
10	674	1511.564798431682	40
10	681	1522.912315959582	41
10	703	1554.359213467081	42
10	711	1573.55463600345	43
10	731	1618.60610114374	44
10	740	1647.732977010864	45
10	755	1699.903565993872	46
10	776	1732.70694833244	47
10	779	1739.431147144398	48
10	798	1781.419902188234	49
10	839	1854.253817291772	50
10	858	1890.882005542659	51
10	867	1906.259346134547	52
10	879	1951.970516732074	53
10	902	2016.313752534131	54
10	910	2026.634220104932	55
10	939	2113.398607569763	56
10	942	2122.859661153812	57
10	962	2162.021322230943	58
10	967	2165.890783281384	59
10	978	2189.245132141111	60
10	994	2233.879336630663	61
10	999	2239.267804364735	62
10	1010	2252.616090301519	63
10	1053	2345.378507754397	64
10	1060	2358.900332232856	65
10	1066	2370.717925181556	66
10	1080	2418.046391651931	67
10	1084	2423.759721043991	68
10	1094	2453.422693129747	69
10	1108	2480.169364514395	70
11	1119	2500	0.086
12	1119	2500	0.0492

