version 2
run experiments_hard_game_mode1-218-20230311-19:40:09-5733
attr configname experiments_hard_game_mode1
attr datetime 20230311-19:40:09
attr experiment experiments_hard_game_mode1
attr inifile omnetpp.ini
attr iterationvars "$0=7.5, $1=6, $2=100"
attr iterationvarsf 7.5,6,100-
attr measurement "$0=7.5, $1=6, $2=100"
attr network Network
attr processid 5733
attr repetition 8
attr replication #8
attr resultdir results
attr runnumber 218
attr seedset 8
param *.boss.arrival_mean 20
param *.boss.service_mean 7.5
param *.minion.arrival_mean 10
param *.minion.service_mean 6
param *.player.recover_rate_x 100
param **.minion.arrival_distribution 0
param **.minion.service_distribution 0
param **.boss.arrival_distribution 0
param **.boss.service_distribution 0

vector 0 Network.player boss_defeated_stat:vector ETV
attr source signal_boss_defeated
vector 1 Network.player boss_jobs_queue_number_stat:vector ETV
attr source signal_boss_jobs_queue_number
vector 2 Network.player boss_response_time_stat:vector ETV
attr source signal_boss_response_time
vector 3 Network.player boss_waiting_time_stat:vector ETV
attr source signal_boss_waiting_time
vector 4 Network.player minion_waiting_time_stat:vector ETV
attr source signal_minion_waiting_time
vector 5 Network.player minion_defeated_stat:vector ETV
attr source signal_minion_defeated
vector 6 Network.player minion_jobs_queue_number_stat:vector ETV
attr source signal_minion_jobs_queue_number
vector 7 Network.player minion_response_time_stat:vector ETV
attr source signal_minion_response_time
vector 8 Network.player minion_jobs_number_stat:vector ETV
attr source signal_minion_jobs_number
vector 9 Network.player boss_jobs_number_stat:vector ETV
attr source signal_boss_jobs_number
vector 10 Network.player minion_recovered_stat:vector ETV
attr source signal_minion_recovered
vector 11 Network.player minion_throughput:vector ETV
attr source signal_minion_throughput
vector 12 Network.player boss_throughput:vector ETV
attr source signal_boss_throughput
0	157	351.786188604032	22
0	158	352.137820484502	23
0	169	376.983658099847	24
0	181	434.378152227534	25
0	194	483.599975024569	26
0	195	485.404207999936	27
0	198	503.349885905815	28
0	205	522.075900210434	29
0	215	538.625794359711	30
0	230	598.168017056503	31
0	235	622.680938812368	32
0	243	626.893855494585	33
0	278	711.023070919638	34
0	291	744.661720942236	35
0	292	744.859763056841	36
0	299	755.259498104326	37
0	302	758.414274588179	38
0	307	760.300712689998	39
0	310	769.692938540225	40
0	313	770.893358349175	41
0	316	776.690256476103	42
0	323	784.889494039647	43
0	340	833.209621655527	44
0	343	839.008366758864	45
0	352	854.198118660447	46
0	353	854.741432195434	47
0	359	871.925972382495	48
0	379	923.589386613141	49
0	387	935.821601672206	50
0	388	935.904841057047	51
0	443	1069.380075404591	52
0	468	1119.304169363277	53
0	476	1135.217530410293	54
0	489	1151.687965290312	55
0	502	1181.470358858684	56
0	503	1187.190604904349	57
0	506	1191.023637685074	58
0	507	1191.685059834725	59
0	512	1196.250557187263	60
0	513	1209.294218659355	61
0	516	1218.054111221071	62
0	522	1236.022754465786	63
0	533	1279.293287239123	64
0	553	1333.365684403528	65
0	569	1362.183584398764	66
0	580	1414.577165256539	67
0	595	1437.655038619187	68
0	602	1459.243216269351	69
0	629	1544.076222048939	70
0	632	1557.460308203811	71
0	633	1558.73033662348	72
0	650	1608.776766184102	73
0	656	1618.993485029142	74
0	681	1676.367940055171	75
0	716	1753.023687769918	76
0	744	1799.664222035343	77
0	760	1843.245675469244	78
0	761	1845.392068452259	79
0	771	1862.792977038703	80
0	778	1878.588266375167	81
0	793	1909.272556473287	82
0	794	1911.952448588414	83
0	799	1924.945865641772	84
0	822	1989.051115864848	85
0	859	2044.396286570381	86
0	866	2050.319113517689	87
0	867	2052.104241804577	88
0	868	2053.06095413359	89
0	869	2054.183039416242	90
0	884	2076.735164833499	91
0	885	2079.393986867171	92
0	897	2102.621969688535	93
0	918	2144.109577815749	94
0	927	2162.281395226227	95
0	928	2169.645462643851	96
0	937	2186.337504286644	97
0	941	2208.29620161529	98
0	947	2218.801577993243	99
0	966	2251.744248484471	100
0	967	2263.891748930141	101
0	979	2281.134277678735	102
0	980	2288.076399373921	103
0	987	2303.731716119098	104
0	996	2316.570620055939	105
0	1007	2326.457511590525	106
0	1022	2346.736210103091	107
0	1023	2349.847460328458	108
0	1026	2357.788104786505	109
0	1027	2363.467502525122	110
0	1032	2371.986341447938	111
0	1033	2376.787690516226	112
0	1036	2379.588721036719	113
0	1037	2383.68073348672	114
0	1051	2409.7204685294	115
0	1059	2424.140538525549	116
0	1062	2428.66506710439	117
0	1066	2435.714586180723	118
0	1077	2476.55532410815	119
0	1080	2483.494058970663	120
0	1081	2488.882590804665	121
0	1082	2493.654308117308	122
1	157	351.786188604032	1
1	158	352.137820484502	0
1	168	375.391315048882	0
1	169	376.983658099847	0
1	180	416.09885070976	0
1	181	434.378152227534	0
1	185	457.766007587543	0
1	193	476.548788404644	1
1	194	483.599975024569	1
1	195	485.404207999936	0
1	197	486.357315170998	0
1	198	503.349885905815	0
1	204	519.361765448563	0
1	205	522.075900210434	0
1	212	529.267700894395	0
1	215	538.625794359711	0
1	229	564.300560389618	0
1	230	598.168017056503	0
1	234	619.011098646388	0
1	235	622.680938812368	0
1	240	625.351485420614	0
1	243	626.893855494585	0
1	257	656.547358981017	0
1	269	692.763323156002	1
1	275	703.740050135436	2
1	277	710.380849687831	3
1	278	711.023070919638	3
1	280	720.453856391853	3
1	282	723.431017966754	4
1	286	733.910972131425	5
1	291	744.661720942236	5
1	292	744.859763056841	4
1	299	755.259498104326	3
1	302	758.414274588179	2
1	306	758.996673827888	2
1	307	760.300712689998	2
1	309	766.656699326265	2
1	310	769.692938540225	2
1	313	770.893358349175	1
1	316	776.690256476103	0
1	320	779.450215402787	0
1	323	784.889494039647	0
1	337	818.983464402905	0
1	340	833.209621655527	0
1	342	835.248604404272	0
1	343	839.008366758864	0
1	345	843.367700009282	0
1	351	853.109086923126	1
1	352	854.198118660447	1
1	353	854.741432195434	0
1	356	863.83902178876	0
1	359	871.925972382495	0
1	376	920.493155444247	0
1	379	923.589386613141	0
1	384	931.651819903604	0
1	386	933.345352980081	1
1	387	935.821601672206	1
1	388	935.904841057047	0
1	442	1058.518930789588	0
1	443	1069.380075404591	0
1	463	1108.361782751192	0
1	468	1119.304169363277	0
1	475	1132.694596718756	0
1	476	1135.217530410293	0
1	478	1136.108807583738	0
1	480	1136.333826018112	1
1	488	1148.078871593158	2
1	489	1151.687965290312	2
1	495	1163.720581410365	2
1	497	1168.488416785386	3
1	499	1173.076299037651	4
1	501	1176.916299660197	5
1	502	1181.470358858684	5
1	503	1187.190604904349	4
1	506	1191.023637685074	3
1	507	1191.685059834725	2
1	512	1196.250557187263	1
1	513	1209.294218659355	0
1	515	1216.291314203088	0
1	516	1218.054111221071	0
1	519	1230.755115960214	0
1	522	1236.022754465786	0
1	532	1272.682469325331	0
1	533	1279.293287239123	0
1	548	1317.361855239214	0
1	553	1333.365684403528	0
1	568	1361.686355425169	0
1	569	1362.183584398764	0
1	579	1413.14304119274	0
1	580	1414.577165256539	0
1	588	1419.219797478038	0
1	595	1437.655038619187	0
1	599	1455.374959090924	0
1	602	1459.243216269351	0
1	618	1512.613832586893	0
1	624	1526.463072663728	1
1	629	1544.076222048939	1
1	631	1545.518748707868	1
1	632	1557.460308203811	1
1	633	1558.73033662348	0
1	641	1579.922105872001	0
1	650	1608.776766184102	0
1	653	1614.647544777863	0
1	656	1618.993485029142	0
1	680	1669.12752658445	0
1	681	1676.367940055171	0
1	715	1752.69058199458	0
1	716	1753.023687769918	0
1	737	1784.36714221366	0
1	744	1799.664222035343	0
1	753	1826.11813210479	0
1	759	1838.500648643851	1
1	760	1843.245675469244	1
1	761	1845.392068452259	0
1	770	1862.163813384079	0
1	771	1862.792977038703	0
1	777	1870.862406747146	0
1	778	1878.588266375167	0
1	780	1881.496160769119	0
1	784	1883.79523115591	1
1	792	1903.24141457117	2
1	793	1909.272556473287	2
1	794	1911.952448588414	1
1	799	1924.945865641772	0
1	821	1986.939751930008	0
1	822	1989.051115864848	0
1	848	2024.452246727987	0
1	850	2027.727541502782	1
1	852	2030.661302349244	2
1	856	2037.18732466916	3
1	859	2044.396286570381	3
1	863	2049.562016438356	3
1	866	2050.319113517689	3
1	867	2052.104241804577	2
1	868	2053.06095413359	1
1	869	2054.183039416242	0
1	881	2073.58352631853	0
1	883	2074.263168382427	1
1	884	2076.735164833499	1
1	885	2079.393986867171	0
1	892	2095.128767516438	0
1	897	2102.621969688535	0
1	917	2143.862823377282	0
1	918	2144.109577815749	0
1	922	2148.922937466807	0
1	924	2150.669734305564	1
1	927	2162.281395226227	1
1	928	2169.645462643851	0
1	936	2183.044205315737	0
1	937	2186.337504286644	0
1	940	2202.435043403632	0
1	941	2208.29620161529	0
1	946	2216.788444128043	0
1	947	2218.801577993243	0
1	963	2249.729384129566	0
1	965	2251.367958607534	1
1	966	2251.744248484471	1
1	967	2263.891748930141	0
1	976	2279.690247357455	0
1	978	2280.385384205945	1
1	979	2281.134277678735	1
1	980	2288.076399373921	0
1	984	2294.765771610817	0
1	987	2303.731716119098	0
1	993	2311.466960642226	0
1	995	2314.816185985176	1
1	996	2316.570620055939	1
1	998	2318.058885096036	1
1	1004	2321.349749090659	2
1	1007	2326.457511590525	2
1	1009	2326.870960380821	2
1	1011	2327.4267847295	3
1	1013	2328.107968982309	4
1	1019	2332.981509177791	5
1	1022	2346.736210103091	5
1	1023	2349.847460328458	4
1	1025	2354.319388697645	4
1	1026	2357.788104786505	4
1	1027	2363.467502525122	3
1	1031	2370.218810734865	3
1	1032	2371.986341447938	3
1	1033	2376.787690516226	2
1	1036	2379.588721036719	1
1	1037	2383.68073348672	0
1	1050	2408.760504512205	0
1	1051	2409.7204685294	0
1	1058	2422.9459360675	0
1	1059	2424.140538525549	0
1	1061	2427.402652917027	0
1	1062	2428.66506710439	0
1	1065	2432.751736103515	0
1	1066	2435.714586180723	0
1	1072	2465.658478271555	0
1	1074	2472.320315154536	1
1	1076	2473.889202106358	2
1	1077	2476.55532410815	2
1	1079	2478.649007051707	2
1	1080	2483.494058970663	2
1	1081	2488.882590804665	1
1	1082	2493.654308117308	0
1	1088	2498.862924785266	0
2	157	351.786188604032	35.087472994061
2	158	352.137820484502	14.529742269991
2	169	376.983658099847	1.592343050965
2	181	434.378152227534	18.279301517774
2	194	483.599975024569	25.833967437026
2	195	485.404207999936	8.855419595292
2	198	503.349885905815	16.992570734817
2	205	522.075900210434	2.714134761871
2	215	538.625794359711	9.358093465316
2	230	598.168017056503	33.867456666885
2	235	622.680938812368	3.66984016598
2	243	626.893855494585	1.542370073971
2	278	711.023070919638	54.475711938621
2	291	744.661720942236	51.898397786234
2	292	744.859763056841	41.119712921405
2	299	755.259498104326	44.878648416495
2	302	758.414274588179	37.960418196326
2	307	760.300712689998	36.869694723244
2	310	769.692938540225	35.7819664088
2	313	770.893358349175	11.896684521287
2	316	776.690256476103	10.033557149838
2	323	784.889494039647	5.43927863686
2	340	833.209621655527	14.226157252622
2	343	839.008366758864	3.759762354592
2	352	854.198118660447	10.830418651165
2	353	854.741432195434	1.632345272308
2	359	871.925972382495	8.086950593735
2	379	923.589386613141	3.096231168894
2	387	935.821601672206	4.169781768602
2	388	935.904841057047	2.559488076966
2	443	1069.380075404591	10.861144615003
2	468	1119.304169363277	10.942386612085
2	476	1135.217530410293	2.522933691537
2	489	1151.687965290312	15.579157706574
2	502	1181.470358858684	45.136532840572
2	503	1187.190604904349	39.111733311191
2	506	1191.023637685074	27.303056274709
2	507	1191.685059834725	23.196643049339
2	512	1196.250557187263	23.174258149612
2	513	1209.294218659355	32.377918999158
2	516	1218.054111221071	1.762797017983
2	522	1236.022754465786	5.267638505572
2	533	1279.293287239123	6.610817913792
2	553	1333.365684403528	16.003829164314
2	569	1362.183584398764	0.497228973595
2	580	1414.577165256539	1.434124063799
2	595	1437.655038619187	18.435241141149
2	602	1459.243216269351	3.868257178427
2	629	1544.076222048939	31.462389462046
2	632	1557.460308203811	30.997235540083
2	633	1558.73033662348	13.211587915612
2	650	1608.776766184102	28.854660312101
2	656	1618.993485029142	4.345940251279
2	681	1676.367940055171	7.240413470721
2	716	1753.023687769918	0.333105775338
2	744	1799.664222035343	15.297079821683
2	760	1843.245675469244	17.127543364454
2	761	1845.392068452259	6.891419808408
2	771	1862.792977038703	0.629163654624
2	778	1878.588266375167	7.725859628021
2	793	1909.272556473287	27.776395704168
2	794	1911.952448588414	28.157217432504
2	799	1924.945865641772	21.704451070602
2	822	1989.051115864848	2.11136393484
2	859	2044.396286570381	19.944039842394
2	866	2050.319113517689	22.591572014907
2	867	2052.104241804577	21.442939455333
2	868	2053.06095413359	15.87362946443
2	869	2054.183039416242	4.621022977886
2	884	2076.735164833499	3.151638514969
2	885	2079.393986867171	5.130818484744
2	897	2102.621969688535	7.493202172097
2	918	2144.109577815749	0.246754438467
2	927	2162.281395226227	13.35845775942
2	928	2169.645462643851	18.975728338287
2	937	2186.337504286644	3.293298970907
2	941	2208.29620161529	5.861158211658
2	947	2218.801577993243	2.0131338652
2	966	2251.744248484471	2.014864354905
2	967	2263.891748930141	12.523790322607
2	979	2281.134277678735	1.44403032128
2	980	2288.076399373921	7.691015167976
2	987	2303.731716119098	8.965944508281
2	996	2316.570620055939	5.103659413713
2	1007	2326.457511590525	11.641325605349
2	1022	2346.736210103091	28.677325007055
2	1023	2349.847460328458	28.497711237799
2	1026	2357.788104786505	30.917144405684
2	1027	2363.467502525122	36.040717795622
2	1032	2371.986341447938	43.878372465629
2	1033	2376.787690516226	43.806181338435
2	1036	2379.588721036719	25.269332339074
2	1037	2383.68073348672	13.461922751855
2	1051	2409.7204685294	0.959964017195
2	1059	2424.140538525549	1.194602458049
2	1062	2428.66506710439	1.262414187363
2	1066	2435.714586180723	2.962850077208
2	1077	2476.55532410815	10.896845836595
2	1080	2483.494058970663	11.173743816127
2	1081	2488.882590804665	14.993388698307
2	1082	2493.654308117308	15.005301065601
3	157	351.786188604032	14.178110389521
3	168	375.391315048882	0
3	180	416.09885070976	0
3	185	457.766007587543	0
3	194	483.599975024569	7.051186619925
3	197	486.357315170998	0
3	204	519.361765448563	0
3	212	529.267700894395	0
3	229	564.300560389618	0
3	234	619.011098646388	0
3	240	625.351485420614	0
3	257	656.547358981017	0
3	278	711.023070919638	18.259747763636
3	291	744.661720942236	40.9216708068
3	292	744.859763056841	34.47891336901
3	299	755.259498104326	34.805641712473
3	302	758.414274588179	34.983256621425
3	307	760.300712689998	26.389740558573
3	310	769.692938540225	10.696264712337
3	313	770.893358349175	4.23665902291
3	320	779.450215402787	0
3	337	818.983464402905	0
3	342	835.248604404272	0
3	345	843.367700009282	0
3	352	854.198118660447	1.089031737321
3	356	863.83902178876	0
3	376	920.493155444247	0
3	384	931.651819903604	0
3	387	935.821601672206	2.476248692125
3	442	1058.518930789588	0
3	463	1108.361782751192	0
3	475	1132.694596718756	0
3	478	1136.108807583738	0
3	489	1151.687965290312	15.3541392722
3	502	1181.470358858684	33.391487265526
3	503	1187.190604904349	23.470023493984
3	506	1191.023637685074	22.535220899688
3	507	1191.685059834725	18.608760797074
3	512	1196.250557187263	19.334257527066
3	515	1216.291314203088	0
3	519	1230.755115960214	0
3	532	1272.682469325331	0
3	548	1317.361855239214	0
3	568	1361.686355425169	0
3	579	1413.14304119274	0
3	588	1419.219797478038	0
3	599	1455.374959090924	0
3	618	1512.613832586893	0
3	629	1544.076222048939	17.613149385211
3	632	1557.460308203811	11.941559495943
3	641	1579.922105872001	0
3	653	1614.647544777863	0
3	680	1669.12752658445	0
3	715	1752.69058199458	0
3	737	1784.36714221366	0
3	753	1826.11813210479	0
3	760	1843.245675469244	4.745026825393
3	770	1862.163813384079	0
3	777	1870.862406747146	0
3	780	1881.496160769119	0
3	793	1909.272556473287	25.477325317377
3	794	1911.952448588414	8.711034017244
3	821	1986.939751930008	0
3	848	2024.452246727987	0
3	859	2044.396286570381	16.668745067599
3	866	2050.319113517689	19.657811168445
3	867	2052.104241804577	14.916917135417
3	868	2053.06095413359	3.498937695234
3	881	2073.58352631853	0
3	884	2076.735164833499	2.471996451072
3	892	2095.128767516438	0
3	917	2143.862823377282	0
3	922	2148.922937466807	0
3	927	2162.281395226227	11.611660920663
3	936	2183.044205315737	0
3	940	2202.435043403632	0
3	946	2216.788444128043	0
3	963	2249.729384129566	0
3	966	2251.744248484471	0.376289876937
3	976	2279.690247357455	0
3	979	2281.134277678735	0.74889347279
3	984	2294.765771610817	0
3	993	2311.466960642226	0
3	996	2316.570620055939	1.754434070763
3	1007	2326.457511590525	8.398626494489
3	1022	2346.736210103091	25.386461012432
3	1023	2349.847460328458	22.976499947637
3	1026	2357.788104786505	30.361320057005
3	1027	2363.467502525122	35.359533542813
3	1032	2371.986341447938	39.004832270147
3	1033	2376.787690516226	22.468301818581
3	1036	2379.588721036719	9.369910301854
3	1050	2408.760504512205	0
3	1058	2422.9459360675	0
3	1061	2427.402652917027	0
3	1065	2432.751736103515	0
3	1072	2465.658478271555	0
3	1077	2476.55532410815	4.235008953614
3	1080	2483.494058970663	9.604856864305
3	1081	2488.882590804665	10.233583752958
3	1088	2498.862924785266	0
4	158	352.137820484502	127.92495078019
4	159	353.639934965039	125.19302103867
4	162	356.639236552491	124.43374037405
4	169	376.983658099847	133.9087793929
4	170	377.481063053293	127.12675487499
4	173	384.44250681154	119.45388989469
4	174	388.176682108876	117.35923539514
4	175	390.774385327978	101.88048689102
4	176	409.847452182551	120.17668860915
4	177	410.527482195965	112.83852498966
4	178	411.599624282498	101.5475420542
4	181	434.378152227534	112.16182032676
4	195	485.404207999936	148.72477179762
4	198	503.349885905815	157.76906196971
4	201	516.10295907748	168.94750102045
4	202	516.722702818546	169.05501961442
4	205	522.075900210434	167.03669795797
4	206	523.250051867512	159.96023731655
4	207	526.324605691198	158.49367569123
4	210	529.035479415432	153.64416436655
4	215	538.625794359711	156.25519185305
4	218	542.226921599163	126.1280708894
4	221	547.980381187469	111.30860724537
4	226	558.641567712668	100.87556012512
4	227	560.827639949053	99.974971326226
4	230	598.168017056503	131.79397951064
4	231	607.091156881719	139.74198389488
4	232	608.799422102968	122.44210693197
4	235	622.680938812368	119.13987196985
4	236	624.076712804279	104.71494735572
4	243	626.893855494585	100.07156526859
4	246	632.743415014351	103.47571411996
4	247	634.711629451635	101.8697335578
4	248	636.482958335831	97.461399970929
4	249	637.405004789356	93.675481438233
4	250	640.691480145906	90.946819807282
4	251	642.03917005236	92.281517938239
4	254	646.97688268964	82.676322300022
4	255	653.058233141773	34.047134495385
4	316	776.690256476103	152.31262655877
4	317	777.198493136254	151.84700771564
4	318	778.901372891371	152.5243614339
4	323	784.889494039647	156.74005290333
4	328	803.295737923676	157.25434480762
4	329	804.064286624158	147.51692764314
4	334	817.927602874801	159.52914646346
4	335	818.271714216464	158.58078990996
4	340	833.209621655527	171.76773123563
4	343	839.008366758864	165.40677853747
4	353	854.741432195434	164.49156580245
4	354	862.44380754744	159.16820769385
4	359	871.925972382495	168.29257557461
4	364	893.023545277034	163.63291873446
4	367	899.069115252806	162.02374560572
4	372	909.410450414205	166.0249300667
4	379	923.589386613141	178.38264897471
4	382	928.088340334757	180.34204194923
4	388	935.904841057047	184.47091734823
4	389	938.320945523216	180.1361868737
4	390	942.777763380314	184.13191176837
4	391	945.399332697107	175.46835967106
4	392	945.673389335262	173.01676553172
4	393	946.167358175517	166.71714277273
4	394	946.540819266416	163.93528056479
4	395	950.441197804247	156.6014481861
4	396	955.311625186567	157.06562980073
4	397	955.965313558779	142.46914318918
4	398	957.052966334924	142.86704360332
4	399	957.847582661104	138.8641182582
4	404	972.535260289325	146.46828946689
4	405	974.634629552338	139.38602514807
4	408	979.368257987002	136.00055797772
4	409	982.969376189897	134.78986952182
4	416	996.903427865309	144.73473859381
4	417	1007.921778406497	144.08275661774
4	418	1009.324830280297	140.30827183337
4	419	1009.4186454545	133.58927112635
4	422	1012.120435145021	125.6592898297
4	423	1013.185282547799	119.2982130181
4	424	1015.685779549738	114.85253518715
4	425	1023.62538323695	119.24620708766
4	428	1031.060947208305	115.99022076451
4	429	1031.535076819246	111.041921375
4	430	1046.25287067454	124.9625583848
4	431	1046.446198653907	120.18699443919
4	434	1049.220099166496	117.56827926289
4	439	1054.096853767599	85.983378960302
4	440	1057.93321693904	85.873370208624
4	443	1069.380075404591	90.366032697986
4	450	1077.271214182268	90.869624271718
4	451	1078.204334564516	86.726562745561
4	452	1087.106872178326	90.533552137328
4	455	1090.977961543872	81.388589746672
4	456	1092.634417956258	65.341157427318
4	461	1106.270201860562	59.075010020261
4	468	1119.304169363277	67.715747222663
4	469	1128.088985773613	76.23538311034
4	470	1128.970593902982	70.451663113394
4	471	1129.238213371619	59.667903884225
4	476	1135.217530410293	62.222075817281
4	513	1209.294218659355	134.96444157696
4	516	1218.054111221071	128.16208281495
4	517	1219.118608701716	122.83185771387
4	522	1236.022754465786	133.62733981151
4	523	1245.749607777197	137.38782502601
4	526	1245.948526511839	137.35896503944
4	529	1256.294127864596	147.63504051956
4	530	1260.454530894057	128.38192338127
4	533	1279.293287239123	146.59869052037
4	540	1307.153383728112	171.04457614437
4	541	1312.441319548469	174.93289134377
4	544	1312.809345159785	172.04411539003
4	545	1313.898642532023	169.11856097269
4	546	1316.882800494357	165.0214526107
4	553	1333.365684403528	172.23708351522
4	558	1339.167644814499	148.98536005652
4	559	1347.467753113406	153.36065812177
4	560	1348.718700459056	152.90852985131
4	561	1354.762110215781	138.47079601269
4	562	1358.905484430618	128.1503684704
4	569	1362.183584398764	126.60722396975
4	570	1365.534112360441	119.78354442037
4	571	1386.211352222619	131.58783364664
4	572	1386.770505607833	114.0880362825
4	575	1400.322375727567	102.74557440022
4	576	1402.2813163911	103.29933534984
4	577	1410.196057096519	105.02202652404
4	580	1414.577165256539	102.04305331084
4	583	1417.575483922949	100.21362868373
4	584	1418.158722164517	92.864081641145
4	595	1437.655038619187	107.9290648318
4	596	1440.185853140706	102.26750677566
4	597	1454.620972183042	116.55148967731
4	602	1459.243216269351	99.234531012617
4	603	1463.410798989421	102.38809784568
4	604	1463.515947099098	101.82959167393
4	605	1465.968237188697	65.684134910973
4	608	1477.335855773895	64.192814581155
4	609	1478.64314386567	63.023397060229
4	610	1482.433932479915	63.473802475397
4	611	1490.005627454839	70.785829976801
4	614	1504.016241646931	79.487362876479
4	633	1558.73033662348	128.01152053142
4	638	1577.05958920252	144.1349070948
4	639	1578.116894307409	122.74193521649
4	650	1608.776766184102	152.21920249456
4	651	1610.852918806322	144.51099340734
4	656	1618.993485029142	122.42433649923
4	659	1623.214860367329	116.42117019204
4	660	1625.144927361472	112.53109477458
4	663	1633.061946497111	114.59615876251
4	666	1644.456407124531	122.83388061868
4	669	1653.241489307359	116.00460666229
4	672	1661.005996938945	122.37858791753
4	681	1676.367940055171	107.56216381632
4	682	1676.46119235891	101.25512139861
4	687	1690.354990729316	110.43288485732
4	688	1692.056649044799	104.45911951252
4	689	1692.155122849785	99.604354728882
4	694	1713.571026441657	118.78577174331
4	699	1722.058861908686	122.08032197024
4	702	1725.421438367706	110.77389358984
4	705	1735.296870792138	118.89190190665
4	708	1738.327734167056	117.20432738839
4	711	1745.279519032991	114.02476861875
4	716	1753.023687769918	118.313357004
4	717	1755.393309418682	102.85010191892
4	728	1765.869268666651	105.27672045743
4	731	1775.451040719972	113.77431931495
4	744	1799.664222035343	132.34548953094
4	745	1803.0847929407	134.24479426754
4	761	1845.392068452259	176.26454186781
4	764	1850.045090083899	165.89135223645
4	765	1854.327570195809	168.9403004665
4	766	1857.335518226973	159.88271399004
4	771	1862.792977038703	161.23141768022
4	772	1866.028874446117	149.4879265415
4	775	1867.175250212051	148.04310335257
4	778	1878.588266375167	156.06173964189
4	799	1924.945865641772	191.8988285938
4	800	1926.163259006845	190.75501624159
4	803	1939.871221025672	199.16650274678
4	804	1944.258363686581	196.5395629082
4	805	1951.271602550897	198.58102055632
4	806	1954.902921255227	193.23701238177
4	807	1958.220178304845	195.12566296835
4	808	1960.241160143126	197.02740241973
4	809	1961.434626258865	196.34112700848
4	812	1964.711928628371	199.2419152153
4	813	1967.606652453996	199.32011332116
4	816	1972.641530017958	194.04202143994
4	817	1975.519316493143	196.48380421022
4	822	1989.051115864848	204.68397365119
4	823	1989.839279938553	201.7386395266
4	832	2009.043890135879	218.37641627726
4	835	2013.979469842348	220.62638445262
4	838	2015.488167809577	212.30724755398
4	869	2054.183039416242	241.45349162296
4	870	2054.783825874276	231.99422863134
4	871	2055.908969448565	229.79083734377
4	872	2059.687833677522	231.9582912211
4	877	2065.411718409156	230.06920743134
4	878	2067.026100197095	220.71022013036
4	879	2068.573024692357	208.96233056998
4	885	2079.393986867171	217.23017348309
4	886	2085.344312205519	218.63572972575
4	887	2091.798130863443	220.9357241163
4	890	2094.061606008866	212.56544523975
4	897	2102.621969688535	219.03043769794
4	902	2108.978000818872	221.51076672799
4	903	2110.101012063356	217.93604260906
4	908	2130.025012323171	233.0369499943
4	911	2131.01063856363	217.6789919831
4	918	2144.109577815749	225.87002424667
4	928	2169.645462643851	230.23244781935
4	929	2172.400802452246	210.4945887352
4	932	2176.933655927353	206.18704680918
4	933	2179.443397519389	199.19901652935
4	934	2182.850699207821	195.91094727781
4	937	2186.337504286644	195.4264234367
4	938	2197.747145749908	195.52062699707
4	941	2208.29620161529	202.63863364739
4	944	2211.249145780929	204.17256051108
4	947	2218.801577993243	206.80876105633
4	950	2225.388592163082	210.07008572595
4	957	2235.37602801697	218.69582446371
4	960	2238.893208804094	221.93439999815
4	961	2249.425657444717	230.07397308096
4	967	2263.891748930141	241.57113392323
4	968	2266.205082174122	241.75283544614
4	980	2288.076399373921	251.68862221614
4	987	2303.731716119098	263.5713525219
4	1037	2383.68073348672	334.87221657836
4	1046	2404.32835167856	354.56004082916
4	1047	2405.360751411151	345.60028926951
4	1048	2408.164169293425	346.25622355621
4	1051	2409.7204685294	336.13694221087
4	1052	2409.724124942963	316.21897249033
4	1055	2416.425838893154	321.29707137672
4	1056	2416.805690871757	319.5757407097
4	1059	2424.140538525549	325.92063168181
4	1062	2428.66506710439	323.28132889107
4	1063	2428.851740755592	322.10147558032
4	1066	2435.714586180723	324.4780289346
4	1067	2437.157333450395	320.70063763021
4	1068	2447.000740482927	316.83844801215
4	1082	2493.654308117308	360.97247683992
4	1083	2495.518158078898	356.25195222282
4	1084	2496.031372809263	352.16854943198
4	1085	2496.32889472674	349.47848059499
4	1086	2498.629659623282	349.70672215647
5	159	353.639934965039	20
5	162	356.639236552491	21
5	170	377.481063053293	22
5	173	384.44250681154	23
5	174	388.176682108876	24
5	175	390.774385327978	25
5	176	409.847452182551	26
5	177	410.527482195965	27
5	178	411.599624282498	28
5	201	516.10295907748	29
5	202	516.722702818546	30
5	206	523.250051867512	31
5	207	526.324605691198	32
5	210	529.035479415432	33
5	218	542.226921599163	34
5	221	547.980381187469	35
5	226	558.641567712668	36
5	227	560.827639949053	37
5	231	607.091156881719	38
5	232	608.799422102968	39
5	236	624.076712804279	40
5	246	632.743415014351	41
5	247	634.711629451635	42
5	248	636.482958335831	43
5	249	637.405004789356	44
5	250	640.691480145906	45
5	251	642.03917005236	46
5	254	646.97688268964	47
5	255	653.058233141773	48
5	317	777.198493136254	49
5	318	778.901372891371	50
5	328	803.295737923676	51
5	329	804.064286624158	52
5	334	817.927602874801	53
5	335	818.271714216464	54
5	354	862.44380754744	55
5	364	893.023545277034	56
5	367	899.069115252806	57
5	372	909.410450414205	58
5	382	928.088340334757	59
5	389	938.320945523216	60
5	390	942.777763380314	61
5	391	945.399332697107	62
5	392	945.673389335262	63
5	393	946.167358175517	64
5	394	946.540819266416	65
5	395	950.441197804247	66
5	396	955.311625186567	67
5	397	955.965313558779	68
5	398	957.052966334924	69
5	399	957.847582661104	70
5	404	972.535260289325	71
5	405	974.634629552338	72
5	408	979.368257987002	73
5	409	982.969376189897	74
5	416	996.903427865309	75
5	417	1007.921778406497	76
5	418	1009.324830280297	77
5	419	1009.4186454545	78
5	422	1012.120435145021	79
5	423	1013.185282547799	80
5	424	1015.685779549738	81
5	425	1023.62538323695	82
5	428	1031.060947208305	83
5	429	1031.535076819246	84
5	430	1046.25287067454	85
5	431	1046.446198653907	86
5	434	1049.220099166496	87
5	439	1054.096853767599	88
5	440	1057.93321693904	89
5	450	1077.271214182268	90
5	451	1078.204334564516	91
5	452	1087.106872178326	92
5	455	1090.977961543872	93
5	456	1092.634417956258	94
5	461	1106.270201860562	95
5	469	1128.088985773613	96
5	470	1128.970593902982	97
5	471	1129.238213371619	98
5	517	1219.118608701716	99
5	523	1245.749607777197	100
5	526	1245.948526511839	101
5	529	1256.294127864596	102
5	530	1260.454530894057	103
5	540	1307.153383728112	104
5	541	1312.441319548469	105
5	544	1312.809345159785	106
5	545	1313.898642532023	107
5	546	1316.882800494357	108
5	558	1339.167644814499	109
5	559	1347.467753113406	110
5	560	1348.718700459056	111
5	561	1354.762110215781	112
5	562	1358.905484430618	113
5	570	1365.534112360441	114
5	571	1386.211352222619	115
5	572	1386.770505607833	116
5	575	1400.322375727567	117
5	576	1402.2813163911	118
5	577	1410.196057096519	119
5	583	1417.575483922949	120
5	584	1418.158722164517	121
5	596	1440.185853140706	122
5	597	1454.620972183042	123
5	603	1463.410798989421	124
5	604	1463.515947099098	125
5	605	1465.968237188697	126
5	608	1477.335855773895	127
5	609	1478.64314386567	128
5	610	1482.433932479915	129
5	611	1490.005627454839	130
5	614	1504.016241646931	131
5	638	1577.05958920252	132
5	639	1578.116894307409	133
5	651	1610.852918806322	134
5	659	1623.214860367329	135
5	660	1625.144927361472	136
5	663	1633.061946497111	137
5	666	1644.456407124531	138
5	669	1653.241489307359	139
5	672	1661.005996938945	140
5	682	1676.46119235891	141
5	687	1690.354990729316	142
5	688	1692.056649044799	143
5	689	1692.155122849785	144
5	694	1713.571026441657	145
5	699	1722.058861908686	146
5	702	1725.421438367706	147
5	705	1735.296870792138	148
5	708	1738.327734167056	149
5	711	1745.279519032991	150
5	717	1755.393309418682	151
5	728	1765.869268666651	152
5	731	1775.451040719972	153
5	745	1803.0847929407	154
5	764	1850.045090083899	155
5	765	1854.327570195809	156
5	766	1857.335518226973	157
5	772	1866.028874446117	158
5	775	1867.175250212051	159
5	800	1926.163259006845	160
5	803	1939.871221025672	161
5	804	1944.258363686581	162
5	805	1951.271602550897	163
5	806	1954.902921255227	164
5	807	1958.220178304845	165
5	808	1960.241160143126	166
5	809	1961.434626258865	167
5	812	1964.711928628371	168
5	813	1967.606652453996	169
5	816	1972.641530017958	170
5	817	1975.519316493143	171
5	823	1989.839279938553	172
5	832	2009.043890135879	173
5	835	2013.979469842348	174
5	838	2015.488167809577	175
5	870	2054.783825874276	176
5	871	2055.908969448565	177
5	872	2059.687833677522	178
5	877	2065.411718409156	179
5	878	2067.026100197095	180
5	879	2068.573024692357	181
5	886	2085.344312205519	182
5	887	2091.798130863443	183
5	890	2094.061606008866	184
5	902	2108.978000818872	185
5	903	2110.101012063356	186
5	908	2130.025012323171	187
5	911	2131.01063856363	188
5	929	2172.400802452246	189
5	932	2176.933655927353	190
5	933	2179.443397519389	191
5	934	2182.850699207821	192
5	938	2197.747145749908	193
5	944	2211.249145780929	194
5	950	2225.388592163082	195
5	957	2235.37602801697	196
5	960	2238.893208804094	197
5	961	2249.425657444717	198
5	968	2266.205082174122	199
5	1046	2404.32835167856	200
5	1047	2405.360751411151	201
5	1048	2408.164169293425	202
5	1052	2409.724124942963	203
5	1055	2416.425838893154	204
5	1056	2416.805690871757	205
5	1063	2428.851740755592	206
5	1067	2437.157333450395	207
5	1068	2447.000740482927	208
5	1083	2495.518158078898	209
5	1084	2496.031372809263	210
5	1085	2496.32889472674	211
5	1086	2498.629659623282	212
6	159	353.639934965039	15
6	161	355.039202252463	15
6	162	356.639236552491	15
6	164	363.289814550966	15
6	166	367.830929999966	16
6	170	377.481063053293	16
6	172	382.370602506663	16
6	173	384.44250681154	16
6	174	388.176682108876	15
6	175	390.774385327978	14
6	176	409.847452182551	13
6	177	410.527482195965	12
6	178	411.599624282498	11
6	183	436.671773942098	11
6	187	460.852668622827	12
6	189	466.374037545862	13
6	191	467.349172986839	14
6	200	503.541066842519	15
6	201	516.10295907748	15
6	202	516.722702818546	14
6	206	523.250051867512	13
6	207	526.324605691198	12
6	209	526.822290225991	12
6	210	529.035479415432	12
6	214	532.841895893834	12
6	217	539.021558364902	13
6	218	542.226921599163	13
6	220	543.729523351123	13
6	221	547.980381187469	13
6	223	549.744660338624	13
6	225	549.757652114121	14
6	226	558.641567712668	14
6	227	560.827639949053	13
6	231	607.091156881719	12
6	232	608.799422102968	11
6	236	624.076712804279	10
6	238	624.377629917337	10
6	242	626.377011457473	11
6	245	628.149441136313	12
6	246	632.743415014351	12
6	247	634.711629451635	11
6	248	636.482958335831	10
6	249	637.405004789356	9
6	250	640.691480145906	8
6	251	642.03917005236	7
6	253	646.041393116059	7
6	254	646.97688268964	7
6	255	653.058233141773	6
6	259	658.39845641134	6
6	261	659.690924306509	7
6	263	661.441890419892	8
6	265	673.601588221394	9
6	267	690.249866392987	10
6	271	703.275599853586	11
6	273	703.633396807882	12
6	284	729.390626542569	13
6	288	737.045369647088	14
6	290	743.385520347509	15
6	294	745.206737638433	16
6	296	747.746298385527	17
6	298	751.433923708821	18
6	301	758.184758649513	19
6	304	758.64585161194	20
6	312	769.930973026044	21
6	315	772.656623803539	22
6	317	777.198493136254	22
6	318	778.901372891371	21
6	322	782.605538701624	21
6	325	793.839749618144	22
6	327	798.245995385835	23
6	328	803.295737923676	23
6	329	804.064286624158	22
6	331	813.496170369595	22
6	333	814.185922731608	23
6	334	817.927602874801	23
6	335	818.271714216464	22
6	339	826.066970822433	22
6	347	848.179506668075	23
6	349	852.1686892715	24
6	354	862.44380754744	24
6	358	869.016558446923	24
6	361	875.829374328149	25
6	363	886.461145315321	26
6	364	893.023545277034	26
6	366	893.887069529698	26
6	367	899.069115252806	26
6	369	900.833244362583	26
6	371	904.379176149286	27
6	372	909.410450414205	27
6	374	915.070726443792	27
6	378	921.290312289743	28
6	381	926.259204214721	29
6	382	928.088340334757	29
6	389	938.320945523216	28
6	390	942.777763380314	27
6	391	945.399332697107	26
6	392	945.673389335262	25
6	393	946.167358175517	24
6	394	946.540819266416	23
6	395	950.441197804247	22
6	396	955.311625186567	21
6	397	955.965313558779	20
6	398	957.052966334924	19
6	399	957.847582661104	18
6	401	968.113474807297	18
6	403	972.059846730416	19
6	404	972.535260289325	19
6	405	974.634629552338	18
6	407	979.014042706605	18
6	408	979.368257987002	18
6	409	982.969376189897	17
6	411	986.40158991055	17
6	413	991.477771818955	18
6	415	996.573320040998	19
6	416	996.903427865309	19
6	417	1007.921778406497	18
6	418	1009.324830280297	17
6	419	1009.4186454545	16
6	421	1009.5893717972	16
6	422	1012.120435145021	16
6	423	1013.185282547799	15
6	424	1015.685779549738	14
6	425	1023.62538323695	13
6	427	1027.29326052894	13
6	428	1031.060947208305	13
6	429	1031.535076819246	12
6	430	1046.25287067454	11
6	431	1046.446198653907	10
6	433	1047.195191840301	10
6	434	1049.220099166496	10
6	436	1051.588422140614	10
6	438	1051.853602663273	11
6	439	1054.096853767599	11
6	440	1057.93321693904	10
6	445	1069.570309487394	10
6	447	1072.995454593012	11
6	449	1074.329777082393	12
6	450	1077.271214182268	12
6	451	1078.204334564516	11
6	452	1087.106872178326	10
6	454	1089.892028406125	10
6	455	1090.977961543872	10
6	456	1092.634417956258	9
6	458	1096.28675098785	9
6	460	1102.395414654277	10
6	461	1106.270201860562	10
6	465	1108.589561472402	10
6	467	1108.659087345032	11
6	469	1128.088985773613	11
6	470	1128.970593902982	10
6	471	1129.238213371619	9
6	473	1132.072607512783	9
6	482	1137.5084282047	10
6	484	1140.765229769752	11
6	486	1144.780081559334	12
6	491	1151.861347883656	13
6	493	1161.128600888311	14
6	505	1190.182284757979	15
6	509	1194.107094991637	16
6	511	1195.810170607742	17
6	517	1219.118608701716	17
6	521	1235.57636042901	17
6	523	1245.749607777197	17
6	525	1245.750567940076	17
6	526	1245.948526511839	17
6	528	1254.623518575976	17
6	529	1256.294127864596	17
6	530	1260.454530894057	16
6	535	1297.576801327344	16
6	537	1298.981981041257	17
6	539	1305.174030572477	18
6	540	1307.153383728112	18
6	541	1312.441319548469	17
6	543	1312.534111945697	17
6	544	1312.809345159785	17
6	545	1313.898642532023	16
6	546	1316.882800494357	15
6	550	1325.294640523372	15
6	552	1329.725973787391	16
6	555	1337.918346365047	17
6	557	1338.069482505731	18
6	558	1339.167644814499	18
6	559	1347.467753113406	17
6	560	1348.718700459056	16
6	561	1354.762110215781	15
6	562	1358.905484430618	14
6	564	1360.008685256734	14
6	566	1361.022701143741	15
6	570	1365.534112360441	15
6	571	1386.211352222619	14
6	572	1386.770505607833	13
6	574	1400.284102277724	13
6	575	1400.322375727567	13
6	576	1402.2813163911	12
6	577	1410.196057096519	11
6	582	1415.619746805441	11
6	583	1417.575483922949	11
6	584	1418.158722164517	10
6	586	1418.960130004518	10
6	590	1424.528878770452	11
6	592	1430.718816092059	12
6	594	1432.924682107722	13
6	596	1440.185853140706	13
6	597	1454.620972183042	12
6	601	1456.557563689539	12
6	603	1463.410798989421	12
6	604	1463.515947099098	11
6	605	1465.968237188697	10
6	607	1466.341925398978	10
6	608	1477.335855773895	10
6	609	1478.64314386567	9
6	610	1482.433932479915	8
6	611	1490.005627454839	7
6	613	1496.569148529909	7
6	614	1504.016241646931	7
6	616	1506.793690175289	7
6	620	1518.465787734605	8
6	622	1521.622526505848	9
6	626	1537.236882645073	10
6	628	1538.627409021411	11
6	635	1568.805776238846	12
6	637	1575.206070960299	13
6	638	1577.05958920252	13
6	639	1578.116894307409	12
6	643	1587.597529532276	12
6	645	1592.550768120903	13
6	647	1594.785254698345	14
6	649	1599.978539938441	15
6	651	1610.852918806322	15
6	655	1616.404968885488	15
6	658	1621.123406778662	16
6	659	1623.214860367329	16
6	660	1625.144927361472	15
6	662	1631.254750414244	15
6	663	1633.061946497111	15
6	665	1634.710330765916	15
6	666	1644.456407124531	15
6	668	1652.543207499767	15
6	669	1653.241489307359	15
6	671	1660.592548209223	15
6	672	1661.005996938945	15
6	674	1661.676721405022	15
6	676	1667.318732504404	16
6	678	1668.839998673156	17
6	682	1676.46119235891	17
6	684	1684.153737847449	17
6	686	1685.387269729313	18
6	687	1690.354990729316	18
6	688	1692.056649044799	17
6	689	1692.155122849785	16
6	691	1697.452804236935	16
6	693	1701.561559358482	17
6	694	1713.571026441657	17
6	696	1716.540947904621	17
6	698	1719.13214685948	18
6	699	1722.058861908686	18
6	701	1722.526526733274	18
6	702	1725.421438367706	18
6	704	1733.047037047973	18
6	705	1735.296870792138	18
6	707	1735.408242765257	18
6	708	1738.327734167056	18
6	710	1740.704718278887	18
6	711	1745.279519032991	18
6	713	1747.718800778385	18
6	717	1755.393309418682	18
6	719	1761.665908873459	18
6	721	1763.094515336496	19
6	723	1763.213757723395	20
6	725	1765.093499250388	21
6	727	1765.470013413068	22
6	728	1765.869268666651	22
6	730	1768.286539132837	22
6	731	1775.451040719972	22
6	733	1778.599508578021	22
6	735	1779.035512282923	23
6	739	1788.100640411957	24
6	741	1790.667473858621	25
6	743	1793.353085389727	26
6	745	1803.0847929407	26
6	747	1803.180920255599	26
6	749	1812.729547793283	27
6	751	1822.789597242941	28
6	755	1827.729542456423	29
6	757	1835.34251097782	30
6	763	1846.315880066733	31
6	764	1850.045090083899	31
6	765	1854.327570195809	30
6	766	1857.335518226973	29
6	768	1859.610694122373	29
6	772	1866.028874446117	29
6	774	1866.708582479766	29
6	775	1867.175250212051	29
6	782	1883.591531990599	29
6	786	1887.467234090877	30
6	788	1892.164969454295	31
6	790	1896.988062328872	32
6	796	1913.33164658053	33
6	798	1918.239553569083	34
6	800	1926.163259006845	34
6	802	1939.413014824499	34
6	803	1939.871221025672	34
6	804	1944.258363686581	33
6	805	1951.271602550897	32
6	806	1954.902921255227	31
6	807	1958.220178304845	30
6	808	1960.241160143126	29
6	809	1961.434626258865	28
6	811	1961.906213717047	28
6	812	1964.711928628371	28
6	813	1967.606652453996	27
6	815	1970.746609118175	27
6	816	1972.641530017958	27
6	817	1975.519316493143	26
6	819	1980.244380990038	26
6	823	1989.839279938553	26
6	825	1990.911080849943	26
6	827	2002.226518752834	27
6	829	2005.657567967903	28
6	831	2007.076585269853	29
6	832	2009.043890135879	29
6	834	2011.99281693691	29
6	835	2013.979469842348	29
6	837	2015.318506437137	29
6	838	2015.488167809577	29
6	840	2016.680203553257	29
6	842	2016.958808805942	30
6	844	2019.351684363755	31
6	846	2022.320615006906	32
6	854	2036.387777157786	33
6	858	2040.160363597193	34
6	861	2048.808516908357	35
6	865	2049.768310849397	36
6	870	2054.783825874276	36
6	871	2055.908969448565	35
6	872	2059.687833677522	34
6	874	2059.760462141642	34
6	876	2061.907945737218	35
6	877	2065.411718409156	35
6	878	2067.026100197095	34
6	879	2068.573024692357	33
6	886	2085.344312205519	32
6	887	2091.798130863443	31
6	889	2093.505152452636	31
6	890	2094.061606008866	31
6	894	2097.229950162052	31
6	896	2098.219906843734	32
6	899	2105.383738213321	33
6	901	2106.750265175274	34
6	902	2108.978000818872	34
6	903	2110.101012063356	33
6	905	2111.236557246119	33
6	907	2116.456695820183	34
6	908	2130.025012323171	34
6	910	2130.162292470775	34
6	911	2131.01063856363	34
6	913	2132.681831277386	34
6	915	2139.266205856075	35
6	920	2146.850414131752	36
6	926	2155.214678228357	37
6	929	2172.400802452246	37
6	931	2172.968361916568	37
6	932	2176.933655927353	37
6	933	2179.443397519389	36
6	934	2182.850699207821	35
6	938	2197.747145749908	34
6	943	2210.235865739089	34
6	944	2211.249145780929	34
6	949	2219.504720468416	34
6	950	2225.388592163082	34
6	952	2226.20237524347	34
6	954	2228.252826959931	35
6	956	2231.189043554593	36
6	957	2235.37602801697	36
6	959	2235.990529159481	36
6	960	2238.893208804094	36
6	961	2249.425657444717	35
6	968	2266.205082174122	34
6	970	2274.316062352235	34
6	972	2277.64936585754	35
6	974	2279.369371625004	36
6	982	2291.520128777268	37
6	986	2302.009609685989	38
6	989	2304.937198279872	39
6	991	2305.007415274873	40
6	1000	2319.336706072754	41
6	1002	2320.262451255038	42
6	1006	2323.506657643407	43
6	1015	2329.026318484358	44
6	1017	2329.488023016245	45
6	1021	2337.883707012958	46
6	1029	2366.453068044888	47
6	1035	2376.883160209059	48
6	1039	2384.144808062979	49
6	1041	2385.318994031209	50
6	1043	2398.835523000256	51
6	1045	2402.780862958371	52
6	1046	2404.32835167856	52
6	1047	2405.360751411151	51
6	1048	2408.164169293425	50
6	1052	2409.724124942963	49
6	1054	2411.904107173243	49
6	1055	2416.425838893154	49
6	1056	2416.805690871757	48
6	1063	2428.851740755592	47
6	1067	2437.157333450395	46
6	1068	2447.000740482927	45
6	1070	2447.089342177539	45
6	1083	2495.518158078898	45
6	1084	2496.031372809263	44
6	1085	2496.32889472674	43
6	1086	2498.629659623282	42
6	1090	2499.949391704458	42
7	159	353.639934965039	129.42706526072
7	162	356.639236552491	128.19232262612
7	170	377.481063053293	134.40618434635
7	173	384.44250681154	134.08819863323
7	174	388.176682108876	123.18806519202
7	175	390.774385327978	119.95693861424
7	176	409.847452182551	120.95355374559
7	177	410.527482195965	120.85671862257
7	178	411.599624282498	113.91066707619
7	201	516.10295907748	170.52213514137
7	202	516.722702818546	169.56724476152
7	206	523.250051867512	168.21084961505
7	207	526.324605691198	163.03479114023
7	210	529.035479415432	161.20454941547
7	218	542.226921599163	159.8563190925
7	221	547.980381187469	131.88153047771
7	226	558.641567712668	121.96979377057
7	227	560.827639949053	103.06163236151
7	231	607.091156881719	140.71711933586
7	232	608.799422102968	141.45024911613
7	236	624.076712804279	120.53564596176
7	246	632.743415014351	105.92112478836
7	247	634.711629451635	105.44392855724
7	248	636.482958335831	103.641062442
7	249	637.405004789356	98.383446424454
7	250	640.691480145906	96.961956794783
7	251	642.03917005236	92.294509713736
7	254	646.97688268964	97.219230575519
7	255	653.058233141773	88.757672752155
7	317	777.198493136254	152.82086321892
7	318	778.901372891371	153.54988747076
7	328	803.295737923676	175.14629678736
7	329	804.064286624158	158.0228935081
7	334	817.927602874801	161.38024389378
7	335	818.271714216464	159.87325780512
7	354	862.44380754744	172.19394115445
7	364	893.023545277034	189.39014846915
7	367	899.069115252806	169.67848871024
7	372	909.410450414205	172.36508076712
7	382	928.088340334757	182.88160269632
7	389	938.320945523216	186.88702181439
7	390	942.777763380314	184.5930047308
7	391	945.399332697107	186.75348108517
7	392	945.673389335262	175.74241630922
7	393	946.167358175517	173.51073437198
7	394	946.540819266416	167.09060386363
7	395	950.441197804247	167.83565910262
7	396	955.311625186567	161.47187556842
7	397	955.965313558779	157.71931817294
7	398	957.052966334924	143.55679596533
7	399	957.847582661104	143.6616599295
7	404	972.535260289325	153.55179588642
7	405	974.634629552338	148.5676587299
7	408	979.368257987002	144.11965358273
7	409	982.969376189897	139.60167618061
7	416	996.903427865309	148.72392119723
7	417	1007.921778406497	155.753089135
7	418	1009.324830280297	145.48580849154
7	419	1009.4186454545	140.40208700758
7	422	1012.120435145021	136.29106081687
7	423	1013.185282547799	126.72413723248
7	424	1015.685779549738	121.79871002004
7	425	1023.62538323695	122.79213887437
7	428	1031.060947208305	126.68177105902
7	429	1031.535076819246	116.46435037545
7	430	1046.25287067454	125.75971523029
7	431	1046.446198653907	125.15588636416
7	434	1049.220099166496	122.96089495178
7	439	1054.096853767599	122.44503386399
7	440	1057.93321693904	89.819742131743
7	450	1077.271214182268	98.257171475663
7	451	1078.204334564516	91.802744653966
7	452	1087.106872178326	95.629100359371
7	455	1090.977961543872	94.404641502874
7	456	1092.634417956258	83.045046159058
7	461	1106.270201860562	78.976941331622
7	469	1128.088985773613	76.500563632999
7	470	1128.970593902982	77.116991239709
7	471	1129.238213371619	70.719282582031
7	517	1219.118608701716	129.22658029559
7	523	1245.749607777197	143.35419312292
7	526	1245.948526511839	137.58674376065
7	529	1256.294127864596	147.70456639219
7	530	1260.454530894057	151.79544354903
7	540	1307.153383728112	174.45878700936
7	541	1312.441319548469	176.33251196473
7	544	1312.809345159785	175.30091695509
7	545	1313.898642532023	173.13341276227
7	546	1316.882800494357	172.10271893502
7	558	1339.167644814499	178.03904392619
7	559	1347.467753113406	157.28546835543
7	560	1348.718700459056	154.61160546742
7	561	1354.762110215781	158.95193960804
7	562	1358.905484430618	142.61417022753
7	570	1365.534112360441	129.95775193143
7	571	1386.211352222619	140.46078428254
7	572	1386.770505607833	132.14698703186
7	575	1400.322375727567	127.63990640224
7	576	1402.2813163911	104.70451506376
7	577	1410.196057096519	111.21407605526
7	583	1417.575483922949	105.04137197725
7	584	1418.158722164517	100.7968669253
7	596	1440.185853140706	110.45987935332
7	597	1454.620972183042	116.70262581799
7	603	1463.410798989421	103.40211373269
7	604	1463.515947099098	102.49324595536
7	605	1465.968237188697	104.28188176353
7	608	1477.335855773895	77.051753496171
7	609	1478.64314386567	65.50010267293
7	610	1482.433932479915	66.814185674474
7	611	1490.005627454839	71.045497450321
7	614	1504.016241646931	84.796444168893
7	638	1577.05958920252	146.34077311046
7	639	1578.116894307409	145.19221219969
7	651	1610.852918806322	154.29535511678
7	659	1623.214860367329	126.64571183742
7	660	1625.144927361472	118.35123718618
7	663	1633.061946497111	120.44811391022
7	666	1644.456407124531	125.99061938993
7	669	1653.241489307359	131.61896280151
7	672	1661.005996938945	123.76911429387
7	682	1676.46119235891	107.65541612006
7	687	1690.354990729316	115.14891976902
7	688	1692.056649044799	112.1345431728
7	689	1692.155122849785	104.55759331751
7	694	1713.571026441657	121.02025832075
7	699	1722.058861908686	127.27360721034
7	702	1725.421438367706	125.44289842927
7	705	1735.296870792138	120.64932601428
7	708	1738.327734167056	121.92276528157
7	711	1745.279519032991	124.15611225433
7	717	1755.393309418682	120.68297865277
7	728	1765.869268666651	113.32606116688
7	731	1775.451040719972	114.85849251075
7	745	1803.0847929407	135.7660604363
7	764	1850.045090083899	180.91756349945
7	765	1854.327570195809	170.17383234836
7	766	1857.335518226973	171.94824849766
7	772	1866.028874446117	164.46731508764
7	775	1867.175250212051	150.63430230743
7	800	1926.163259006845	193.11622195887
7	803	1939.871221025672	204.46297826041
7	804	1944.258363686581	203.55364540769
7	805	1951.271602550897	203.55280177251
7	806	1954.902921255227	202.21233926065
7	807	1958.220178304845	196.55426943139
7	808	1960.241160143126	197.14664480663
7	809	1961.434626258865	198.22086853547
7	812	1964.711928628371	199.61842937798
7	813	1967.606652453996	202.13663904093
7	816	1972.641530017958	204.35499088512
7	817	1975.519316493143	196.91980791512
7	823	1989.839279938553	205.47213772489
7	832	2009.043890135879	220.94324972392
7	835	2013.979469842348	223.31199598373
7	838	2015.488167809577	222.13508241985
7	870	2054.783825874276	242.05427808099
7	871	2055.908969448565	233.11937220562
7	872	2059.687833677522	233.56970157273
7	877	2065.411718409156	237.68217595273
7	878	2067.026100197095	231.68358921928
7	879	2068.573024692357	222.25714462562
7	886	2085.344312205519	223.18049882144
7	887	2091.798130863443	225.08954838368
7	890	2094.061606008866	223.19919926172
7	902	2108.978000818872	225.38646882827
7	903	2110.101012063356	222.63377797248
7	908	2130.025012323171	237.86004286888
7	911	2131.01063856363	234.02257623476
7	929	2172.400802452246	232.98778762775
7	932	2176.933655927353	215.02744221031
7	933	2179.443397519389	208.69678840121
7	934	2182.850699207821	202.60631821778
7	938	2197.747145749908	206.83606489997
7	944	2211.249145780929	205.59157781303
7	950	2225.388592163082	213.39577522617
7	957	2235.37602801697	220.05752157983
7	960	2238.893208804094	222.21300525084
7	961	2249.425657444717	232.46684863877
7	968	2266.205082174122	243.88446716722
7	1046	2404.32835167856	355.5198347702
7	1047	2405.360751411151	355.59244056175
7	1048	2408.164169293425	348.40370715178
7	1052	2409.724124942963	336.14059862443
7	1055	2416.425838893154	322.92068644052
7	1056	2416.805690871757	321.67692335532
7	1063	2428.851740755592	323.46800254227
7	1067	2437.157333450395	325.92077620428
7	1068	2447.000740482927	330.54404466274
7	1083	2495.518158078898	362.83632680151
7	1084	2496.031372809263	356.76516695319
7	1085	2496.32889472674	352.46607134946
7	1086	2498.629659623282	351.77924549153
8	161	355.039202252463	16
8	164	363.289814550966	16
8	166	367.830929999966	17
8	172	382.370602506663	17
8	183	436.671773942098	12
8	187	460.852668622827	13
8	189	466.374037545862	14
8	191	467.349172986839	15
8	200	503.541066842519	16
8	209	526.822290225991	13
8	214	532.841895893834	13
8	217	539.021558364902	14
8	220	543.729523351123	14
8	223	549.744660338624	14
8	225	549.757652114121	15
8	238	624.377629917337	11
8	242	626.377011457473	12
8	245	628.149441136313	13
8	253	646.041393116059	8
8	259	658.39845641134	7
8	261	659.690924306509	8
8	263	661.441890419892	9
8	265	673.601588221394	10
8	267	690.249866392987	11
8	271	703.275599853586	12
8	273	703.633396807882	13
8	284	729.390626542569	14
8	288	737.045369647088	15
8	290	743.385520347509	16
8	294	745.206737638433	17
8	296	747.746298385527	18
8	298	751.433923708821	19
8	301	758.184758649513	20
8	304	758.64585161194	21
8	312	769.930973026044	22
8	315	772.656623803539	23
8	322	782.605538701624	22
8	325	793.839749618144	23
8	327	798.245995385835	24
8	331	813.496170369595	23
8	333	814.185922731608	24
8	339	826.066970822433	23
8	347	848.179506668075	24
8	349	852.1686892715	25
8	358	869.016558446923	25
8	361	875.829374328149	26
8	363	886.461145315321	27
8	366	893.887069529698	27
8	369	900.833244362583	27
8	371	904.379176149286	28
8	374	915.070726443792	28
8	378	921.290312289743	29
8	381	926.259204214721	30
8	401	968.113474807297	19
8	403	972.059846730416	20
8	407	979.014042706605	19
8	411	986.40158991055	18
8	413	991.477771818955	19
8	415	996.573320040998	20
8	421	1009.5893717972	17
8	427	1027.29326052894	14
8	433	1047.195191840301	11
8	436	1051.588422140614	11
8	438	1051.853602663273	12
8	445	1069.570309487394	11
8	447	1072.995454593012	12
8	449	1074.329777082393	13
8	454	1089.892028406125	11
8	458	1096.28675098785	10
8	460	1102.395414654277	11
8	465	1108.589561472402	11
8	467	1108.659087345032	12
8	473	1132.072607512783	10
8	482	1137.5084282047	11
8	484	1140.765229769752	12
8	486	1144.780081559334	13
8	491	1151.861347883656	14
8	493	1161.128600888311	15
8	505	1190.182284757979	16
8	509	1194.107094991637	17
8	511	1195.810170607742	18
8	521	1235.57636042901	18
8	525	1245.750567940076	18
8	528	1254.623518575976	18
8	535	1297.576801327344	17
8	537	1298.981981041257	18
8	539	1305.174030572477	19
8	543	1312.534111945697	18
8	550	1325.294640523372	16
8	552	1329.725973787391	17
8	555	1337.918346365047	18
8	557	1338.069482505731	19
8	564	1360.008685256734	15
8	566	1361.022701143741	16
8	574	1400.284102277724	14
8	582	1415.619746805441	12
8	586	1418.960130004518	11
8	590	1424.528878770452	12
8	592	1430.718816092059	13
8	594	1432.924682107722	14
8	601	1456.557563689539	13
8	607	1466.341925398978	11
8	613	1496.569148529909	8
8	616	1506.793690175289	8
8	620	1518.465787734605	9
8	622	1521.622526505848	10
8	626	1537.236882645073	11
8	628	1538.627409021411	12
8	635	1568.805776238846	13
8	637	1575.206070960299	14
8	643	1587.597529532276	13
8	645	1592.550768120903	14
8	647	1594.785254698345	15
8	649	1599.978539938441	16
8	655	1616.404968885488	16
8	658	1621.123406778662	17
8	662	1631.254750414244	16
8	665	1634.710330765916	16
8	668	1652.543207499767	16
8	671	1660.592548209223	16
8	674	1661.676721405022	16
8	676	1667.318732504404	17
8	678	1668.839998673156	18
8	684	1684.153737847449	18
8	686	1685.387269729313	19
8	691	1697.452804236935	17
8	693	1701.561559358482	18
8	696	1716.540947904621	18
8	698	1719.13214685948	19
8	701	1722.526526733274	19
8	704	1733.047037047973	19
8	707	1735.408242765257	19
8	710	1740.704718278887	19
8	713	1747.718800778385	19
8	719	1761.665908873459	19
8	721	1763.094515336496	20
8	723	1763.213757723395	21
8	725	1765.093499250388	22
8	727	1765.470013413068	23
8	730	1768.286539132837	23
8	733	1778.599508578021	23
8	735	1779.035512282923	24
8	739	1788.100640411957	25
8	741	1790.667473858621	26
8	743	1793.353085389727	27
8	747	1803.180920255599	27
8	749	1812.729547793283	28
8	751	1822.789597242941	29
8	755	1827.729542456423	30
8	757	1835.34251097782	31
8	763	1846.315880066733	32
8	768	1859.610694122373	30
8	774	1866.708582479766	30
8	782	1883.591531990599	30
8	786	1887.467234090877	31
8	788	1892.164969454295	32
8	790	1896.988062328872	33
8	796	1913.33164658053	34
8	798	1918.239553569083	35
8	802	1939.413014824499	35
8	811	1961.906213717047	29
8	815	1970.746609118175	28
8	819	1980.244380990038	27
8	825	1990.911080849943	27
8	827	2002.226518752834	28
8	829	2005.657567967903	29
8	831	2007.076585269853	30
8	834	2011.99281693691	30
8	837	2015.318506437137	30
8	840	2016.680203553257	30
8	842	2016.958808805942	31
8	844	2019.351684363755	32
8	846	2022.320615006906	33
8	854	2036.387777157786	34
8	858	2040.160363597193	35
8	861	2048.808516908357	36
8	865	2049.768310849397	37
8	874	2059.760462141642	35
8	876	2061.907945737218	36
8	889	2093.505152452636	32
8	894	2097.229950162052	32
8	896	2098.219906843734	33
8	899	2105.383738213321	34
8	901	2106.750265175274	35
8	905	2111.236557246119	34
8	907	2116.456695820183	35
8	910	2130.162292470775	35
8	913	2132.681831277386	35
8	915	2139.266205856075	36
8	920	2146.850414131752	37
8	926	2155.214678228357	38
8	931	2172.968361916568	38
8	943	2210.235865739089	35
8	949	2219.504720468416	35
8	952	2226.20237524347	35
8	954	2228.252826959931	36
8	956	2231.189043554593	37
8	959	2235.990529159481	37
8	970	2274.316062352235	35
8	972	2277.64936585754	36
8	974	2279.369371625004	37
8	982	2291.520128777268	38
8	986	2302.009609685989	39
8	989	2304.937198279872	40
8	991	2305.007415274873	41
8	1000	2319.336706072754	42
8	1002	2320.262451255038	43
8	1006	2323.506657643407	44
8	1015	2329.026318484358	45
8	1017	2329.488023016245	46
8	1021	2337.883707012958	47
8	1029	2366.453068044888	48
8	1035	2376.883160209059	49
8	1039	2384.144808062979	50
8	1041	2385.318994031209	51
8	1043	2398.835523000256	52
8	1045	2402.780862958371	53
8	1054	2411.904107173243	50
8	1070	2447.089342177539	46
8	1090	2499.949391704458	43
9	168	375.391315048882	1
9	180	416.09885070976	1
9	185	457.766007587543	1
9	193	476.548788404644	2
9	197	486.357315170998	1
9	204	519.361765448563	1
9	212	529.267700894395	1
9	229	564.300560389618	1
9	234	619.011098646388	1
9	240	625.351485420614	1
9	257	656.547358981017	1
9	269	692.763323156002	2
9	275	703.740050135436	3
9	277	710.380849687831	4
9	280	720.453856391853	4
9	282	723.431017966754	5
9	286	733.910972131425	6
9	306	758.996673827888	3
9	309	766.656699326265	3
9	320	779.450215402787	1
9	337	818.983464402905	1
9	342	835.248604404272	1
9	345	843.367700009282	1
9	351	853.109086923126	2
9	356	863.83902178876	1
9	376	920.493155444247	1
9	384	931.651819903604	1
9	386	933.345352980081	2
9	442	1058.518930789588	1
9	463	1108.361782751192	1
9	475	1132.694596718756	1
9	478	1136.108807583738	1
9	480	1136.333826018112	2
9	488	1148.078871593158	3
9	495	1163.720581410365	3
9	497	1168.488416785386	4
9	499	1173.076299037651	5
9	501	1176.916299660197	6
9	515	1216.291314203088	1
9	519	1230.755115960214	1
9	532	1272.682469325331	1
9	548	1317.361855239214	1
9	568	1361.686355425169	1
9	579	1413.14304119274	1
9	588	1419.219797478038	1
9	599	1455.374959090924	1
9	618	1512.613832586893	1
9	624	1526.463072663728	2
9	631	1545.518748707868	2
9	641	1579.922105872001	1
9	653	1614.647544777863	1
9	680	1669.12752658445	1
9	715	1752.69058199458	1
9	737	1784.36714221366	1
9	753	1826.11813210479	1
9	759	1838.500648643851	2
9	770	1862.163813384079	1
9	777	1870.862406747146	1
9	780	1881.496160769119	1
9	784	1883.79523115591	2
9	792	1903.24141457117	3
9	821	1986.939751930008	1
9	848	2024.452246727987	1
9	850	2027.727541502782	2
9	852	2030.661302349244	3
9	856	2037.18732466916	4
9	863	2049.562016438356	4
9	881	2073.58352631853	1
9	883	2074.263168382427	2
9	892	2095.128767516438	1
9	917	2143.862823377282	1
9	922	2148.922937466807	1
9	924	2150.669734305564	2
9	936	2183.044205315737	1
9	940	2202.435043403632	1
9	946	2216.788444128043	1
9	963	2249.729384129566	1
9	965	2251.367958607534	2
9	976	2279.690247357455	1
9	978	2280.385384205945	2
9	984	2294.765771610817	1
9	993	2311.466960642226	1
9	995	2314.816185985176	2
9	998	2318.058885096036	2
9	1004	2321.349749090659	3
9	1009	2326.870960380821	3
9	1011	2327.4267847295	4
9	1013	2328.107968982309	5
9	1019	2332.981509177791	6
9	1025	2354.319388697645	5
9	1031	2370.218810734865	4
9	1050	2408.760504512205	1
9	1058	2422.9459360675	1
9	1061	2427.402652917027	1
9	1065	2432.751736103515	1
9	1072	2465.658478271555	1
9	1074	2472.320315154536	2
9	1076	2473.889202106358	3
9	1079	2478.649007051707	3
9	1088	2498.862924785266	1
10	168	375.391315048882	12
10	180	416.09885070976	13
10	185	457.766007587543	14
10	197	486.357315170998	15
10	204	519.361765448563	16
10	212	529.267700894395	17
10	229	564.300560389618	18
10	234	619.011098646388	19
10	240	625.351485420614	20
10	257	656.547358981017	21
10	320	779.450215402787	22
10	337	818.983464402905	23
10	342	835.248604404272	24
10	345	843.367700009282	25
10	356	863.83902178876	26
10	376	920.493155444247	27
10	384	931.651819903604	28
10	442	1058.518930789588	29
10	463	1108.361782751192	30
10	475	1132.694596718756	31
10	478	1136.108807583738	32
10	515	1216.291314203088	33
10	519	1230.755115960214	34
10	532	1272.682469325331	35
10	548	1317.361855239214	36
10	568	1361.686355425169	37
10	579	1413.14304119274	38
10	588	1419.219797478038	39
10	599	1455.374959090924	40
10	618	1512.613832586893	41
10	641	1579.922105872001	42
10	653	1614.647544777863	43
10	680	1669.12752658445	44
10	715	1752.69058199458	45
10	737	1784.36714221366	46
10	753	1826.11813210479	47
10	770	1862.163813384079	48
10	777	1870.862406747146	49
10	780	1881.496160769119	50
10	821	1986.939751930008	51
10	848	2024.452246727987	52
10	881	2073.58352631853	53
10	892	2095.128767516438	54
10	917	2143.862823377282	55
10	922	2148.922937466807	56
10	936	2183.044205315737	57
10	940	2202.435043403632	58
10	946	2216.788444128043	59
10	963	2249.729384129566	60
10	976	2279.690247357455	61
10	984	2294.765771610817	62
10	993	2311.466960642226	63
10	1050	2408.760504512205	64
10	1058	2422.9459360675	65
10	1061	2427.402652917027	66
10	1065	2432.751736103515	67
10	1072	2465.658478271555	68
10	1088	2498.862924785266	69
11	1091	2500	0.0848
12	1091	2500	0.0488

