version 2
run experiments_hard_game_mode1-1045-20230311-19:43:04-10127
attr configname experiments_hard_game_mode1
attr datetime 20230311-19:43:04
attr experiment experiments_hard_game_mode1
attr inifile omnetpp.ini
attr iterationvars "$0=9, $1=5, $2=0"
attr iterationvarsf 9,5,0-
attr measurement "$0=9, $1=5, $2=0"
attr network Network
attr processid 10127
attr repetition 25
attr replication #25
attr resultdir results
attr runnumber 1045
attr seedset 25
param *.boss.arrival_mean 20
param *.boss.service_mean 9
param *.minion.arrival_mean 10
param *.minion.service_mean 5
param *.player.recover_rate_x 0
param **.minion.arrival_distribution 0
param **.minion.service_distribution 0
param **.boss.arrival_distribution 0
param **.boss.service_distribution 0

vector 0 Network.player minion_defeated_stat:vector ETV
attr source signal_minion_defeated
vector 1 Network.player minion_jobs_queue_number_stat:vector ETV
attr source signal_minion_jobs_queue_number
vector 2 Network.player minion_response_time_stat:vector ETV
attr source signal_minion_response_time
vector 3 Network.player minion_waiting_time_stat:vector ETV
attr source signal_minion_waiting_time
vector 4 Network.player minion_jobs_number_stat:vector ETV
attr source signal_minion_jobs_number
vector 5 Network.player boss_jobs_number_stat:vector ETV
attr source signal_boss_jobs_number
vector 6 Network.player boss_jobs_queue_number_stat:vector ETV
attr source signal_boss_jobs_queue_number
vector 7 Network.player minion_recovered_stat:vector ETV
attr source signal_minion_recovered
vector 8 Network.player boss_waiting_time_stat:vector ETV
attr source signal_boss_waiting_time
vector 9 Network.player boss_defeated_stat:vector ETV
attr source signal_boss_defeated
vector 10 Network.player boss_response_time_stat:vector ETV
attr source signal_boss_response_time
vector 11 Network.player minion_throughput:vector ETV
attr source signal_minion_throughput
vector 12 Network.player boss_throughput:vector ETV
attr source signal_boss_throughput
0	179	362.12579187106	32
0	182	364.465299683042	33
0	183	370.99334836928	34
0	186	378.573339297394	35
0	187	383.301930694201	36
0	188	384.918399766907	37
0	189	386.392351202405	38
0	192	401.012597874544	39
0	193	401.663955039001	40
0	197	413.740365782968	41
0	200	417.38804701297	42
0	207	425.234959944331	43
0	208	425.483456634677	44
0	209	425.905138248475	45
0	210	428.953788760481	46
0	211	429.695530372115	47
0	216	438.458555241731	48
0	219	439.493475776438	49
0	222	440.283999095841	50
0	284	549.350355305664	51
0	285	553.027137205345	52
0	286	557.500700806264	53
0	289	561.823814116991	54
0	300	602.66352259212	55
0	333	678.599902078272	56
0	336	685.174601737946	57
0	367	744.432339994137	58
0	382	782.774521582291	59
0	385	784.984319163615	60
0	386	790.676793702657	61
0	389	805.951733413818	62
0	406	829.194279336221	63
0	407	832.563644627067	64
0	408	842.579745338621	65
0	413	848.745032056812	66
0	414	849.079317562971	67
0	415	858.225481641404	68
0	429	889.137632248781	69
0	430	893.000331839155	70
0	431	893.076887249064	71
0	435	896.519504200811	72
0	436	897.030478935717	73
0	442	908.794543489865	74
0	443	916.773657809412	75
0	446	917.31630486775	76
0	451	927.238101535906	77
0	456	933.283150532925	78
0	457	935.868357708976	79
0	460	946.926592132232	80
0	461	946.965088010447	81
0	467	962.872326662452	82
0	470	963.741477027632	83
0	471	964.080480553121	84
0	472	965.69234879027	85
0	473	976.099450995539	86
0	478	981.680657874195	87
0	479	987.736627637711	88
0	480	988.228727074067	89
0	481	989.405953330232	90
0	482	990.303399958626	91
0	483	990.35006443804	92
0	484	996.392833095054	93
0	487	999.295937879342	94
0	490	1002.639530148489	95
0	491	1007.441108692604	96
0	494	1011.249454557833	97
0	497	1016.95722733819	98
0	498	1020.891677787327	99
0	505	1033.151866109915	100
0	508	1039.33904608655	101
0	514	1044.306642205411	102
0	515	1044.528474664798	103
0	516	1051.068720465996	104
0	519	1052.336325820459	105
0	522	1053.079245161368	106
0	528	1064.5818755968	107
0	534	1067.814272071191	108
0	537	1069.166819781082	109
0	540	1072.633723014124	110
0	541	1072.949320529828	111
0	542	1073.691876079894	112
0	546	1076.650206040582	113
0	560	1111.670488010112	114
0	561	1115.112622540463	115
0	562	1118.032903850974	116
0	563	1119.824324263833	117
0	564	1123.830724331766	118
0	567	1134.332510893268	119
0	570	1143.284900063652	120
0	571	1144.888911399807	121
0	574	1159.794521888311	122
0	581	1166.854622840475	123
0	582	1168.53286125139	124
0	583	1172.869868898479	125
0	584	1175.822773915218	126
0	585	1178.914079628568	127
0	586	1181.981506388034	128
0	587	1187.052251346297	129
0	592	1195.695363147927	130
0	595	1197.657673199981	131
0	614	1222.625215117078	132
0	615	1230.027763949943	133
0	616	1230.653188860247	134
0	627	1238.207435188398	135
0	628	1243.237860753512	136
0	629	1248.274097448734	137
0	640	1259.703174289046	138
0	644	1269.548166747897	139
0	684	1384.625537438111	140
0	685	1387.658918553197	141
0	686	1393.768152699836	142
0	700	1414.420529628598	143
0	701	1421.175952651652	144
0	702	1423.286791822357	145
0	712	1448.152347399375	146
0	715	1453.496576130315	147
0	716	1454.869395455399	148
0	717	1456.042702997332	149
0	718	1456.927510268838	150
0	724	1463.441172229488	151
0	727	1467.705925279823	152
0	730	1471.477033422002	153
0	731	1473.093701586308	154
0	748	1526.856329455015	155
0	749	1527.348567674597	156
0	750	1528.335917915007	157
0	751	1536.010396814655	158
0	752	1541.355105174209	159
0	753	1542.92927015142	160
0	754	1548.740898478864	161
0	755	1558.927937150264	162
0	758	1563.713883033124	163
0	759	1569.652387555208	164
0	762	1574.025412665779	165
0	765	1575.164653161763	166
0	768	1578.599152080533	167
0	769	1580.985640524418	168
0	775	1597.112359049288	169
0	776	1598.25017315955	170
0	782	1615.481573476563	171
0	783	1624.122178399805	172
0	788	1626.958866945244	173
0	789	1627.005229469245	174
0	797	1643.263339902941	175
0	800	1649.227650223683	176
0	801	1649.474488539344	177
0	830	1708.825218928659	178
0	835	1720.540762864798	179
0	840	1727.98495585592	180
0	841	1728.402426619815	181
0	844	1745.251246199604	182
0	849	1749.923726812588	183
0	852	1752.509291846308	184
0	855	1757.492008335538	185
0	856	1759.118658514384	186
0	857	1761.492267715146	187
0	858	1764.173548119286	188
0	859	1764.24019540472	189
0	889	1824.690393481762	190
0	892	1830.676078565576	191
0	893	1834.687160814894	192
0	894	1835.642369273646	193
0	895	1837.730171071575	194
0	898	1843.928829642744	195
0	899	1846.461283598879	196
0	900	1854.943773298131	197
0	903	1860.567715721695	198
0	904	1861.150156242332	199
0	919	1885.620901843238	200
0	920	1887.717125698597	201
0	921	1889.650301790284	202
0	926	1898.420745029695	203
0	927	1901.079208898041	204
0	928	1904.592607103873	205
0	929	1905.963416307211	206
0	930	1907.148021862247	207
0	931	1911.602540411512	208
0	939	1930.710396213638	209
0	940	1932.412696108903	210
0	945	1941.575098343792	211
0	949	1951.812525941378	212
0	955	1994.432029980225	213
0	958	1997.696839637261	214
0	959	1998.389360831525	215
0	960	2016.960332997395	216
0	980	2049.407223529566	217
0	981	2050.50767600942	218
0	985	2056.582869179785	219
0	986	2063.196043022564	220
0	987	2063.354592130143	221
0	1000	2079.744229013229	222
0	1001	2092.004849839895	223
0	1004	2104.982861984686	224
0	1010	2122.711091799722	225
0	1011	2123.907938080744	226
0	1017	2139.235635292227	227
0	1024	2146.119464018594	228
0	1044	2177.295625170733	229
0	1045	2187.917397099747	230
0	1046	2189.27948881702	231
0	1047	2191.554294524939	232
0	1060	2218.438489752932	233
0	1063	2225.777353041171	234
0	1066	2230.821635012554	235
0	1067	2231.903186343579	236
0	1082	2268.174589916492	237
0	1083	2270.684820263075	238
0	1084	2271.428814297343	239
0	1090	2283.304677296775	240
0	1091	2286.140777345335	241
0	1096	2292.375117480411	242
0	1115	2325.592374816954	243
0	1116	2326.027932073323	244
0	1119	2330.721914236626	245
0	1120	2333.021361354688	246
0	1123	2333.614060942547	247
0	1124	2334.585607334339	248
0	1125	2337.457809024257	249
0	1128	2344.479188317497	250
0	1129	2346.684113516141	251
0	1130	2348.527357714045	252
0	1131	2349.897814654353	253
0	1134	2351.75514422108	254
0	1137	2361.105444902479	255
0	1140	2381.725175885524	256
0	1143	2385.983775017499	257
0	1151	2402.0631056489	258
0	1152	2407.42465717697	259
0	1157	2410.001601878106	260
0	1158	2412.250829588737	261
0	1163	2419.529752116882	262
0	1164	2421.733934008991	263
0	1173	2434.029697589677	264
0	1179	2456.51472548801	265
0	1184	2463.093277977468	266
0	1204	2496.687593661022	267
0	1205	2496.805500485099	268
0	1206	2498.175476035367	269
1	179	362.12579187106	10
1	181	362.268301555052	10
1	182	364.465299683042	10
1	183	370.99334836928	9
1	185	372.539545306647	9
1	186	378.573339297394	9
1	187	383.301930694201	8
1	188	384.918399766907	7
1	189	386.392351202405	6
1	191	389.5577846975	6
1	192	401.012597874544	6
1	193	401.663955039001	5
1	197	413.740365782968	4
1	199	414.818044092872	4
1	200	417.38804701297	4
1	202	418.914461495836	4
1	204	422.465171795664	5
1	206	424.393867145197	6
1	207	425.234959944331	6
1	208	425.483456634677	5
1	209	425.905138248475	4
1	210	428.953788760481	3
1	211	429.695530372115	2
1	213	432.804436750576	2
1	215	437.469845809978	3
1	216	438.458555241731	3
1	218	439.43759280015	3
1	219	439.493475776438	3
1	221	439.494640283028	3
1	222	440.283999095841	3
1	224	447.099776189344	3
1	226	450.009000750263	4
1	234	460.413136447785	5
1	240	476.292959556537	6
1	242	477.825233390619	7
1	244	477.978958605117	8
1	250	486.687089681864	9
1	252	495.821123181817	10
1	256	502.344821873946	11
1	259	511.603297954585	12
1	261	516.487729742531	13
1	263	517.598695609658	14
1	269	523.405186700692	15
1	272	528.216939838918	16
1	276	533.404800948007	17
1	278	533.776380340601	18
1	281	539.614897092334	19
1	284	549.350355305664	19
1	285	553.027137205345	18
1	286	557.500700806264	17
1	288	561.725131358257	17
1	289	561.823814116991	17
1	291	562.030994378217	17
1	299	601.622588852045	18
1	300	602.66352259212	18
1	312	616.583918304718	18
1	314	617.202055236483	19
1	316	625.20845208981	20
1	318	647.330956320507	21
1	323	652.128642281043	22
1	329	660.730144932448	23
1	331	668.264761222758	24
1	333	678.599902078272	24
1	335	681.831327910446	24
1	336	685.174601737946	24
1	347	713.268292223129	24
1	353	723.215787602191	25
1	355	725.14946673918	26
1	359	733.868430710604	27
1	361	735.127497066748	28
1	363	735.334006060362	29
1	367	744.432339994137	29
1	371	755.207784703715	29
1	373	757.56534454334	30
1	375	758.343520951228	31
1	377	766.211176156565	32
1	382	782.774521582291	32
1	384	783.646291317493	32
1	385	784.984319163615	32
1	386	790.676793702657	31
1	388	798.304653878913	31
1	389	805.951733413818	31
1	396	816.391582886859	31
1	398	819.277677665164	32
1	400	820.061563309576	33
1	402	823.42882570197	34
1	404	823.543488412463	35
1	406	829.194279336221	35
1	407	832.563644627067	34
1	408	842.579745338621	33
1	410	842.67564930696	33
1	412	843.171970421776	34
1	413	848.745032056812	34
1	414	849.079317562971	33
1	415	858.225481641404	32
1	424	880.063361957828	32
1	426	884.481376070648	33
1	429	889.137632248781	33
1	430	893.000331839155	32
1	431	893.076887249064	31
1	435	896.519504200811	30
1	436	897.030478935717	29
1	441	906.096858491925	29
1	442	908.794543489865	29
1	443	916.773657809412	28
1	445	917.053825168664	28
1	446	917.31630486775	28
1	448	921.509009293989	28
1	450	921.623558985843	29
1	451	927.238101535906	29
1	453	930.757980628926	29
1	455	931.899950272343	30
1	456	933.283150532925	30
1	457	935.868357708976	29
1	459	936.281831491434	29
1	460	946.926592132232	29
1	461	946.965088010447	28
1	466	959.409509175819	28
1	467	962.872326662452	28
1	469	963.567546048599	28
1	470	963.741477027632	28
1	471	964.080480553121	27
1	472	965.69234879027	26
1	473	976.099450995539	25
1	475	979.409086802269	25
1	477	981.370220921466	26
1	478	981.680657874195	26
1	479	987.736627637711	25
1	480	988.228727074067	24
1	481	989.405953330232	23
1	482	990.303399958626	22
1	483	990.35006443804	21
1	484	996.392833095054	20
1	486	998.054723841462	20
1	487	999.295937879342	20
1	489	1000.768798821923	20
1	490	1002.639530148489	20
1	491	1007.441108692604	19
1	493	1010.993038112039	19
1	494	1011.249454557833	19
1	496	1011.452035498437	19
1	497	1016.95722733819	19
1	498	1020.891677787327	18
1	500	1021.254450093468	18
1	502	1028.295144927556	19
1	504	1029.867620550508	20
1	505	1033.151866109915	20
1	507	1034.587716186418	20
1	508	1039.33904608655	20
1	513	1043.032439090477	20
1	514	1044.306642205411	20
1	515	1044.528474664798	19
1	516	1051.068720465996	18
1	518	1052.017080031089	18
1	519	1052.336325820459	18
1	521	1052.690370788896	18
1	522	1053.079245161368	18
1	526	1062.631322734337	18
1	528	1064.5818755968	18
1	532	1066.391539861803	18
1	534	1067.814272071191	18
1	536	1067.93005079115	18
1	537	1069.166819781082	18
1	539	1070.377116493317	18
1	540	1072.633723014124	18
1	541	1072.949320529828	17
1	542	1073.691876079894	16
1	546	1076.650206040582	15
1	552	1097.534105512189	15
1	555	1105.019655488875	16
1	560	1111.670488010112	16
1	561	1115.112622540463	15
1	562	1118.032903850974	14
1	563	1119.824324263833	13
1	564	1123.830724331766	12
1	566	1134.27796456258	12
1	567	1134.332510893268	12
1	569	1139.848551853526	12
1	570	1143.284900063652	12
1	571	1144.888911399807	11
1	573	1149.06904089752	11
1	574	1159.794521888311	11
1	581	1166.854622840475	10
1	582	1168.53286125139	9
1	583	1172.869868898479	8
1	584	1175.822773915218	7
1	585	1178.914079628568	6
1	586	1181.981506388034	5
1	587	1187.052251346297	4
1	589	1189.599395587986	4
1	591	1194.505807403182	5
1	592	1195.695363147927	5
1	594	1196.01928749176	5
1	595	1197.657673199981	5
1	597	1200.532095542279	5
1	606	1214.331704468146	6
1	610	1216.617603927497	7
1	614	1222.625215117078	7
1	615	1230.027763949943	6
1	616	1230.653188860247	5
1	620	1232.169014153108	5
1	625	1235.4092257353	6
1	627	1238.207435188398	6
1	628	1243.237860753512	5
1	629	1248.274097448734	4
1	633	1248.517259157264	4
1	635	1251.34799789722	5
1	640	1259.703174289046	5
1	644	1269.548166747897	4
1	646	1270.031272383515	4
1	648	1271.93813285379	5
1	654	1280.061728632661	6
1	659	1314.056626373889	7
1	661	1314.642060538589	8
1	672	1346.110542516041	9
1	678	1367.889872199002	10
1	680	1377.002249574517	11
1	683	1380.777105870427	12
1	684	1384.625537438111	12
1	685	1387.658918553197	11
1	686	1393.768152699836	10
1	688	1393.91873141806	10
1	692	1402.137446976738	11
1	694	1406.298439893118	12
1	697	1409.22892971003	13
1	699	1410.194651094536	14
1	700	1414.420529628598	14
1	701	1421.175952651652	13
1	702	1423.286791822357	12
1	707	1437.522502562912	12
1	709	1443.749352849394	13
1	711	1444.09780329844	14
1	712	1448.152347399375	14
1	714	1451.204784155259	14
1	715	1453.496576130315	14
1	716	1454.869395455399	13
1	717	1456.042702997332	12
1	718	1456.927510268838	11
1	723	1462.805777634181	11
1	724	1463.441172229488	11
1	726	1463.731977581261	11
1	727	1467.705925279823	11
1	729	1469.511161625262	11
1	730	1471.477033422002	11
1	731	1473.093701586308	10
1	735	1477.019670783198	10
1	743	1515.060756568655	11
1	748	1526.856329455015	11
1	749	1527.348567674597	10
1	750	1528.335917915007	9
1	751	1536.010396814655	8
1	752	1541.355105174209	7
1	753	1542.92927015142	6
1	754	1548.740898478864	5
1	755	1558.927937150264	4
1	757	1563.543419170754	4
1	758	1563.713883033124	4
1	759	1569.652387555208	3
1	761	1570.03250521935	3
1	762	1574.025412665779	3
1	764	1575.058367380463	3
1	765	1575.164653161763	3
1	767	1577.78896422583	3
1	768	1578.599152080533	3
1	769	1580.985640524418	2
1	771	1581.877619595059	2
1	775	1597.112359049288	2
1	776	1598.25017315955	1
1	781	1608.811795845907	1
1	782	1615.481573476563	1
1	783	1624.122178399805	0
1	785	1625.182484363768	0
1	787	1626.652589770851	1
1	788	1626.958866945244	1
1	789	1627.005229469245	0
1	793	1640.691024145245	0
1	796	1642.577573599617	1
1	797	1643.263339902941	1
1	799	1646.33275066046	1
1	800	1649.227650223683	1
1	801	1649.474488539344	0
1	805	1653.325499605877	0
1	809	1663.377721449981	1
1	811	1663.952454281951	2
1	816	1671.726541129088	3
1	818	1675.260018520552	4
1	820	1678.781068984512	5
1	826	1705.05225861694	6
1	828	1706.226453516503	7
1	830	1708.825218928659	7
1	832	1711.11377483187	7
1	834	1714.8627502655	8
1	835	1720.540762864798	8
1	837	1721.06404982859	8
1	839	1727.17012513038	9
1	840	1727.98495585592	9
1	841	1728.402426619815	8
1	843	1735.812540871975	8
1	844	1745.251246199604	8
1	846	1746.56951169048	8
1	848	1747.778998890395	9
1	849	1749.923726812588	9
1	851	1750.71274830933	9
1	852	1752.509291846308	9
1	854	1755.30795447233	9
1	855	1757.492008335538	9
1	856	1759.118658514384	8
1	857	1761.492267715146	7
1	858	1764.173548119286	6
1	859	1764.24019540472	5
1	861	1765.555104458504	5
1	866	1770.029676397522	6
1	868	1772.262657099428	7
1	876	1793.466833075335	8
1	879	1804.185314060336	9
1	882	1807.394835518921	10
1	888	1822.458650725485	11
1	889	1824.690393481762	11
1	891	1825.002170506213	11
1	892	1830.676078565576	11
1	893	1834.687160814894	10
1	894	1835.642369273646	9
1	895	1837.730171071575	8
1	897	1840.125209822443	8
1	898	1843.928829642744	8
1	899	1846.461283598879	7
1	900	1854.943773298131	6
1	902	1856.943854044585	6
1	903	1860.567715721695	6
1	904	1861.150156242332	5
1	908	1866.36835717076	5
1	910	1866.967988551273	6
1	912	1870.664148085307	7
1	917	1883.763165252108	8
1	919	1885.620901843238	8
1	920	1887.717125698597	7
1	921	1889.650301790284	6
1	923	1895.727674013799	6
1	925	1896.05992377377	7
1	926	1898.420745029695	7
1	927	1901.079208898041	6
1	928	1904.592607103873	5
1	929	1905.963416307211	4
1	930	1907.148021862247	3
1	931	1911.602540411512	2
1	933	1915.693824578514	2
1	937	1924.856412670584	3
1	939	1930.710396213638	3
1	940	1932.412696108903	2
1	942	1934.673342550855	2
1	944	1934.983514581488	3
1	945	1941.575098343792	3
1	949	1951.812525941378	2
1	953	1975.386526062438	2
1	955	1994.432029980225	2
1	957	1995.019471867634	2
1	958	1997.696839637261	2
1	959	1998.389360831525	1
1	960	2016.960332997395	0
1	965	2032.527073200167	0
1	973	2038.321321843496	1
1	975	2040.144866994231	2
1	977	2048.364783550259	3
1	979	2048.599293271919	4
1	980	2049.407223529566	4
1	981	2050.50767600942	3
1	985	2056.582869179785	2
1	986	2063.196043022564	1
1	987	2063.354592130143	0
1	991	2065.604154607833	0
1	995	2067.356556141222	1
1	997	2068.288749076046	2
1	1000	2079.744229013229	2
1	1001	2092.004849839895	1
1	1003	2093.992979575455	1
1	1004	2104.982861984686	1
1	1006	2106.082421873943	1
1	1010	2122.711091799722	1
1	1011	2123.907938080744	0
1	1016	2136.776177976287	0
1	1017	2139.235635292227	0
1	1019	2141.646815259144	0
1	1021	2144.016431336242	1
1	1023	2144.192192413957	2
1	1024	2146.119464018594	2
1	1026	2148.663273855185	2
1	1028	2149.186389597899	3
1	1032	2157.157593129116	4
1	1034	2162.868158370205	5
1	1037	2166.040377421226	6
1	1044	2177.295625170733	6
1	1045	2187.917397099747	5
1	1046	2189.27948881702	4
1	1047	2191.554294524939	3
1	1054	2203.69533380782	3
1	1056	2209.868342587088	4
1	1058	2210.853110882239	5
1	1060	2218.438489752932	5
1	1062	2222.765702767109	5
1	1063	2225.777353041171	5
1	1065	2230.784603645069	5
1	1066	2230.821635012554	5
1	1067	2231.903186343579	4
1	1071	2237.723195822719	4
1	1073	2248.02628028613	5
1	1077	2260.616590731246	6
1	1081	2266.419323782936	7
1	1082	2268.174589916492	7
1	1083	2270.684820263075	6
1	1084	2271.428814297343	5
1	1086	2273.883873674355	5
1	1090	2283.304677296775	5
1	1091	2286.140777345335	4
1	1093	2289.436867201682	4
1	1095	2289.450867187436	5
1	1096	2292.375117480411	5
1	1102	2301.640294843342	5
1	1107	2306.660610274913	6
1	1114	2319.4066505354	7
1	1115	2325.592374816954	7
1	1116	2326.027932073323	6
1	1118	2326.182676171753	6
1	1119	2330.721914236626	6
1	1120	2333.021361354688	5
1	1122	2333.049889534637	5
1	1123	2333.614060942547	5
1	1124	2334.585607334339	4
1	1125	2337.457809024257	3
1	1127	2338.206266866647	3
1	1128	2344.479188317497	3
1	1129	2346.684113516141	2
1	1130	2348.527357714045	1
1	1131	2349.897814654353	0
1	1133	2351.433664253972	0
1	1134	2351.75514422108	0
1	1136	2355.807840710371	0
1	1137	2361.105444902479	0
1	1139	2376.564926396232	0
1	1140	2381.725175885524	0
1	1142	2383.508692131047	0
1	1143	2385.983775017499	0
1	1147	2391.716211887763	0
1	1149	2397.607266565843	1
1	1151	2402.0631056489	1
1	1152	2407.42465717697	0
1	1154	2409.014576527272	0
1	1156	2409.962440350145	1
1	1157	2410.001601878106	1
1	1158	2412.250829588737	0
1	1160	2414.557918742161	0
1	1162	2417.753952768565	1
1	1163	2419.529752116882	1
1	1164	2421.733934008991	0
1	1168	2426.6975034803	0
1	1173	2434.029697589677	0
1	1178	2455.428597487807	0
1	1179	2456.51472548801	0
1	1181	2461.949854324953	0
1	1183	2462.218887467808	1
1	1184	2463.093277977468	1
1	1191	2468.204834621618	1
1	1193	2468.6130409442	2
1	1195	2471.443904714921	3
1	1198	2474.772656864287	4
1	1202	2490.223068541484	5
1	1204	2496.687593661022	5
1	1205	2496.805500485099	4
1	1206	2498.175476035367	3
1	1208	2498.954044201238	3
2	179	362.12579187106	79.546986544932
2	182	364.465299683042	76.513866297633
2	183	370.99334836928	71.474125619019
2	186	378.573339297394	77.086375678596
2	187	383.301930694201	80.052441201253
2	188	384.918399766907	78.465841833393
2	189	386.392351202405	79.639775286782
2	192	401.012597874544	84.552887566525
2	193	401.663955039001	81.436712523742
2	197	413.740365782968	79.61114188691
2	200	417.38804701297	55.119745457918
2	207	425.234959944331	52.695414637684
2	208	425.483456634677	35.925671937177
2	209	425.905138248475	18.882086901963
2	210	428.953788760481	14.135744667609
2	211	429.695530372115	10.781068876279
2	216	438.458555241731	15.993383446067
2	219	439.493475776438	15.099608631241
2	222	440.283999095841	7.479562345265
2	284	549.350355305664	109.91276250551
2	285	553.027137205345	113.53249692232
2	286	557.500700806264	110.40092461692
2	289	561.823814116991	111.81481336673
2	300	602.66352259212	142.25038614434
2	333	678.599902078272	200.62094347315
2	336	685.174601737946	198.48751205608
2	367	744.432339994137	227.94461025161
2	382	782.774521582291	259.3693348816
2	385	784.984319163615	256.7673793247
2	386	790.676793702657	257.27199275465
2	389	805.951733413818	272.17535307322
2	406	829.194279336221	267.163284958
2	407	832.563644627067	259.95988373229
2	408	842.579745338621	240.95715648658
2	413	848.745032056812	245.6100817862
2	414	849.079317562971	239.87842757773
2	415	858.225481641404	241.64156333669
2	429	889.137632248781	263.92918015897
2	430	893.000331839155	245.66937551865
2	431	893.076887249064	240.94824496802
2	435	896.519504200811	228.25474297805
2	436	897.030478935717	215.19915102527
2	442	908.794543489865	206.35951358388
2	443	916.773657809412	203.50536558628
2	446	917.31630486775	194.10051726556
2	451	927.238101535906	202.08863479673
2	456	933.283150532925	199.41471982232
2	457	935.868357708976	200.74086064223
2	460	946.926592132232	211.59258607187
2	461	946.965088010447	207.15248556308
2	467	962.872326662452	207.66454195874
2	470	963.741477027632	206.17613248429
2	471	964.080480553121	205.73695960189
2	472	965.69234879027	199.48117263371
2	473	976.099450995539	192.45315967805
2	478	981.680657874195	183.37600399528
2	479	987.736627637711	181.60650452289
2	480	988.228727074067	176.36972813681
2	481	989.405953330232	173.01437044337
2	482	990.303399958626	171.02572229346
2	483	990.35006443804	170.28850112846
2	484	996.392833095054	172.96400739308
2	487	999.295937879342	175.75244946688
2	490	1002.639530148489	159.96388084153
2	491	1007.441108692604	164.26913827083
2	494	1011.249454557833	147.96435983574
2	497	1016.95722733819	136.89386538036
2	498	1020.891677787327	136.41030171668
2	505	1033.151866109915	139.54975591933
2	508	1039.33904608655	137.49415696073
2	514	1044.306642205411	127.25281703675
2	515	1044.528474664798	123.01946537081
2	516	1051.068720465996	129.44516148015
2	519	1052.336325820459	121.57834519153
2	522	1053.079245161368	121.17929488903
2	528	1064.5818755968	116.32232739054
2	534	1067.814272071191	104.24672602259
2	537	1069.166819781082	89.757732978813
2	540	1072.633723014124	91.263502092658
2	541	1072.949320529828	74.894596688366
2	542	1073.691876079894	72.923077257971
2	546	1076.650206040582	65.198170542145
2	560	1111.670488010112	83.375343082556
2	561	1115.112622540463	85.245001989955
2	562	1118.032903850974	83.445187664556
2	563	1119.824324263833	78.590699645627
2	564	1123.830724331766	80.798285241289
2	567	1134.332510893268	82.315430862179
2	570	1143.284900063652	90.594529274756
2	571	1144.888911399807	89.132933654161
2	574	1159.794521888311	97.163199153974
2	581	1166.854622840475	98.924572049325
2	582	1168.53286125139	98.155744758073
2	583	1172.869868898479	97.594640769798
2	584	1175.822773915218	97.372174225691
2	585	1178.914079628568	81.379974116379
2	586	1181.981506388034	76.961850899159
2	587	1187.052251346297	52.774286783717
2	592	1195.695363147927	55.846811294401
2	595	1197.657673199981	48.588632302461
2	614	1222.625215117078	59.04677269759
2	615	1230.027763949943	40.428368361957
2	616	1230.653188860247	36.147381457065
2	627	1238.207435188398	37.675339646119
2	628	1243.237860753512	41.662515264815
2	629	1248.274097448734	33.942392980588
2	640	1259.703174289046	27.534160135938
2	644	1269.548166747897	21.205982728233
2	684	1384.625537438111	133.27753954089
2	685	1387.658918553197	134.27274588544
2	686	1393.768152699836	131.81056944241
2	700	1414.420529628598	142.48239677481
2	701	1421.175952651652	143.70877571691
2	702	1423.286791822357	143.2250631897
2	712	1448.152347399375	133.51028686079
2	715	1453.496576130315	107.38603361427
2	716	1454.869395455399	86.979523256397
2	717	1456.042702997332	79.040453422815
2	718	1456.927510268838	76.150404398411
2	724	1463.441172229488	67.560419390049
2	727	1467.705925279823	65.568478303085
2	730	1471.477033422002	65.178593528884
2	731	1473.093701586308	63.864771876278
2	748	1526.856329455015	89.333826892103
2	749	1527.348567674597	83.599214825203
2	750	1528.335917915007	84.238114616567
2	751	1536.010396814655	84.805612659396
2	752	1541.355105174209	84.379364866465
2	753	1542.92927015142	80.123492517239
2	754	1548.740898478864	85.008920897603
2	755	1558.927937150264	89.416775525002
2	758	1563.713883033124	88.504160935417
2	759	1569.652387555208	92.63271677201
2	762	1574.025412665779	58.964656097124
2	765	1575.164653161763	58.685585126675
2	768	1578.599152080533	15.055732909779
2	769	1580.985640524418	10.953135305068
2	775	1597.112359049288	19.323394823458
2	776	1598.25017315955	16.372553564491
2	782	1615.481573476563	16.467907332396
2	783	1624.122178399805	15.310382553898
2	788	1626.958866945244	1.776382581476
2	789	1627.005229469245	0.352639698394
2	797	1643.263339902941	2.572315757696
2	800	1649.227650223683	6.650076624066
2	801	1649.474488539344	3.141737878884
2	830	1708.825218928659	55.499719322782
2	835	1720.540762864798	57.163041414817
2	840	1727.98495585592	64.032501573969
2	841	1728.402426619815	56.675885490727
2	844	1745.251246199604	69.991227679052
2	849	1749.923726812588	71.142657828076
2	852	1752.509291846308	47.457033229368
2	855	1757.492008335538	51.265554819035
2	856	1759.118658514384	48.004883682514
2	857	1761.492267715146	46.629517449646
2	858	1764.173548119286	43.109498290696
2	859	1764.24019540472	37.07007027434
2	889	1824.690393481762	73.977645172432
2	892	1830.676078565576	75.368124093246
2	893	1834.687160814894	69.13205635639
2	894	1835.642369273646	69.595332319076
2	895	1837.730171071575	67.700494674053
2	898	1843.928829642744	71.666172543316
2	899	1846.461283598879	72.940556946891
2	900	1854.943773298131	61.476940222796
2	903	1860.567715721695	56.382401661359
2	904	1861.150156242332	53.755320723411
2	919	1885.620901843238	60.618731337025
2	920	1887.717125698597	47.591915876154
2	921	1889.650301790284	32.706447745699
2	926	1898.420745029695	36.340412397458
2	927	1901.079208898041	34.710851727281
2	928	1904.592607103873	37.6246185526
2	929	1905.963416307211	35.299268221904
2	930	1907.148021862247	26.766067886612
2	931	1911.602540411512	27.839375159404
2	939	1930.710396213638	34.650472439868
2	940	1932.412696108903	16.718871530389
2	945	1941.575098343792	21.792506099575
2	949	1951.812525941378	17.139183390523
2	955	1994.432029980225	49.157614096859
2	958	1997.696839637261	32.554047178946
2	959	1998.389360831525	23.002834769087
2	960	2016.960332997395	21.940861129761
2	980	2049.407223529566	13.119003073699
2	981	2050.50767600942	12.186354165924
2	985	2056.582869179785	8.218085629526
2	986	2063.196043022564	14.596749750645
2	987	2063.354592130143	10.840505682001
2	1000	2079.744229013229	14.140074405396
2	1001	2092.004849839895	24.648293698673
2	1004	2104.982861984686	36.69411290864
2	1010	2122.711091799722	16.628669925779
2	1011	2123.907938080744	14.08557300491
2	1017	2139.235635292227	2.45945731594
2	1024	2146.119464018594	4.47264875945
2	1044	2177.295625170733	28.109235572834
2	1045	2187.917397099747	38.160741329499
2	1046	2189.27948881702	32.121895687904
2	1047	2191.554294524939	28.686136154734
2	1060	2218.438489752932	43.521915039926
2	1063	2225.777353041171	32.881989425166
2	1066	2230.821635012554	28.928782104157
2	1067	2231.903186343579	28.207852535759
2	1082	2268.174589916492	57.321479034253
2	1083	2270.684820263075	47.919117495966
2	1084	2271.428814297343	40.644210652274
2	1090	2283.304677296775	45.581481474056
2	1091	2286.140777345335	38.114497059205
2	1096	2292.375117480411	31.758526749165
2	1115	2325.592374816954	51.708501142599
2	1116	2326.027932073323	48.865194102702
2	1119	2330.721914236626	41.285047034944
2	1120	2333.021361354688	43.570494167252
2	1123	2333.614060942547	36.965382286892
2	1124	2334.585607334339	32.945312490997
2	1125	2337.457809024257	30.797198749344
2	1128	2344.479188317497	25.072537782097
2	1129	2346.684113516141	20.501437344388
2	1130	2348.527357714045	15.477468179408
2	1131	2349.897814654353	11.691547787706
2	1134	2351.75514422108	0.321479967108
2	1137	2361.105444902479	5.297604192108
2	1140	2381.725175885524	5.160249489292
2	1143	2385.983775017499	2.475082886452
2	1151	2402.0631056489	10.346893761137
2	1152	2407.42465717697	9.817390611127
2	1157	2410.001601878106	0.987025350834
2	1158	2412.250829588737	2.288389238592
2	1163	2419.529752116882	4.971833374721
2	1164	2421.733934008991	3.979981240426
2	1173	2434.029697589677	1.116447109285
2	1179	2456.51472548801	1.086128000203
2	1184	2463.093277977468	1.143423652515
2	1204	2496.687593661022	28.482759039404
2	1205	2496.805500485099	28.192459540899
2	1206	2498.175476035367	26.731571320446
3	179	362.12579187106	74.174358485651
3	182	364.465299683042	64.946076932781
3	183	370.99334836928	69.506384750482
3	186	378.573339297394	75.323849804446
3	187	383.301930694201	76.849372760687
3	188	384.918399766907	78.165823851284
3	189	386.392351202405	69.932640894386
3	192	401.012597874544	80.785355359285
3	193	401.663955039001	79.553112787832
3	196	410.904298109312	76.775074213254
3	197	413.740365782968	51.472064227916
3	200	417.38804701297	44.848501706323
3	207	425.234959944331	35.677175246831
3	208	425.483456634677	18.460405288165
3	209	425.905138248475	11.087094155603
3	210	428.953788760481	10.039327264645
3	211	429.695530372115	7.230358576451
3	216	438.458555241731	14.064688096534
3	219	439.493475776438	6.689039025862
3	222	440.283999095841	2.814153285863
3	283	544.735899371971	105.29830657182
3	284	549.350355305664	109.85571502264
3	285	553.027137205345	105.927361016
3	286	557.500700806264	107.491700056
3	289	561.823814116991	109.83695189742
3	297	599.749355001548	139.33621855376
3	300	602.66352259212	126.37056303558
3	303	606.148648363705	128.32341497309
3	332	674.695888928917	196.7169303238
3	333	678.599902078272	191.91281239641
3	336	685.174601737946	189.35347855613
3	339	699.160061143737	196.81523926979
3	357	731.601877688817	219.99857973423
3	366	744.064025504931	227.5762957624
3	367	744.432339994137	226.83364438448
3	381	781.502325577946	258.09713887725
3	382	782.774521582291	254.55758174337
3	385	784.984319163615	251.57951821561
3	386	790.676793702657	256.90041336206
3	389	805.951733413818	266.33683632148
3	392	810.245933246327	248.52080188807
3	405	823.890666919179	261.85967254096
3	406	829.194279336221	256.59051844145
3	407	832.563644627067	230.94105577502
3	408	842.579745338621	239.44479506801
3	413	848.745032056812	239.54414207157
3	414	849.079317562971	232.49539925825
3	415	858.225481641404	241.02342640492
3	428	888.381421901937	263.17296981213
3	429	889.137632248781	241.80667592827
3	430	893.000331839155	240.87168955811
3	431	893.076887249064	232.34674231662
3	434	894.475463623323	226.21070240056
3	435	896.519504200811	214.68817629036
3	436	897.030478935717	210.63939887222
3	439	903.315696396861	200.88066649088
3	442	908.794543489865	195.52625126674
3	443	916.773657809412	193.55787020722
3	446	917.31630486775	192.16683812857
3	451	927.238101535906	193.3696708253
3	456	933.283150532925	198.15565346618
3	457	935.868357708976	200.53435164861
3	460	946.926592132232	207.11398968487
3	461	946.965088010447	202.05642931843
3	464	952.891107882924	197.68332317921
3	467	962.872326662452	205.30698211911
3	470	963.741477027632	205.3979560764
3	471	964.080480553121	197.86930439656
3	472	965.69234879027	182.04605747278
3	473	976.099450995539	177.79479711663
3	478	981.680657874195	175.55053475937
3	479	987.736627637711	175.87762870046
3	480	988.228727074067	171.83714418721
3	481	989.405953330232	170.12827566507
3	482	990.303399958626	170.24183664905
3	483	990.35006443804	166.92123873607
3	484	996.392833095054	172.84934468259
3	487	999.295937879342	156.62028857238
3	490	1002.639530148489	159.46755972671
3	491	1007.441108692604	144.15601397051
3	494	1011.249454557833	131.1860926
3	497	1016.95722733819	132.47585126754
3	498	1020.891677787327	127.28956759674
3	505	1033.151866109915	131.30697698409
3	508	1039.33904608655	133.24218759462
3	511	1041.613226113223	124.55940094456
3	514	1044.306642205411	122.79763291142
3	515	1044.528474664798	122.90491567895
3	516	1051.068720465996	120.31073983707
3	519	1052.336325820459	120.43637554812
3	522	1053.079245161368	116.79741366993
3	527	1063.773481805922	115.51393359966
3	528	1064.5818755968	105.17236642098
3	533	1067.172640635718	103.60509458712
3	534	1067.814272071191	88.405185268922
3	537	1069.166819781082	87.796598859616
3	540	1072.633723014124	74.578999172662
3	541	1072.949320529828	72.180521707905
3	542	1073.691876079894	62.698837967855
3	545	1076.378936610102	64.926901111665
3	546	1076.650206040582	55.395755947114
3	559	1110.688728861509	82.393583933953
3	560	1111.670488010112	81.802867459604
3	561	1115.112622540463	80.524906354045
3	562	1118.032903850974	76.799279232768
3	563	1119.824324263833	76.791885173356
3	564	1123.830724331766	71.813644300677
3	567	1134.332510893268	81.642140104372
3	570	1143.284900063652	87.528922318006
3	571	1144.888911399807	82.25758866547
3	574	1159.794521888311	94.77580101199
3	577	1162.160692431691	95.769152569888
3	580	1163.602580507793	95.672529716643
3	581	1166.854622840475	96.477506347158
3	582	1168.53286125139	93.257633122709
3	583	1172.869868898479	94.419269208952
3	584	1175.822773915218	78.288668403029
3	585	1178.914079628568	73.894424139693
3	586	1181.981506388034	47.703541825454
3	587	1187.052251346297	47.203699492771
3	592	1195.695363147927	46.626322250407
3	595	1197.657673199981	36.051575728203
3	613	1218.585401987639	55.006959568151
3	614	1222.625215117078	33.025819529092
3	615	1230.027763949943	35.521956546761
3	616	1230.653188860247	34.633901368487
3	626	1237.945170654448	37.413075112169
3	627	1238.207435188398	36.632089699701
3	628	1243.237860753512	28.906156285366
3	629	1248.274097448734	31.656493521237
3	636	1253.274246091323	22.211947132505
3	639	1254.855384945465	22.686370792357
3	640	1259.703174289046	24.293948553746
3	643	1264.540410549405	16.198226529741
3	644	1269.548166747897	21.030907590633
3	681	1379.07827706977	127.73027917255
3	684	1384.625537438111	131.23936477035
3	685	1387.658918553197	125.70133529577
3	686	1393.768152699836	123.73688031632
3	695	1409.146102072783	137.20796921899
3	700	1414.420529628598	136.95335269386
3	701	1421.175952651652	141.11422401899
3	702	1423.286791822357	109.23016544847
3	705	1427.406355439454	112.76429490086
3	712	1448.152347399375	102.04180488333
3	715	1453.496576130315	85.606703931313
3	716	1454.869395455399	77.867145880882
3	717	1456.042702997332	75.265597126905
3	718	1456.927510268838	63.008778850778
3	721	1457.856414360615	61.975661521176
3	724	1463.441172229488	61.30372525275
3	727	1467.705925279823	61.407485386705
3	730	1471.477033422002	62.248103711972
3	731	1473.093701586308	62.899050491772
3	744	1515.446425366435	91.56833746373
3	747	1524.276696358547	86.754193795635
3	748	1526.856329455015	83.106976605621
3	749	1527.348567674597	83.250764376157
3	750	1528.335917915007	77.131133759748
3	751	1536.010396814655	79.034656506911
3	752	1541.355105174209	78.549327540028
3	753	1542.92927015142	79.197292570159
3	754	1548.740898478864	79.229736853602
3	755	1558.927937150264	83.718215052557
3	758	1563.713883033124	86.694212249926
3	759	1569.652387555208	54.591630986553
3	762	1574.025412665779	57.546344630691
3	765	1575.164653161763	11.621233991009
3	768	1578.599152080533	8.566646861183
3	769	1580.985640524418	5.927273143955
3	774	1594.122797876945	16.333833651115
3	775	1597.112359049288	15.234739454229
3	776	1598.25017315955	7.74974837992
3	779	1607.242700572452	8.229034428285
3	782	1615.481573476563	6.669777630656
3	785	1625.182484363768	0
3	788	1626.958866945244	0.306277174393
3	794	1641.971714461281	1.280690316036
3	797	1643.263339902941	0.685766303324
3	800	1649.227650223683	2.894899563223
3	829	1706.559923909934	53.234424304057
3	830	1708.825218928659	45.447497478678
3	835	1720.540762864798	56.588308582847
3	840	1727.98495585592	56.258414726832
3	841	1728.402426619815	53.142408099263
3	844	1745.251246199604	66.470177215092
3	849	1749.923726812588	44.871468195648
3	852	1752.509291846308	46.282838329805
3	855	1757.492008335538	46.378233503668
3	856	1759.118658514384	44.255908248884
3	857	1761.492267715146	40.428217886556
3	858	1764.173548119286	37.003422988906
3	859	1764.24019540472	28.427654532745
3	864	1766.820431146831	20.250919456351
3	883	1811.337143597389	63.558144706994
3	886	1822.260234543724	71.547486234394
3	889	1824.690393481762	69.382439009432
3	892	1830.676078565576	65.120974107072
3	893	1834.687160814894	68.640123860324
3	894	1835.642369273646	65.612692876124
3	895	1837.730171071575	65.467513972147
3	898	1843.928829642744	70.408102990756
3	899	1846.461283598879	52.994450523544
3	900	1854.943773298131	50.758459237795
3	903	1860.567715721695	53.172880202774
3	904	1861.150156242332	45.759299118174
3	913	1875.636473536022	53.177822810537
3	918	1884.150125294606	59.147954788393
3	919	1885.620901843238	45.495692020795
3	920	1887.717125698597	30.773271654012
3	921	1889.650301790284	27.569969158047
3	926	1898.420745029695	32.052387858935
3	927	1901.079208898041	34.111220346768
3	928	1904.592607103873	33.928459018566
3	929	1905.963416307211	25.581462331576
3	930	1907.148021862247	23.384856610139
3	931	1911.602540411512	15.874866397713
3	938	1926.9451836353	30.88525986153
3	939	1930.710396213638	15.016571635124
3	940	1932.412696108903	12.630103864686
3	945	1941.575098343792	16.718685673208
3	948	1951.015720414992	16.342377864137
3	949	1951.812525941378	16.82901135989
3	954	1981.967974309702	36.693558426336
3	955	1994.432029980225	29.28923752191
3	958	1997.696839637261	22.310313574823
3	959	1998.389360831525	3.369888963891
3	965	2032.527073200167	0
3	968	2035.054780607401	0.715668117974
3	971	2038.035677783537	1.74745732767
3	980	2049.407223529566	11.08590168607
3	981	2050.50767600942	10.362809015189
3	984	2052.867863177058	4.503079626799
3	985	2056.582869179785	7.983575907866
3	986	2063.196043022564	10.681956574422
3	999	2077.403838106564	11.799683498731
3	1000	2079.744229013229	12.387672872007
3	1001	2092.004849839895	23.716100763849
3	1004	2104.982861984686	10.989882409231
3	1009	2113.85636455602	7.773942682077
3	1010	2122.711091799722	12.888726723888
3	1016	2136.776177976287	0
3	1019	2141.646815259144	0
3	1024	2146.119464018594	2.103032682352
3	1035	2165.414614116614	21.222421702657
3	1040	2169.382196989837	20.718923134652
3	1043	2176.336992924459	27.15060332656
3	1044	2177.295625170733	27.538969400485
3	1045	2187.917397099747	30.759803970631
3	1046	2189.27948881702	26.411330446815
3	1047	2191.554294524939	25.513917103713
3	1050	2194.838281862067	27.671710608265
3	1059	2217.304522373277	42.387947660271
3	1060	2218.438489752932	25.543126136927
3	1063	2225.777353041171	23.884500132774
3	1066	2230.821635012554	27.126301204734
3	1067	2231.903186343579	22.034843756491
3	1079	2264.72266276318	53.869551880941
3	1082	2268.174589916492	45.408887149383
3	1083	2270.684820263075	39.900216618006
3	1084	2271.428814297343	38.546730665208
3	1089	2282.18778490581	44.464589083091
3	1090	2283.304677296775	35.278397010645
3	1091	2286.140777345335	25.524186614089
3	1096	2292.375117480411	25.955793697475
3	1112	2316.260749740179	42.376876065824
3	1115	2325.592374816954	48.429636846333
3	1116	2326.027932073323	36.591064871641
3	1119	2330.721914236626	41.27104704919
3	1120	2333.021361354688	36.372682699033
3	1123	2333.614060942547	31.973766099205
3	1124	2334.585607334339	27.924997059426
3	1125	2337.457809024257	18.051158488857
3	1128	2344.479188317497	18.296512145744
3	1129	2346.684113516141	13.634223981504
3	1130	2348.527357714045	10.321090847398
3	1133	2351.433664253972	0
3	1136	2355.807840710371	0
3	1139	2376.564926396232	0
3	1142	2383.508692131047	0
3	1150	2399.063821270123	7.34760938236
3	1151	2402.0631056489	4.455839083057
3	1154	2409.014576527272	0
3	1157	2410.001601878106	0.039161527961
3	1160	2414.557918742161	0
3	1163	2419.529752116882	1.775799348317
3	1169	2431.646485998646	4.948982518346
3	1172	2433.261597861909	0.348347381517
3	1178	2455.428597487807	0
3	1181	2461.949854324953	0
3	1184	2463.093277977468	0.87439050966
3	1187	2466.888325681504	3.133685477049
3	1196	2473.665728487711	5.828626195266
3	1203	2495.560898536786	27.356063915168
3	1204	2496.687593661022	28.074552716822
3	1205	2496.805500485099	25.361595770178
3	1206	2498.175476035367	23.40281917108
4	181	362.268301555052	11
4	185	372.539545306647	10
4	191	389.5577846975	7
4	199	414.818044092872	5
4	202	418.914461495836	5
4	204	422.465171795664	6
4	206	424.393867145197	7
4	213	432.804436750576	3
4	215	437.469845809978	4
4	218	439.43759280015	4
4	221	439.494640283028	4
4	224	447.099776189344	4
4	226	450.009000750263	5
4	234	460.413136447785	6
4	240	476.292959556537	7
4	242	477.825233390619	8
4	244	477.978958605117	9
4	250	486.687089681864	10
4	252	495.821123181817	11
4	256	502.344821873946	12
4	259	511.603297954585	13
4	261	516.487729742531	14
4	263	517.598695609658	15
4	269	523.405186700692	16
4	272	528.216939838918	17
4	276	533.404800948007	18
4	278	533.776380340601	19
4	281	539.614897092334	20
4	288	561.725131358257	18
4	291	562.030994378217	18
4	299	601.622588852045	19
4	312	616.583918304718	19
4	314	617.202055236483	20
4	316	625.20845208981	21
4	318	647.330956320507	22
4	323	652.128642281043	23
4	329	660.730144932448	24
4	331	668.264761222758	25
4	335	681.831327910446	25
4	347	713.268292223129	25
4	353	723.215787602191	26
4	355	725.14946673918	27
4	359	733.868430710604	28
4	361	735.127497066748	29
4	363	735.334006060362	30
4	371	755.207784703715	30
4	373	757.56534454334	31
4	375	758.343520951228	32
4	377	766.211176156565	33
4	384	783.646291317493	33
4	388	798.304653878913	32
4	396	816.391582886859	32
4	398	819.277677665164	33
4	400	820.061563309576	34
4	402	823.42882570197	35
4	404	823.543488412463	36
4	410	842.67564930696	34
4	412	843.171970421776	35
4	424	880.063361957828	33
4	426	884.481376070648	34
4	441	906.096858491925	30
4	445	917.053825168664	29
4	448	921.509009293989	29
4	450	921.623558985843	30
4	453	930.757980628926	30
4	455	931.899950272343	31
4	459	936.281831491434	30
4	466	959.409509175819	29
4	469	963.567546048599	29
4	475	979.409086802269	26
4	477	981.370220921466	27
4	486	998.054723841462	21
4	489	1000.768798821923	21
4	493	1010.993038112039	20
4	496	1011.452035498437	20
4	500	1021.254450093468	19
4	502	1028.295144927556	20
4	504	1029.867620550508	21
4	507	1034.587716186418	21
4	513	1043.032439090477	21
4	518	1052.017080031089	19
4	521	1052.690370788896	19
4	526	1062.631322734337	19
4	532	1066.391539861803	19
4	536	1067.93005079115	19
4	539	1070.377116493317	19
4	552	1097.534105512189	16
4	555	1105.019655488875	17
4	566	1134.27796456258	13
4	569	1139.848551853526	13
4	573	1149.06904089752	12
4	589	1189.599395587986	5
4	591	1194.505807403182	6
4	594	1196.01928749176	6
4	597	1200.532095542279	6
4	606	1214.331704468146	7
4	610	1216.617603927497	8
4	620	1232.169014153108	6
4	625	1235.4092257353	7
4	633	1248.517259157264	5
4	635	1251.34799789722	6
4	646	1270.031272383515	5
4	648	1271.93813285379	6
4	654	1280.061728632661	7
4	659	1314.056626373889	8
4	661	1314.642060538589	9
4	672	1346.110542516041	10
4	678	1367.889872199002	11
4	680	1377.002249574517	12
4	683	1380.777105870427	13
4	688	1393.91873141806	11
4	692	1402.137446976738	12
4	694	1406.298439893118	13
4	697	1409.22892971003	14
4	699	1410.194651094536	15
4	707	1437.522502562912	13
4	709	1443.749352849394	14
4	711	1444.09780329844	15
4	714	1451.204784155259	15
4	723	1462.805777634181	12
4	726	1463.731977581261	12
4	729	1469.511161625262	12
4	735	1477.019670783198	11
4	743	1515.060756568655	12
4	757	1563.543419170754	5
4	761	1570.03250521935	4
4	764	1575.058367380463	4
4	767	1577.78896422583	4
4	771	1581.877619595059	3
4	781	1608.811795845907	2
4	785	1625.182484363768	1
4	787	1626.652589770851	2
4	793	1640.691024145245	1
4	796	1642.577573599617	2
4	799	1646.33275066046	2
4	805	1653.325499605877	1
4	809	1663.377721449981	2
4	811	1663.952454281951	3
4	816	1671.726541129088	4
4	818	1675.260018520552	5
4	820	1678.781068984512	6
4	826	1705.05225861694	7
4	828	1706.226453516503	8
4	832	1711.11377483187	8
4	834	1714.8627502655	9
4	837	1721.06404982859	9
4	839	1727.17012513038	10
4	843	1735.812540871975	9
4	846	1746.56951169048	9
4	848	1747.778998890395	10
4	851	1750.71274830933	10
4	854	1755.30795447233	10
4	861	1765.555104458504	6
4	866	1770.029676397522	7
4	868	1772.262657099428	8
4	876	1793.466833075335	9
4	879	1804.185314060336	10
4	882	1807.394835518921	11
4	888	1822.458650725485	12
4	891	1825.002170506213	12
4	897	1840.125209822443	9
4	902	1856.943854044585	7
4	908	1866.36835717076	6
4	910	1866.967988551273	7
4	912	1870.664148085307	8
4	917	1883.763165252108	9
4	923	1895.727674013799	7
4	925	1896.05992377377	8
4	933	1915.693824578514	3
4	937	1924.856412670584	4
4	942	1934.673342550855	3
4	944	1934.983514581488	4
4	953	1975.386526062438	3
4	957	1995.019471867634	3
4	965	2032.527073200167	1
4	973	2038.321321843496	2
4	975	2040.144866994231	3
4	977	2048.364783550259	4
4	979	2048.599293271919	5
4	991	2065.604154607833	1
4	995	2067.356556141222	2
4	997	2068.288749076046	3
4	1003	2093.992979575455	2
4	1006	2106.082421873943	2
4	1016	2136.776177976287	1
4	1019	2141.646815259144	1
4	1021	2144.016431336242	2
4	1023	2144.192192413957	3
4	1026	2148.663273855185	3
4	1028	2149.186389597899	4
4	1032	2157.157593129116	5
4	1034	2162.868158370205	6
4	1037	2166.040377421226	7
4	1054	2203.69533380782	4
4	1056	2209.868342587088	5
4	1058	2210.853110882239	6
4	1062	2222.765702767109	6
4	1065	2230.784603645069	6
4	1071	2237.723195822719	5
4	1073	2248.02628028613	6
4	1077	2260.616590731246	7
4	1081	2266.419323782936	8
4	1086	2273.883873674355	6
4	1093	2289.436867201682	5
4	1095	2289.450867187436	6
4	1102	2301.640294843342	6
4	1107	2306.660610274913	7
4	1114	2319.4066505354	8
4	1118	2326.182676171753	7
4	1122	2333.049889534637	6
4	1127	2338.206266866647	4
4	1133	2351.433664253972	1
4	1136	2355.807840710371	1
4	1139	2376.564926396232	1
4	1142	2383.508692131047	1
4	1147	2391.716211887763	1
4	1149	2397.607266565843	2
4	1154	2409.014576527272	1
4	1156	2409.962440350145	2
4	1160	2414.557918742161	1
4	1162	2417.753952768565	2
4	1168	2426.6975034803	1
4	1178	2455.428597487807	1
4	1181	2461.949854324953	1
4	1183	2462.218887467808	2
4	1191	2468.204834621618	2
4	1193	2468.6130409442	3
4	1195	2471.443904714921	4
4	1198	2474.772656864287	5
4	1202	2490.223068541484	6
4	1208	2498.954044201238	4
5	195	407.023051346512	1
5	228	451.986862219571	1
5	230	452.241254781419	2
5	232	456.269153484022	3
5	236	462.788085686888	4
5	238	471.750175842528	5
5	247	485.838955213216	5
5	265	519.115936014759	2
5	267	522.251961692532	3
5	274	530.364669045925	3
5	293	572.603760894772	1
5	295	587.239462929909	2
5	302	603.134950270608	1
5	305	609.200889985245	1
5	307	610.173953034799	2
5	309	612.980541173579	3
5	321	652.09946073414	2
5	326	654.711139710773	2
5	338	686.391080063499	1
5	341	702.435029905981	1
5	343	711.955453553369	2
5	345	712.551934658254	3
5	351	721.347548185523	2
5	365	739.812602447366	1
5	369	744.908658692014	1
5	379	772.705257103947	2
5	391	806.13012311482	1
5	394	811.858998937252	1
5	417	863.28509472209	1
5	419	867.68999344566	2
5	421	876.537854406773	3
5	433	893.602110190585	1
5	438	901.844889125823	1
5	463	948.259548206261	1
5	510	1041.233624618206	1
5	524	1055.755977745646	1
5	530	1065.018720876321	1
5	544	1075.275228128681	1
5	548	1078.450599689527	1
5	550	1093.025662129838	2
5	557	1106.189148516697	2
5	576	1161.606097471778	1
5	579	1163.578442419488	1
5	599	1201.575345488697	1
5	601	1205.21468365384	2
5	603	1209.074318248075	3
5	608	1216.39044955247	3
5	618	1231.062298958818	1
5	622	1234.247326850965	2
5	631	1248.342184019664	1
5	638	1253.386172667756	1
5	642	1261.957583257431	1
5	650	1277.467176934737	1
5	652	1278.936722892472	2
5	656	1306.576914852068	3
5	664	1323.736502562113	2
5	666	1334.919738381796	3
5	670	1345.193422541783	2
5	674	1347.404884195096	3
5	690	1395.880752839439	1
5	704	1423.878087902705	1
5	720	1456.975740307744	1
5	733	1475.209722097707	1
5	737	1478.042304220319	2
5	739	1491.383258494281	3
5	746	1516.479068035088	1
5	773	1590.50042477963	1
5	778	1599.013666144167	1
5	791	1631.434037847915	1
5	803	1650.493728198422	1
5	807	1658.593476369919	2
5	813	1665.372692648625	3
5	822	1681.278513467016	3
5	863	1766.04703695457	1
5	870	1773.520726651988	1
5	872	1779.875668708269	2
5	874	1781.162383615031	3
5	885	1815.390857124158	1
5	906	1862.080332632237	1
5	915	1880.381953975635	1
5	935	1919.782592244217	1
5	947	1945.274415883366	1
5	951	1965.142792458315	1
5	962	2029.457987501145	1
5	967	2034.339112489427	1
5	970	2036.288220455867	1
5	983	2052.514086448142	1
5	989	2064.672210610458	1
5	993	2066.987813455407	2
5	1008	2109.822365075834	1
5	1013	2125.829693711752	1
5	1030	2149.756655770248	1
5	1039	2167.166571253802	1
5	1042	2174.916574713006	1
5	1049	2192.895363616005	1
5	1052	2201.892852908397	1
5	1069	2232.882083632135	1
5	1075	2259.340022759345	2
5	1088	2277.162737970621	1
5	1098	2296.648678655655	1
5	1100	2298.575357641728	2
5	1104	2303.500581520958	3
5	1109	2307.262137981784	3
5	1145	2388.40867807511	1
5	1166	2422.686534544323	1
5	1171	2432.913250480392	1
5	1175	2438.546595932053	1
5	1186	2463.754640204455	1
5	1189	2467.837102292445	1
5	1200	2475.119593842137	1
6	195	407.023051346512	0
6	196	410.904298109312	0
6	228	451.986862219571	0
6	230	452.241254781419	1
6	232	456.269153484022	2
6	236	462.788085686888	3
6	238	471.750175842528	4
6	245	478.576332251319	4
6	247	485.838955213216	4
6	248	486.465028036337	4
6	253	496.651137362596	3
6	254	497.400295163208	2
6	257	505.851151541061	1
6	265	519.115936014759	1
6	267	522.251961692532	2
6	270	525.164312777943	2
6	274	530.364669045925	2
6	279	535.206963799844	2
6	282	544.663767639498	1
6	283	544.735899371971	0
6	293	572.603760894772	0
6	295	587.239462929909	1
6	296	596.056504434771	1
6	297	599.749355001548	0
6	302	603.134950270608	0
6	303	606.148648363705	0
6	305	609.200889985245	0
6	307	610.173953034799	1
6	309	612.980541173579	2
6	310	613.179197515553	2
6	319	647.867053368348	1
6	321	652.09946073414	1
6	324	653.857891943872	1
6	326	654.711139710773	1
6	327	655.741422846192	1
6	332	674.695888928917	0
6	338	686.391080063499	0
6	339	699.160061143737	0
6	341	702.435029905981	0
6	343	711.955453553369	1
6	345	712.551934658254	2
6	348	715.090149910329	2
6	349	717.812561916438	1
6	351	721.347548185523	1
6	356	726.772149034689	1
6	357	731.601877688817	0
6	365	739.812602447366	0
6	366	744.064025504931	0
6	369	744.908658692014	0
6	379	772.705257103947	1
6	380	773.474394597241	1
6	381	781.502325577946	0
6	391	806.13012311482	0
6	392	810.245933246327	0
6	394	811.858998937252	0
6	405	823.890666919179	0
6	417	863.28509472209	0
6	419	867.68999344566	1
6	421	876.537854406773	2
6	422	877.266037378353	2
6	427	885.426364222343	1
6	428	888.381421901937	0
6	433	893.602110190585	0
6	434	894.475463623323	0
6	438	901.844889125823	0
6	439	903.315696396861	0
6	463	948.259548206261	0
6	464	952.891107882924	0
6	510	1041.233624618206	0
6	511	1041.613226113223	0
6	524	1055.755977745646	0
6	527	1063.773481805922	0
6	530	1065.018720876321	0
6	533	1067.172640635718	0
6	544	1075.275228128681	0
6	545	1076.378936610102	0
6	548	1078.450599689527	0
6	550	1093.025662129838	1
6	553	1103.869158250679	1
6	557	1106.189148516697	1
6	558	1108.291222405611	1
6	559	1110.688728861509	0
6	576	1161.606097471778	0
6	577	1162.160692431691	0
6	579	1163.578442419488	0
6	580	1163.602580507793	0
6	599	1201.575345488697	0
6	601	1205.21468365384	1
6	603	1209.074318248075	2
6	604	1209.468063764085	2
6	608	1216.39044955247	2
6	611	1216.632831970754	2
6	612	1218.274360353394	1
6	613	1218.585401987639	0
6	618	1231.062298958818	0
6	622	1234.247326850965	1
6	623	1234.913012139115	1
6	626	1237.945170654448	0
6	631	1248.342184019664	0
6	636	1253.274246091323	0
6	638	1253.386172667756	0
6	639	1254.855384945465	0
6	642	1261.957583257431	0
6	643	1264.540410549405	0
6	650	1277.467176934737	0
6	652	1278.936722892472	1
6	656	1306.576914852068	2
6	657	1310.235915758151	2
6	662	1323.461152772078	1
6	664	1323.736502562113	1
6	666	1334.919738381796	2
6	667	1336.46779774021	2
6	668	1343.68060953137	1
6	670	1345.193422541783	1
6	674	1347.404884195096	2
6	675	1350.959421681849	2
6	676	1351.199216519649	1
6	681	1379.07827706977	0
6	690	1395.880752839439	0
6	695	1409.146102072783	0
6	704	1423.878087902705	0
6	705	1427.406355439454	0
6	720	1456.975740307744	0
6	721	1457.856414360615	0
6	733	1475.209722097707	0
6	737	1478.042304220319	1
6	739	1491.383258494281	2
6	740	1494.641953134777	2
6	741	1505.561987751426	1
6	744	1515.446425366435	0
6	746	1516.479068035088	0
6	747	1524.276696358547	0
6	773	1590.50042477963	0
6	774	1594.122797876945	0
6	778	1599.013666144167	0
6	779	1607.242700572452	0
6	791	1631.434037847915	0
6	794	1641.971714461281	0
6	803	1650.493728198422	0
6	807	1658.593476369919	1
6	813	1665.372692648625	2
6	814	1668.014931068093	2
6	822	1681.278513467016	2
6	823	1687.7132318898	2
6	824	1694.923224576275	1
6	829	1706.559923909934	0
6	863	1766.04703695457	0
6	864	1766.820431146831	0
6	870	1773.520726651988	0
6	872	1779.875668708269	1
6	874	1781.162383615031	2
6	877	1794.885684893276	2
6	880	1806.786972305305	1
6	883	1811.337143597389	0
6	885	1815.390857124158	0
6	886	1822.260234543724	0
6	906	1862.080332632237	0
6	913	1875.636473536022	0
6	915	1880.381953975635	0
6	918	1884.150125294606	0
6	935	1919.782592244217	0
6	938	1926.9451836353	0
6	947	1945.274415883366	0
6	948	1951.015720414992	0
6	951	1965.142792458315	0
6	954	1981.967974309702	0
6	962	2029.457987501145	0
6	963	2031.712297401533	0
6	967	2034.339112489427	0
6	968	2035.054780607401	0
6	970	2036.288220455867	0
6	971	2038.035677783537	0
6	983	2052.514086448142	0
6	984	2052.867863177058	0
6	989	2064.672210610458	0
6	993	2066.987813455407	1
6	998	2070.463473500558	1
6	999	2077.403838106564	0
6	1008	2109.822365075834	0
6	1009	2113.85636455602	0
6	1013	2125.829693711752	0
6	1014	2133.203011687934	0
6	1030	2149.756655770248	0
6	1035	2165.414614116614	0
6	1039	2167.166571253802	0
6	1040	2169.382196989837	0
6	1042	2174.916574713006	0
6	1043	2176.336992924459	0
6	1049	2192.895363616005	0
6	1050	2194.838281862067	0
6	1052	2201.892852908397	0
6	1059	2217.304522373277	0
6	1069	2232.882083632135	0
6	1075	2259.340022759345	1
6	1078	2262.89403954024	1
6	1079	2264.72266276318	0
6	1088	2277.162737970621	0
6	1089	2282.18778490581	0
6	1098	2296.648678655655	0
6	1100	2298.575357641728	1
6	1104	2303.500581520958	2
6	1105	2304.099350370165	2
6	1109	2307.262137981784	2
6	1110	2313.546140803556	2
6	1111	2314.73854754134	1
6	1112	2316.260749740179	0
6	1145	2388.40867807511	0
6	1150	2399.063821270123	0
6	1166	2422.686534544323	0
6	1169	2431.646485998646	0
6	1171	2432.913250480392	0
6	1172	2433.261597861909	0
6	1175	2438.546595932053	0
6	1176	2443.607433324536	0
6	1186	2463.754640204455	0
6	1187	2466.888325681504	0
6	1189	2467.837102292445	0
6	1196	2473.665728487711	0
6	1200	2475.119593842137	0
6	1203	2495.560898536786	0
7	195	407.023051346512	12
7	228	451.986862219571	13
7	293	572.603760894772	14
7	302	603.134950270608	15
7	305	609.200889985245	16
7	338	686.391080063499	17
7	341	702.435029905981	18
7	365	739.812602447366	19
7	369	744.908658692014	20
7	391	806.13012311482	21
7	394	811.858998937252	22
7	417	863.28509472209	23
7	433	893.602110190585	24
7	438	901.844889125823	25
7	463	948.259548206261	26
7	510	1041.233624618206	27
7	524	1055.755977745646	28
7	530	1065.018720876321	29
7	544	1075.275228128681	30
7	548	1078.450599689527	31
7	576	1161.606097471778	32
7	579	1163.578442419488	33
7	599	1201.575345488697	34
7	618	1231.062298958818	35
7	631	1248.342184019664	36
7	638	1253.386172667756	37
7	642	1261.957583257431	38
7	650	1277.467176934737	39
7	690	1395.880752839439	40
7	704	1423.878087902705	41
7	720	1456.975740307744	42
7	733	1475.209722097707	43
7	746	1516.479068035088	44
7	773	1590.50042477963	45
7	778	1599.013666144167	46
7	863	1766.04703695457	47
7	870	1773.520726651988	48
7	885	1815.390857124158	49
7	906	1862.080332632237	50
7	915	1880.381953975635	51
7	935	1919.782592244217	52
7	947	1945.274415883366	53
7	951	1965.142792458315	54
7	967	2034.339112489427	55
7	970	2036.288220455867	56
7	983	2052.514086448142	57
7	1008	2109.822365075834	58
7	1030	2149.756655770248	59
7	1039	2167.166571253802	60
7	1042	2174.916574713006	61
7	1049	2192.895363616005	62
7	1052	2201.892852908397	63
7	1069	2232.882083632135	64
7	1088	2277.162737970621	65
7	1098	2296.648678655655	66
7	1171	2432.913250480392	67
7	1186	2463.754640204455	68
7	1189	2467.837102292445	69
7	1200	2475.119593842137	70
8	195	407.023051346512	0
8	228	451.986862219571	0
8	245	478.576332251319	26.3350774699
8	248	486.465028036337	30.195874552315
8	253	496.651137362596	33.863051675708
8	254	497.400295163208	25.65011932068
8	257	505.851151541061	20.012196327845
8	270	525.164312777943	6.048376763184
8	279	535.206963799844	12.955002107312
8	282	544.663767639498	14.299098593573
8	293	572.603760894772	0
8	296	596.056504434771	8.817041504862
8	302	603.134950270608	0
8	305	609.200889985245	0
8	310	613.179197515553	3.005244480754
8	319	647.867053368348	34.886512194769
8	324	653.857891943872	1.758431209732
8	327	655.741422846192	1.030283135419
8	338	686.391080063499	0
8	341	702.435029905981	0
8	348	715.090149910329	3.13469635696
8	349	717.812561916438	5.260627258184
8	356	726.772149034689	5.424600849166
8	365	739.812602447366	0
8	369	744.908658692014	0
8	380	773.474394597241	0.769137493294
8	391	806.13012311482	0
8	394	811.858998937252	0
8	417	863.28509472209	0
8	422	877.266037378353	9.576043932693
8	427	885.426364222343	8.88850981557
8	433	893.602110190585	0
8	438	901.844889125823	0
8	463	948.259548206261	0
8	510	1041.233624618206	0
8	524	1055.755977745646	0
8	530	1065.018720876321	0
8	544	1075.275228128681	0
8	548	1078.450599689527	0
8	553	1103.869158250679	10.843496120841
8	558	1108.291222405611	2.102073888914
8	576	1161.606097471778	0
8	579	1163.578442419488	0
8	599	1201.575345488697	0
8	604	1209.468063764085	4.253380110245
8	611	1216.632831970754	7.558513722679
8	612	1218.274360353394	1.883910800924
8	618	1231.062298958818	0
8	623	1234.913012139115	0.66568528815
8	631	1248.342184019664	0
8	638	1253.386172667756	0
8	642	1261.957583257431	0
8	650	1277.467176934737	0
8	657	1310.235915758151	31.299192865679
8	662	1323.461152772078	16.88423792001
8	667	1336.46779774021	12.731295178097
8	668	1343.68060953137	8.760871149574
8	675	1350.959421681849	5.765999140066
8	676	1351.199216519649	3.794332324553
8	690	1395.880752839439	0
8	704	1423.878087902705	0
8	720	1456.975740307744	0
8	733	1475.209722097707	0
8	740	1494.641953134777	16.599648914458
8	741	1505.561987751426	14.178729257145
8	746	1516.479068035088	0
8	773	1590.50042477963	0
8	778	1599.013666144167	0
8	791	1631.434037847915	0
8	803	1650.493728198422	0
8	814	1668.014931068093	9.421454698174
8	823	1687.7132318898	22.340539241175
8	824	1694.923224576275	13.644711109259
8	863	1766.04703695457	0
8	870	1773.520726651988	0
8	877	1794.885684893276	15.010016185007
8	880	1806.786972305305	25.624588690274
8	885	1815.390857124158	0
8	906	1862.080332632237	0
8	915	1880.381953975635	0
8	935	1919.782592244217	0
8	947	1945.274415883366	0
8	951	1965.142792458315	0
8	962	2029.457987501145	0
8	967	2034.339112489427	0
8	970	2036.288220455867	0
8	983	2052.514086448142	0
8	989	2064.672210610458	0
8	998	2070.463473500558	3.475660045151
8	1008	2109.822365075834	0
8	1013	2125.829693711752	0
8	1030	2149.756655770248	0
8	1039	2167.166571253802	0
8	1042	2174.916574713006	0
8	1049	2192.895363616005	0
8	1052	2201.892852908397	0
8	1069	2232.882083632135	0
8	1078	2262.89403954024	3.554016780895
8	1088	2277.162737970621	0
8	1098	2296.648678655655	0
8	1105	2304.099350370165	5.523992728437
8	1110	2313.546140803556	10.045559282598
8	1111	2314.73854754134	7.476409559556
8	1145	2388.40867807511	0
8	1166	2422.686534544323	0
8	1171	2432.913250480392	0
8	1175	2438.546595932053	0
8	1186	2463.754640204455	0
8	1189	2467.837102292445	0
8	1200	2475.119593842137	0
9	196	410.904298109312	22
9	245	478.576332251319	23
9	248	486.465028036337	24
9	253	496.651137362596	25
9	254	497.400295163208	26
9	257	505.851151541061	27
9	270	525.164312777943	28
9	279	535.206963799844	29
9	282	544.663767639498	30
9	283	544.735899371971	31
9	296	596.056504434771	32
9	297	599.749355001548	33
9	303	606.148648363705	34
9	310	613.179197515553	35
9	319	647.867053368348	36
9	324	653.857891943872	37
9	327	655.741422846192	38
9	332	674.695888928917	39
9	339	699.160061143737	40
9	348	715.090149910329	41
9	349	717.812561916438	42
9	356	726.772149034689	43
9	357	731.601877688817	44
9	366	744.064025504931	45
9	380	773.474394597241	46
9	381	781.502325577946	47
9	392	810.245933246327	48
9	405	823.890666919179	49
9	422	877.266037378353	50
9	427	885.426364222343	51
9	428	888.381421901937	52
9	434	894.475463623323	53
9	439	903.315696396861	54
9	464	952.891107882924	55
9	511	1041.613226113223	56
9	527	1063.773481805922	57
9	533	1067.172640635718	58
9	545	1076.378936610102	59
9	553	1103.869158250679	60
9	558	1108.291222405611	61
9	559	1110.688728861509	62
9	577	1162.160692431691	63
9	580	1163.602580507793	64
9	604	1209.468063764085	65
9	611	1216.632831970754	66
9	612	1218.274360353394	67
9	613	1218.585401987639	68
9	623	1234.913012139115	69
9	626	1237.945170654448	70
9	636	1253.274246091323	71
9	639	1254.855384945465	72
9	643	1264.540410549405	73
9	657	1310.235915758151	74
9	662	1323.461152772078	75
9	667	1336.46779774021	76
9	668	1343.68060953137	77
9	675	1350.959421681849	78
9	676	1351.199216519649	79
9	681	1379.07827706977	80
9	695	1409.146102072783	81
9	705	1427.406355439454	82
9	721	1457.856414360615	83
9	740	1494.641953134777	84
9	741	1505.561987751426	85
9	744	1515.446425366435	86
9	747	1524.276696358547	87
9	774	1594.122797876945	88
9	779	1607.242700572452	89
9	794	1641.971714461281	90
9	814	1668.014931068093	91
9	823	1687.7132318898	92
9	824	1694.923224576275	93
9	829	1706.559923909934	94
9	864	1766.820431146831	95
9	877	1794.885684893276	96
9	880	1806.786972305305	97
9	883	1811.337143597389	98
9	886	1822.260234543724	99
9	913	1875.636473536022	100
9	918	1884.150125294606	101
9	938	1926.9451836353	102
9	948	1951.015720414992	103
9	954	1981.967974309702	104
9	963	2031.712297401533	105
9	968	2035.054780607401	106
9	971	2038.035677783537	107
9	984	2052.867863177058	108
9	998	2070.463473500558	109
9	999	2077.403838106564	110
9	1009	2113.85636455602	111
9	1014	2133.203011687934	112
9	1035	2165.414614116614	113
9	1040	2169.382196989837	114
9	1043	2176.336992924459	115
9	1050	2194.838281862067	116
9	1059	2217.304522373277	117
9	1078	2262.89403954024	118
9	1079	2264.72266276318	119
9	1089	2282.18778490581	120
9	1105	2304.099350370165	121
9	1110	2313.546140803556	122
9	1111	2314.73854754134	123
9	1112	2316.260749740179	124
9	1150	2399.063821270123	125
9	1169	2431.646485998646	126
9	1172	2433.261597861909	127
9	1176	2443.607433324536	128
9	1187	2466.888325681504	129
9	1196	2473.665728487711	130
9	1203	2495.560898536786	131
10	196	410.904298109312	3.8812467628
10	245	478.576332251319	26.589470031748
10	248	486.465028036337	34.223773254918
10	253	496.651137362596	40.381983878574
10	254	497.400295163208	34.61220947632
10	257	505.851151541061	34.100975698533
10	270	525.164312777943	39.325357564727
10	279	535.206963799844	16.091027785085
10	282	544.663767639498	22.411805946966
10	283	544.735899371971	14.371230326046
10	296	596.056504434771	23.452743539999
10	297	599.749355001548	12.509892071639
10	303	606.148648363705	3.013698093097
10	310	613.179197515553	3.978307530308
10	319	647.867053368348	37.693100333549
10	324	653.857891943872	40.877350770293
10	327	655.741422846192	3.641962112052
10	332	674.695888928917	19.984749218144
10	339	699.160061143737	12.768981080238
10	348	715.090149910329	12.655120004348
10	349	717.812561916438	5.857108363069
10	356	726.772149034689	14.220214376435
10	357	731.601877688817	10.254329503294
10	366	744.064025504931	4.251423057565
10	380	773.474394597241	28.565735905227
10	381	781.502325577946	8.797068473999
10	392	810.245933246327	4.115810131507
10	405	823.890666919179	12.031667981927
10	422	877.266037378353	13.980942656263
10	427	885.426364222343	17.736370776683
10	428	888.381421901937	11.843567495164
10	434	894.475463623323	0.873353432738
10	439	903.315696396861	1.470807271038
10	464	952.891107882924	4.631559676663
10	511	1041.613226113223	0.379601495017
10	527	1063.773481805922	8.017504060276
10	533	1067.172640635718	2.153919759397
10	545	1076.378936610102	1.103708481421
10	553	1103.869158250679	25.418558561152
10	558	1108.291222405611	15.265560275773
10	559	1110.688728861509	4.499580344812
10	577	1162.160692431691	0.554594959913
10	580	1163.602580507793	0.024138088305
10	604	1209.468063764085	7.892718275388
10	611	1216.632831970754	11.418148316914
10	612	1218.274360353394	9.200042105319
10	613	1218.585401987639	2.194952435169
10	623	1234.913012139115	3.850713180297
10	626	1237.945170654448	3.697843803483
10	636	1253.274246091323	4.932062071659
10	639	1254.855384945465	1.469212277709
10	643	1264.540410549405	2.582827291974
10	657	1310.235915758151	32.768738823414
10	662	1323.461152772078	44.524429879606
10	667	1336.46779774021	29.890882888142
10	668	1343.68060953137	19.944106969257
10	675	1350.959421681849	16.039683300053
10	676	1351.199216519649	6.005793977866
10	681	1379.07827706977	31.673392874674
10	695	1409.146102072783	13.265349233344
10	705	1427.406355439454	3.528267536749
10	721	1457.856414360615	0.880674052871
10	740	1494.641953134777	19.43223103707
10	741	1505.561987751426	27.519683531107
10	744	1515.446425366435	24.063166872154
10	747	1524.276696358547	7.797628323459
10	774	1594.122797876945	3.622373097315
10	779	1607.242700572452	8.229034428285
10	794	1641.971714461281	10.537676613366
10	814	1668.014931068093	17.521202869671
10	823	1687.7132318898	29.119755519881
10	824	1694.923224576275	29.55053192765
10	829	1706.559923909934	25.281410442918
10	864	1766.820431146831	0.773394192261
10	877	1794.885684893276	21.364958241288
10	880	1806.786972305305	26.911303597036
10	883	1811.337143597389	30.174759982358
10	886	1822.260234543724	6.869377419566
10	913	1875.636473536022	13.556140903785
10	918	1884.150125294606	3.768171318971
10	938	1926.9451836353	7.162591391083
10	948	1951.015720414992	5.741304531626
10	954	1981.967974309702	16.825181851387
10	963	2031.712297401533	2.254309900388
10	968	2035.054780607401	0.715668117974
10	971	2038.035677783537	1.74745732767
10	984	2052.867863177058	0.353776728916
10	998	2070.463473500558	5.7912628901
10	999	2077.403838106564	10.416024651157
10	1009	2113.85636455602	4.033999480186
10	1014	2133.203011687934	7.373317976182
10	1035	2165.414614116614	15.657958346366
10	1040	2169.382196989837	2.215625736035
10	1043	2176.336992924459	1.420418211453
10	1050	2194.838281862067	1.942918246062
10	1059	2217.304522373277	15.41166946488
10	1078	2262.89403954024	30.011955908105
10	1079	2264.72266276318	5.382640003835
10	1089	2282.18778490581	5.025046935189
10	1105	2304.099350370165	7.45067171451
10	1110	2313.546140803556	14.970783161828
10	1111	2314.73854754134	11.237966020382
10	1112	2316.260749740179	8.998611758395
10	1150	2399.063821270123	10.655143195013
10	1169	2431.646485998646	8.959951454323
10	1172	2433.261597861909	0.348347381517
10	1176	2443.607433324536	5.060837392483
10	1187	2466.888325681504	3.133685477049
10	1196	2473.665728487711	5.828626195266
10	1203	2495.560898536786	20.441304694649
11	1209	2500	0.1076
12	1209	2500	0.0524

