version 2
run experiments_hard_game_mode1-1455-20230311-19:44:42-12329
attr configname experiments_hard_game_mode1
attr datetime 20230311-19:44:42
attr experiment experiments_hard_game_mode1
attr inifile omnetpp.ini
attr iterationvars "$0=9.5, $1=7, $2=0"
attr iterationvarsf 9.5,7,0-
attr measurement "$0=9.5, $1=7, $2=0"
attr network Network
attr processid 12329
attr repetition 15
attr replication #15
attr resultdir results
attr runnumber 1455
attr seedset 15
param *.boss.arrival_mean 20
param *.boss.service_mean 9.5
param *.minion.arrival_mean 10
param *.minion.service_mean 7
param *.player.recover_rate_x 0
param **.minion.arrival_distribution 0
param **.minion.service_distribution 0
param **.boss.arrival_distribution 0
param **.boss.service_distribution 0

vector 0 Network.player minion_defeated_stat:vector ETV
attr source signal_minion_defeated
vector 1 Network.player minion_jobs_queue_number_stat:vector ETV
attr source signal_minion_jobs_queue_number
vector 2 Network.player minion_response_time_stat:vector ETV
attr source signal_minion_response_time
vector 3 Network.player minion_waiting_time_stat:vector ETV
attr source signal_minion_waiting_time
vector 4 Network.player minion_jobs_number_stat:vector ETV
attr source signal_minion_jobs_number
vector 5 Network.player boss_jobs_number_stat:vector ETV
attr source signal_boss_jobs_number
vector 6 Network.player boss_jobs_queue_number_stat:vector ETV
attr source signal_boss_jobs_queue_number
vector 7 Network.player minion_recovered_stat:vector ETV
attr source signal_minion_recovered
vector 8 Network.player boss_waiting_time_stat:vector ETV
attr source signal_boss_waiting_time
vector 9 Network.player boss_defeated_stat:vector ETV
attr source signal_boss_defeated
vector 10 Network.player boss_response_time_stat:vector ETV
attr source signal_boss_response_time
vector 11 Network.player minion_throughput:vector ETV
attr source signal_minion_throughput
vector 12 Network.player boss_throughput:vector ETV
attr source signal_boss_throughput
0	148	354.470304760822	23
0	149	354.852281764329	24
0	150	355.429651647476	25
0	151	359.652733465351	26
0	152	365.798644393791	27
0	153	370.309119205394	28
0	158	376.315498942123	29
0	165	381.623269077829	30
0	176	400.705337871678	31
0	182	419.925516603366	32
0	183	420.52311618303	33
0	184	422.840838114521	34
0	185	423.038362898476	35
0	186	429.449271421156	36
0	195	451.241520035947	37
0	198	460.153116382255	38
0	199	461.125966747381	39
0	200	461.873865903684	40
0	205	470.583104389	41
0	206	480.968439540264	42
0	207	481.253268774253	43
0	214	493.443815239827	44
0	217	497.835444654243	45
0	218	511.730243532144	46
0	219	514.935605977875	47
0	220	517.82778064368	48
0	237	573.480506224212	49
0	245	603.519579257218	50
0	248	612.026318458989	51
0	265	645.87884216777	52
0	266	646.455636123295	53
0	278	686.95804120916	54
0	283	694.657805602788	55
0	284	695.709425618361	56
0	285	697.593177571488	57
0	286	702.236302721237	58
0	287	703.450160689377	59
0	290	706.769741178317	60
0	291	728.631749500534	61
0	292	728.884900583588	62
0	298	743.865848678748	63
0	350	859.07980884645	64
0	353	863.365059609869	65
0	356	875.367653381576	66
0	365	908.526997376038	67
0	366	912.620469657889	68
0	367	913.56770085943	69
0	370	941.266305325407	70
0	371	944.117550341665	71
0	372	946.529668948876	72
0	373	950.687290953377	73
0	374	952.10275395319	74
0	375	953.145145483782	75
0	376	957.030695275322	76
0	399	1039.290350566232	77
0	402	1041.873502710941	78
0	407	1052.151848566032	79
0	408	1061.398207234813	80
0	409	1064.618193467492	81
0	415	1083.878961791539	82
0	416	1088.626251758864	83
0	417	1098.321646264238	84
0	422	1107.065482760561	85
0	430	1116.513939637874	86
0	497	1297.246001346357	87
0	503	1306.732980973157	88
0	520	1319.630731734095	89
0	523	1323.872489313764	90
0	524	1325.894510325185	91
0	529	1337.022831582551	92
0	530	1338.336477370149	93
0	531	1338.568230066364	94
0	536	1352.73203844417	95
0	561	1401.924327461058	96
0	562	1416.813380851461	97
0	565	1427.055745278761	98
0	566	1428.351419014138	99
0	567	1430.441867757956	100
0	568	1440.865474586573	101
0	569	1443.051853179394	102
0	570	1451.220328132204	103
0	571	1455.861213221911	104
0	572	1456.570079478805	105
0	573	1463.898149234937	106
0	579	1471.177330366861	107
0	580	1473.106930922341	108
0	581	1476.373610867201	109
0	582	1485.251328334259	110
0	587	1513.011193072706	111
0	588	1513.734673285206	112
0	594	1520.882056883875	113
0	600	1538.637857145915	114
0	609	1553.988669414845	115
0	610	1555.031967460811	116
0	614	1562.760715421343	117
0	615	1565.675822126848	118
0	783	1981.414212210822	119
0	784	1982.336929187122	120
0	789	1998.868975162589	121
0	799	2024.761313224989	122
0	816	2066.945515628115	123
0	817	2067.889164363597	124
0	821	2081.006958350316	125
0	826	2099.478663190455	126
0	827	2108.606482346805	127
0	833	2124.31632263928	128
0	834	2127.37616977504	129
0	839	2131.930311406116	130
0	898	2275.192839529761	131
0	901	2296.01465809453	132
0	904	2296.957950022245	133
0	905	2297.793335663514	134
0	912	2310.226930060108	135
1	148	354.470304760822	8
1	149	354.852281764329	7
1	150	355.429651647476	6
1	151	359.652733465351	5
1	152	365.798644393791	4
1	153	370.309119205394	3
1	155	371.826817875947	3
1	157	375.204235405122	4
1	158	376.315498942123	4
1	160	377.298172037204	4
1	162	379.790286642821	5
1	164	380.230609116032	6
1	165	381.623269077829	6
1	167	387.203879098344	6
1	174	391.229347065333	7
1	176	400.705337871678	7
1	178	401.337079352643	7
1	182	419.925516603366	7
1	183	420.52311618303	6
1	184	422.840838114521	5
1	185	423.038362898476	4
1	186	429.449271421156	3
1	188	430.971627895514	3
1	190	441.068770733571	4
1	192	448.050399855302	5
1	194	448.888924557964	6
1	195	451.241520035947	6
1	197	454.227556541109	6
1	198	460.153116382255	6
1	199	461.125966747381	5
1	200	461.873865903684	4
1	202	462.936757577674	4
1	204	464.451762827932	5
1	205	470.583104389	5
1	206	480.968439540264	4
1	207	481.253268774253	3
1	209	482.727133777193	3
1	211	489.852602183629	4
1	213	493.320106480804	5
1	214	493.443815239827	5
1	216	493.914777834505	5
1	217	497.835444654243	5
1	218	511.730243532144	4
1	219	514.935605977875	3
1	220	517.82778064368	2
1	227	538.084897973558	2
1	235	568.068108626093	3
1	237	573.480506224212	3
1	241	575.990958400427	3
1	243	578.702573058361	4
1	245	603.519579257218	4
1	247	610.7389707722	4
1	248	612.026318458989	4
1	254	624.032723864378	4
1	256	628.437748163353	5
1	258	632.97263080099	6
1	261	640.254734341694	7
1	263	640.695887759089	8
1	265	645.87884216777	8
1	266	646.455636123295	7
1	277	684.935548120622	7
1	278	686.95804120916	7
1	280	687.234352540307	7
1	282	689.519080182014	8
1	283	694.657805602788	8
1	284	695.709425618361	7
1	285	697.593177571488	6
1	286	702.236302721237	5
1	287	703.450160689377	4
1	289	704.200972879936	4
1	290	706.769741178317	4
1	291	728.631749500534	3
1	292	728.884900583588	2
1	297	741.520039975603	2
1	298	743.865848678748	2
1	303	747.111872888968	2
1	305	747.519356020626	3
1	309	754.49598639057	4
1	311	754.691145169041	5
1	320	776.699738878353	6
1	322	778.856667503739	7
1	325	788.444303878967	8
1	327	788.560835663689	9
1	330	795.722673952149	10
1	332	801.644344775313	11
1	337	815.141148630596	12
1	339	825.694875277944	13
1	344	840.294067758125	14
1	346	852.718307106967	15
1	349	858.599080122192	16
1	350	859.07980884645	16
1	352	861.542904145574	16
1	353	863.365059609869	16
1	355	868.457770801584	16
1	356	875.367653381576	16
1	360	882.893554056111	16
1	365	908.526997376038	16
1	366	912.620469657889	15
1	367	913.56770085943	14
1	369	926.05279973746	14
1	370	941.266305325407	14
1	371	944.117550341665	13
1	372	946.529668948876	12
1	373	950.687290953377	11
1	374	952.10275395319	10
1	375	953.145145483782	9
1	376	957.030695275322	8
1	380	960.038896334033	8
1	385	979.668927684915	9
1	391	987.320910046105	10
1	394	1020.590508529909	11
1	396	1026.226935838068	12
1	399	1039.290350566232	12
1	401	1039.984277950511	12
1	402	1041.873502710941	12
1	404	1046.913666967642	12
1	406	1052.038364967622	13
1	407	1052.151848566032	13
1	408	1061.398207234813	12
1	409	1064.618193467492	11
1	411	1066.569557467056	11
1	415	1083.878961791539	11
1	416	1088.626251758864	10
1	417	1098.321646264238	9
1	419	1100.326045239576	9
1	421	1104.2466734304	10
1	422	1107.065482760561	10
1	426	1112.442587626326	10
1	428	1114.2299387861	11
1	430	1116.513939637874	11
1	434	1118.135647238971	11
1	440	1127.76818682258	12
1	445	1140.20729168527	13
1	449	1150.419259773635	14
1	451	1150.904448295814	15
1	458	1166.309069574946	16
1	460	1170.082336151848	17
1	474	1196.357768476444	18
1	480	1215.008798311394	19
1	486	1233.215973103957	20
1	491	1260.276741563288	21
1	496	1293.194243100738	22
1	497	1297.246001346357	22
1	501	1300.896968081943	22
1	503	1306.732980973157	22
1	508	1308.945778575265	22
1	510	1308.979044421299	23
1	512	1309.277159462544	24
1	516	1314.520331515862	25
1	518	1316.066788270936	26
1	520	1319.630731734095	26
1	522	1320.765333269527	26
1	523	1323.872489313764	26
1	524	1325.894510325185	25
1	526	1327.150645960059	25
1	528	1328.031127684426	26
1	529	1337.022831582551	26
1	530	1338.336477370149	25
1	531	1338.568230066364	24
1	533	1339.491585654236	24
1	535	1352.475114614365	25
1	536	1352.73203844417	25
1	540	1364.13363146199	25
1	544	1371.158285571832	26
1	552	1384.107141602338	27
1	561	1401.924327461058	27
1	562	1416.813380851461	26
1	564	1418.936885028479	26
1	565	1427.055745278761	26
1	566	1428.351419014138	25
1	567	1430.441867757956	24
1	568	1440.865474586573	23
1	569	1443.051853179394	22
1	570	1451.220328132204	21
1	571	1455.861213221911	20
1	572	1456.570079478805	19
1	573	1463.898149234937	18
1	575	1464.418027804221	18
1	579	1471.177330366861	18
1	580	1473.106930922341	17
1	581	1476.373610867201	16
1	582	1485.251328334259	15
1	584	1501.945029561977	15
1	586	1506.932012075696	16
1	587	1513.011193072706	16
1	588	1513.734673285206	15
1	590	1517.880315896348	15
1	594	1520.882056883875	15
1	598	1525.082716663788	15
1	600	1538.637857145915	15
1	604	1543.972980506721	15
1	609	1553.988669414845	15
1	610	1555.031967460811	14
1	614	1562.760715421343	13
1	615	1565.675822126848	12
1	619	1569.345582476976	12
1	621	1579.443043964117	13
1	623	1584.329791524	14
1	627	1600.799091286596	15
1	629	1606.721743988844	16
1	631	1613.949102073124	17
1	633	1619.887335542117	18
1	637	1621.238325743434	19
1	642	1624.293827027984	20
1	646	1627.074985573891	21
1	652	1653.501067248497	22
1	655	1656.343140671346	23
1	657	1663.600535998356	24
1	663	1674.147678786224	25
1	670	1685.057938417324	26
1	672	1686.872387944786	27
1	679	1704.727388513786	28
1	689	1720.817587341622	29
1	691	1720.851821911813	30
1	693	1721.875092015846	31
1	698	1730.623533501388	32
1	701	1740.494285760169	33
1	703	1747.191320148696	34
1	710	1769.041783171634	35
1	713	1772.238368202655	36
1	717	1783.865888442547	37
1	721	1787.116090628544	38
1	723	1801.548290900282	39
1	727	1817.786885588567	40
1	730	1836.472723805444	41
1	732	1842.333637209256	42
1	736	1849.089516210132	43
1	738	1853.02858545257	44
1	740	1853.230025866942	45
1	745	1862.920968399841	46
1	755	1890.057369822562	47
1	758	1899.315603681918	48
1	764	1914.229000570631	49
1	766	1921.035654512079	50
1	769	1940.076656379331	51
1	772	1952.507178452678	52
1	779	1970.708264125649	53
1	781	1979.686709005919	54
1	783	1981.414212210822	54
1	784	1982.336929187122	53
1	786	1988.849426758076	53
1	788	1995.314312408796	54
1	789	1998.868975162589	54
1	791	1999.052205509423	54
1	795	2004.408034673664	55
1	798	2017.972186517163	56
1	799	2024.761313224989	56
1	803	2032.090965977135	56
1	806	2048.900328082947	57
1	808	2049.16753866172	58
1	812	2050.848902930746	59
1	815	2055.903255434299	60
1	816	2066.945515628115	60
1	817	2067.889164363597	59
1	821	2081.006958350316	58
1	823	2089.551820567039	58
1	825	2096.610071908613	59
1	826	2099.478663190455	59
1	827	2108.606482346805	58
1	831	2114.163439664741	58
1	833	2124.31632263928	58
1	834	2127.37616977504	57
1	836	2127.71405147405	57
1	838	2130.232032826984	58
1	839	2131.930311406116	58
1	843	2137.018954725423	58
1	845	2142.337046105647	59
1	849	2160.789530527783	60
1	851	2162.834948109455	61
1	853	2162.884150066935	62
1	855	2168.535605100417	63
1	858	2170.37907985514	64
1	862	2171.509863828659	65
1	866	2180.715420786649	66
1	868	2182.527633875887	67
1	872	2192.935543579677	68
1	875	2205.443338955943	69
1	877	2216.213132329422	70
1	886	2238.31625459085	71
1	890	2246.193608276171	72
1	894	2256.730833752014	73
1	896	2258.836453060927	74
1	898	2275.192839529761	74
1	900	2294.968714434799	74
1	901	2296.01465809453	74
1	903	2296.719792457182	74
1	904	2296.957950022245	74
1	905	2297.793335663514	73
1	907	2299.294790536736	73
1	909	2301.667201606868	74
1	911	2305.487069274372	75
1	912	2310.226930060108	75
1	914	2311.782884945681	75
1	916	2314.310374183725	76
1	918	2314.622892967314	77
1	922	2320.559193660386	78
1	926	2324.498304216889	79
1	928	2330.581500241578	80
1	932	2335.259599055678	81
1	935	2344.568282050413	82
1	940	2368.737787171397	83
1	942	2369.786074804619	84
1	946	2372.326647240349	85
1	952	2377.320734082424	86
1	954	2378.947451240048	87
1	962	2395.340590741336	88
1	964	2406.174800840362	89
1	973	2443.066247245712	90
1	976	2460.981316128341	91
1	979	2466.82704072236	92
1	981	2469.544771188598	93
1	983	2472.798552947363	94
1	985	2479.385398736609	95
1	988	2485.321044617593	96
2	148	354.470304760822	112.13346966897
2	149	354.852281764329	75.694939346109
2	150	355.429651647476	38.057892772952
2	151	359.652733465351	31.621082932401
2	152	365.798644393791	32.602734164895
2	153	370.309119205394	35.702870651309
2	158	376.315498942123	37.63645238262
2	165	381.623269077829	41.191121623755
2	176	400.705337871678	28.878519995731
2	182	419.925516603366	42.627344566162
2	183	420.52311618303	40.732829540209
2	184	422.840838114521	42.610228998489
2	185	423.038362898476	35.834483800132
2	186	429.449271421156	39.257186151536
2	195	451.241520035947	60.012172970614
2	198	460.153116382255	58.816037029612
2	199	461.125966747381	53.686434525472
2	200	461.873865903684	30.90223800817
2	205	470.583104389	29.514333655429
2	206	480.968439540264	32.918039684962
2	207	481.253268774253	32.364344216289
2	214	493.443815239827	39.216258698718
2	217	497.835444654243	34.898687076569
2	218	511.730243532144	47.278480704212
2	219	514.935605977875	32.208472200682
2	220	517.82778064368	27.975178460051
2	237	573.480506224212	79.565728389707
2	245	603.519579257218	65.43468128366
2	248	612.026318458989	43.958209832896
2	265	645.87884216777	69.887883767343
2	266	646.455636123295	67.753063064934
2	278	686.95804120916	58.520293045807
2	283	694.657805602788	61.685174801798
2	284	695.709425618361	55.454691276667
2	285	697.593177571488	56.897289812399
2	286	702.236302721237	55.165110209661
2	287	703.450160689377	51.821368338721
2	290	706.769741178317	41.503992626387
2	291	728.631749500534	43.696201379912
2	292	728.884900583588	41.650548043281
2	298	743.865848678748	39.664875798812
2	350	859.07980884645	111.96793595748
2	353	863.365059609869	115.84570358924
2	356	875.367653381576	123.56325129435
2	365	908.526997376038	153.835852207
2	366	912.620469657889	135.92073077954
2	367	913.56770085943	134.71103335569
2	370	941.266305325407	152.82200144644
2	371	944.117550341665	155.55671467798
2	372	946.529668948876	150.80699499673
2	373	950.687290953377	149.04294617806
2	374	952.10275395319	142.10379066355
2	375	953.145145483782	138.00399685319
2	376	957.030695275322	131.33581999738
2	399	1039.290350566232	186.57204345926
2	402	1041.873502710941	183.27442258875
2	407	1052.151848566032	190.60894442046
2	408	1061.398207234813	192.94043643323
2	409	1064.618193467492	184.51715574372
2	415	1083.878961791539	157.82616205408
2	416	1088.626251758864	129.63956917089
2	417	1098.321646264238	138.28274993021
2	422	1107.065482760561	127.39655507565
2	430	1116.513939637874	95.923431107965
2	497	1297.246001346357	257.26172339585
2	503	1306.732980973157	254.69461600553
2	520	1319.630731734095	219.30468649452
2	523	1323.872489313764	219.62581588336
2	524	1325.894510325185	218.43043599174
2	529	1337.022831582551	224.58024395622
2	530	1338.336477370149	224.10653858405
2	531	1338.568230066364	220.78438053807
2	536	1352.73203844417	234.5963912052
2	561	1401.924327461058	251.50506768742
2	562	1416.813380851461	265.90893255565
2	565	1427.055745278761	260.74667570382
2	566	1428.351419014138	258.26908286229
2	567	1430.441867757956	234.08409928151
2	568	1440.865474586573	225.85667627518
2	569	1443.051853179394	209.83588007544
2	570	1451.220328132204	190.94358656892
2	571	1455.861213221911	162.66697012117
2	572	1456.570079478805	157.91969018693
2	573	1463.898149234937	163.00118115299
2	579	1471.177330366861	162.2315517916
2	580	1473.106930922341	164.12788650104
2	581	1476.373610867201	167.09645140466
2	582	1485.251328334259	174.96295532951
2	587	1513.011193072706	198.49086155684
2	588	1513.734673285206	197.66788501427
2	594	1520.882056883875	193.73141092382
2	600	1538.637857145915	199.14627149168
2	609	1553.988669414845	194.1921204116
2	610	1555.031967460811	190.89833599882
2	614	1562.760715421343	184.60100807382
2	615	1565.675822126848	181.56868052451
2	783	1981.414212210822	479.46918264884
2	784	1982.336929187122	475.40491711143
2	789	1998.868975162589	480.98865926624
2	799	2024.761313224989	502.64601230587
2	816	2066.945515628115	522.97253512139
2	817	2067.889164363597	510.83170582142
2	821	2081.006958350316	511.66137587334
2	826	2099.478663190455	520.03561922634
2	827	2108.606482346805	524.2766908228
2	833	2124.31632263928	517.59457865044
2	834	2127.37616977504	513.42706770192
2	839	2131.930311406116	512.042975864
2	898	2275.192839529761	650.89901250178
2	901	2296.01465809453	668.93967252064
2	904	2296.957950022245	643.45688277375
2	905	2297.793335663514	641.45019499217
2	912	2310.226930060108	646.62639406175
3	148	354.470304760822	75.312962342602
3	149	354.852281764329	37.480522889805
3	150	355.429651647476	27.398001114526
3	151	359.652733465351	26.456823236455
3	152	365.798644393791	31.192395839706
3	153	370.309119205394	31.630072645891
3	158	376.315498942123	35.883351488049
3	165	381.623269077829	34.253051027757
3	175	396.783692749106	24.956874873159
3	176	400.705337871678	25.501102466556
3	181	413.145699806548	35.847527769344
3	182	419.925516603366	40.135229960545
3	183	420.52311618303	40.292507066998
3	184	422.840838114521	35.636959016177
3	185	423.038362898476	32.846277628856
3	186	429.449271421156	38.219924355823
3	195	451.241520035947	49.904440683304
3	198	460.153116382255	52.713584160346
3	199	461.125966747381	30.154338851867
3	200	461.873865903684	20.805095170113
3	205	470.583104389	22.532704533698
3	206	480.968439540264	32.0795149823
3	207	481.253268774253	27.025712233144
3	214	493.443815239827	30.507057662153
3	217	497.835444654243	33.383681826311
3	218	511.730243532144	29.003109754951
3	219	514.935605977875	25.083003794246
3	220	517.82778064368	24.507674162876
3	236	572.238892348353	78.324114513848
3	237	573.480506224212	54.972537675824
3	244	594.49066108202	56.405763108462
3	245	603.519579257218	35.451470631125
3	248	612.026318458989	36.36015618321
3	264	644.386599309054	68.395640908627
3	265	645.87884216777	67.176269109409
3	266	646.455636123295	35.716665351095
3	269	650.123825433153	37.281725255645
3	272	659.634143029261	35.601419164883
3	275	684.546366826167	56.108618662814
3	278	686.95804120916	53.98541040817
3	283	694.657805602788	54.403071261094
3	284	695.709425618361	55.013537859272
3	285	697.593177571488	50.521985059912
3	286	702.236302721237	50.607510370581
3	287	703.450160689377	38.184412137447
3	290	706.769741178317	21.834193057695
3	291	728.631749500534	41.397396960227
3	292	728.884900583588	39.365820401574
3	295	730.773382388538	26.572409508602
3	298	743.865848678748	13.142684201525
3	301	746.929394409569	5.409354433966
3	333	809.60417685094	62.883973467521
3	347	853.019836195829	105.90796330686
3	350	859.07980884645	111.56045282582
3	353	863.365059609869	111.56065752264
3	356	875.367653381576	120.87166699101
3	364	908.215801466968	153.52465629793
3	365	908.526997376038	131.82725849768
3	366	912.620469657889	133.76380215415
3	367	913.56770085943	125.12339698046
3	370	941.266305325407	152.70546966172
3	371	944.117550341665	148.39487638952
3	372	946.529668948876	144.88532417356
3	373	950.687290953377	140.68832766374
3	374	952.10275395319	136.96160532259
3	375	953.145145483782	127.45027020584
3	376	957.030695275322	116.7366275172
3	398	1033.716867364273	180.99856025731
3	399	1039.290350566232	180.69127044404
3	402	1041.873502710941	180.33059856537
3	407	1052.151848566032	183.69407776445
3	408	1061.398207234813	181.29716951104
3	409	1064.618193467492	181.72463941138
3	414	1073.740063494056	147.6872637566
3	415	1083.878961791539	124.89227920356
3	416	1088.626251758864	128.58735542483
3	417	1098.321646264238	118.65271857932
3	422	1107.065482760561	119.74457271446
3	429	1114.635427473807	94.044918943898
3	430	1116.513939637874	90.287003799806
3	494	1288.822233299643	248.83795534913
3	497	1297.246001346357	250.33233437871
3	502	1302.239647153541	250.20128218592
3	503	1306.732980973157	240.1634235061
3	506	1308.370194216062	236.67266602393
3	519	1316.705600913226	216.37955567365
3	520	1319.630731734095	215.38405830369
3	523	1323.872489313764	216.40841498032
3	524	1325.894510325185	213.45192269886
3	529	1337.022831582551	222.79289279645
3	530	1338.336477370149	220.55262784186
3	531	1338.568230066364	220.43258282739
3	536	1352.73203844417	224.96385162159
3	546	1378.158284129951	237.95099244468
3	560	1401.851533320833	251.4322735472
3	561	1401.924327461058	251.01987916524
3	562	1416.813380851461	250.50431127651
3	565	1427.055745278761	256.97340912691
3	566	1428.351419014138	231.99365053769
3	567	1430.441867757956	215.43306944656
3	568	1440.865474586573	207.64950148262
3	569	1443.051853179394	182.77511161611
3	570	1451.220328132204	158.02608503147
3	571	1455.861213221911	157.21082393003
3	572	1456.570079478805	155.67311139686
3	573	1463.898149234937	155.7730631589
3	578	1468.407842115736	159.46206354047
3	579	1471.177330366861	162.19828594556
3	580	1473.106930922341	163.8297714598
3	581	1476.373610867201	166.08523786245
3	582	1485.251328334259	170.7309968184
3	587	1513.011193072706	196.94440480177
3	588	1513.734673285206	192.96934001568
3	593	1520.604101628797	193.45345566874
3	594	1520.882056883875	192.85092919945
3	599	1537.185011105839	197.6934254516
3	600	1538.637857145915	186.16274253155
3	608	1553.853957496957	194.05740849372
3	609	1553.988669414845	189.85503795285
3	610	1555.031967460811	183.87368188898
3	613	1561.104385599936	182.94467825241
3	614	1562.760715421343	178.65357381901
3	615	1565.675822126848	146.73893709837
3	770	1940.333833060385	475.91580525616
3	775	1966.982940274658	501.78965710378
3	782	1980.326653931329	478.38162436935
3	783	1981.414212210822	474.48220013513
3	784	1982.336929187122	464.45661329077
3	789	1998.868975162589	480.82044135014
3	796	2008.39579931949	486.28049840038
3	799	2024.761313224989	499.6785965612
3	804	2041.277393094697	499.84849754038
3	813	2054.338851825184	510.36587131846
3	816	2066.945515628115	509.88805708594
3	817	2067.889164363597	499.55761277067
3	820	2075.053458566277	505.7078760893
3	821	2081.006958350316	501.5639143862
3	826	2099.478663190455	515.14887166645
3	827	2108.606482346805	507.80739106021
3	832	2120.200847487731	513.47910349889
3	833	2124.31632263928	510.36722056616
3	834	2127.37616977504	507.48883423292
3	839	2131.930311406116	510.69198566268
3	897	2273.222221238642	648.92839421066
3	898	2275.192839529761	648.11785395587
3	901	2296.01465809453	642.51359084603
3	904	2296.957950022245	640.6148093509
3	905	2297.793335663514	634.19279966516
3	912	2310.226930060108	636.07925127388
4	155	371.826817875947	4
4	157	375.204235405122	5
4	160	377.298172037204	5
4	162	379.790286642821	6
4	164	380.230609116032	7
4	167	387.203879098344	7
4	174	391.229347065333	8
4	178	401.337079352643	8
4	188	430.971627895514	4
4	190	441.068770733571	5
4	192	448.050399855302	6
4	194	448.888924557964	7
4	197	454.227556541109	7
4	202	462.936757577674	5
4	204	464.451762827932	6
4	209	482.727133777193	4
4	211	489.852602183629	5
4	213	493.320106480804	6
4	216	493.914777834505	6
4	227	538.084897973558	3
4	235	568.068108626093	4
4	241	575.990958400427	4
4	243	578.702573058361	5
4	247	610.7389707722	5
4	254	624.032723864378	5
4	256	628.437748163353	6
4	258	632.97263080099	7
4	261	640.254734341694	8
4	263	640.695887759089	9
4	277	684.935548120622	8
4	280	687.234352540307	8
4	282	689.519080182014	9
4	289	704.200972879936	5
4	297	741.520039975603	3
4	303	747.111872888968	3
4	305	747.519356020626	4
4	309	754.49598639057	5
4	311	754.691145169041	6
4	320	776.699738878353	7
4	322	778.856667503739	8
4	325	788.444303878967	9
4	327	788.560835663689	10
4	330	795.722673952149	11
4	332	801.644344775313	12
4	337	815.141148630596	13
4	339	825.694875277944	14
4	344	840.294067758125	15
4	346	852.718307106967	16
4	349	858.599080122192	17
4	352	861.542904145574	17
4	355	868.457770801584	17
4	360	882.893554056111	17
4	369	926.05279973746	15
4	380	960.038896334033	9
4	385	979.668927684915	10
4	391	987.320910046105	11
4	394	1020.590508529909	12
4	396	1026.226935838068	13
4	401	1039.984277950511	13
4	404	1046.913666967642	13
4	406	1052.038364967622	14
4	411	1066.569557467056	12
4	419	1100.326045239576	10
4	421	1104.2466734304	11
4	426	1112.442587626326	11
4	428	1114.2299387861	12
4	434	1118.135647238971	12
4	440	1127.76818682258	13
4	445	1140.20729168527	14
4	449	1150.419259773635	15
4	451	1150.904448295814	16
4	458	1166.309069574946	17
4	460	1170.082336151848	18
4	474	1196.357768476444	19
4	480	1215.008798311394	20
4	486	1233.215973103957	21
4	491	1260.276741563288	22
4	496	1293.194243100738	23
4	501	1300.896968081943	23
4	508	1308.945778575265	23
4	510	1308.979044421299	24
4	512	1309.277159462544	25
4	516	1314.520331515862	26
4	518	1316.066788270936	27
4	522	1320.765333269527	27
4	526	1327.150645960059	26
4	528	1328.031127684426	27
4	533	1339.491585654236	25
4	535	1352.475114614365	26
4	540	1364.13363146199	26
4	544	1371.158285571832	27
4	552	1384.107141602338	28
4	564	1418.936885028479	27
4	575	1464.418027804221	19
4	584	1501.945029561977	16
4	586	1506.932012075696	17
4	590	1517.880315896348	16
4	598	1525.082716663788	16
4	604	1543.972980506721	16
4	619	1569.345582476976	13
4	621	1579.443043964117	14
4	623	1584.329791524	15
4	627	1600.799091286596	16
4	629	1606.721743988844	17
4	631	1613.949102073124	18
4	633	1619.887335542117	19
4	637	1621.238325743434	20
4	642	1624.293827027984	21
4	646	1627.074985573891	22
4	652	1653.501067248497	23
4	655	1656.343140671346	24
4	657	1663.600535998356	25
4	663	1674.147678786224	26
4	670	1685.057938417324	27
4	672	1686.872387944786	28
4	679	1704.727388513786	29
4	689	1720.817587341622	30
4	691	1720.851821911813	31
4	693	1721.875092015846	32
4	698	1730.623533501388	33
4	701	1740.494285760169	34
4	703	1747.191320148696	35
4	710	1769.041783171634	36
4	713	1772.238368202655	37
4	717	1783.865888442547	38
4	721	1787.116090628544	39
4	723	1801.548290900282	40
4	727	1817.786885588567	41
4	730	1836.472723805444	42
4	732	1842.333637209256	43
4	736	1849.089516210132	44
4	738	1853.02858545257	45
4	740	1853.230025866942	46
4	745	1862.920968399841	47
4	755	1890.057369822562	48
4	758	1899.315603681918	49
4	764	1914.229000570631	50
4	766	1921.035654512079	51
4	769	1940.076656379331	52
4	772	1952.507178452678	53
4	779	1970.708264125649	54
4	781	1979.686709005919	55
4	786	1988.849426758076	54
4	788	1995.314312408796	55
4	791	1999.052205509423	55
4	795	2004.408034673664	56
4	798	2017.972186517163	57
4	803	2032.090965977135	57
4	806	2048.900328082947	58
4	808	2049.16753866172	59
4	812	2050.848902930746	60
4	815	2055.903255434299	61
4	823	2089.551820567039	59
4	825	2096.610071908613	60
4	831	2114.163439664741	59
4	836	2127.71405147405	58
4	838	2130.232032826984	59
4	843	2137.018954725423	59
4	845	2142.337046105647	60
4	849	2160.789530527783	61
4	851	2162.834948109455	62
4	853	2162.884150066935	63
4	855	2168.535605100417	64
4	858	2170.37907985514	65
4	862	2171.509863828659	66
4	866	2180.715420786649	67
4	868	2182.527633875887	68
4	872	2192.935543579677	69
4	875	2205.443338955943	70
4	877	2216.213132329422	71
4	886	2238.31625459085	72
4	890	2246.193608276171	73
4	894	2256.730833752014	74
4	896	2258.836453060927	75
4	900	2294.968714434799	75
4	903	2296.719792457182	75
4	907	2299.294790536736	74
4	909	2301.667201606868	75
4	911	2305.487069274372	76
4	914	2311.782884945681	76
4	916	2314.310374183725	77
4	918	2314.622892967314	78
4	922	2320.559193660386	79
4	926	2324.498304216889	80
4	928	2330.581500241578	81
4	932	2335.259599055678	82
4	935	2344.568282050413	83
4	940	2368.737787171397	84
4	942	2369.786074804619	85
4	946	2372.326647240349	86
4	952	2377.320734082424	87
4	954	2378.947451240048	88
4	962	2395.340590741336	89
4	964	2406.174800840362	90
4	973	2443.066247245712	91
4	976	2460.981316128341	92
4	979	2466.82704072236	93
4	981	2469.544771188598	94
4	983	2472.798552947363	95
4	985	2479.385398736609	96
4	988	2485.321044617593	97
5	169	390.19208526962	1
5	171	390.552455599804	2
5	180	407.439532221909	1
5	222	518.507968548388	1
5	224	522.173620324886	2
5	229	548.748816733117	2
5	231	550.067618500052	3
5	239	575.666162275779	1
5	250	612.842100177508	1
5	252	623.411592726827	2
5	268	647.071192511576	1
5	271	651.628792350656	1
5	274	665.26574855193	1
5	294	730.723164477223	1
5	300	746.720203383419	1
5	307	751.804402087226	1
5	313	761.533052013322	2
5	315	762.512293667094	3
5	317	766.941994342124	4
5	335	809.99896328964	1
5	341	836.11272726403	2
5	358	880.101037723776	1
5	362	893.1674807599	2
5	378	958.986682587974	1
5	382	961.113788177775	2
5	387	980.006287846102	2
5	389	986.58770618071	3
5	413	1071.697528192129	1
5	424	1107.464074333445	1
5	432	1117.78384952829	1
5	436	1121.017381211308	2
5	438	1124.43115273652	3
5	442	1130.82600363503	4
5	447	1148.533918641737	4
5	455	1164.363948844049	3
5	462	1174.071106898272	3
5	464	1175.776090639092	4
5	466	1182.736178667829	5
5	468	1185.782939051587	6
5	470	1186.137599269998	7
5	478	1214.244314790628	4
5	484	1226.823743164412	3
5	488	1250.476709292462	4
5	499	1298.650389291879	1
5	505	1308.125086076041	1
5	514	1310.28837300475	1
5	538	1359.796549003241	1
5	542	1370.990339914893	2
5	548	1378.159707347523	1
5	550	1380.964876480297	2
5	554	1386.732170890961	3
5	556	1389.108069391996	4
5	577	1465.193283170876	1
5	592	1518.048533812449	1
5	596	1522.115300919114	1
5	602	1541.428895554315	1
5	606	1550.738110740724	2
5	612	1557.057458542175	1
5	617	1568.331551592928	1
5	625	1594.882472076587	2
5	635	1619.894738349259	3
5	640	1624.084042264992	3
5	644	1626.210616034251	4
5	649	1632.846757884736	4
5	659	1664.490478429722	3
5	661	1671.38165525371	4
5	665	1675.267107061551	5
5	675	1689.847971375368	2
5	677	1702.746913519538	3
5	683	1712.497602514756	2
5	685	1714.363548584924	3
5	687	1719.6409964056	4
5	695	1722.58306476235	5
5	706	1755.40584379679	3
5	708	1762.461127702236	4
5	719	1787.059466435055	2
5	725	1809.486314153089	3
5	734	1847.391152781413	3
5	742	1857.225048866429	4
5	747	1866.271830798015	4
5	750	1878.578067492393	4
5	753	1886.757159903634	4
5	761	1903.265596083928	3
5	774	1956.425399870298	1
5	777	1969.834502793289	1
5	793	1999.57917616298	1
5	801	2031.530575653383	1
5	810	2049.403337861292	1
5	819	2069.148904070772	1
5	829	2112.867149498668	1
5	841	2134.440791909142	1
5	847	2157.212802221385	2
5	860	2171.380613717592	2
5	864	2171.740503012916	3
5	870	2187.341514577323	4
5	879	2219.535531233618	4
5	881	2223.8424989331	5
5	888	2245.658919910221	3
5	920	2315.1814443388	1
5	924	2322.283976249027	2
5	930	2331.248097080117	3
5	937	2346.228359067299	3
5	944	2370.716186367381	3
5	948	2375.068077861533	4
5	950	2375.806323096909	5
5	956	2379.965256529779	6
5	960	2385.250852286311	5
5	966	2413.808996696861	6
5	968	2423.704403934987	7
5	971	2439.323409864084	7
6	169	390.19208526962	0
6	171	390.552455599804	1
6	172	391.071892675971	1
6	175	396.783692749106	0
6	180	407.439532221909	0
6	181	413.145699806548	0
6	222	518.507968548388	0
6	224	522.173620324886	1
6	225	532.61072385196	1
6	229	548.748816733117	1
6	231	550.067618500052	2
6	232	554.130033473238	2
6	233	565.017646232945	1
6	236	572.238892348353	0
6	239	575.666162275779	0
6	244	594.49066108202	0
6	250	612.842100177508	0
6	252	623.411592726827	1
6	259	638.640501002704	1
6	264	644.386599309054	0
6	268	647.071192511576	0
6	269	650.123825433153	0
6	271	651.628792350656	0
6	272	659.634143029261	0
6	274	665.26574855193	0
6	275	684.546366826167	0
6	294	730.723164477223	0
6	295	730.773382388538	0
6	300	746.720203383419	0
6	301	746.929394409569	0
6	307	751.804402087226	0
6	313	761.533052013322	1
6	315	762.512293667094	2
6	317	766.941994342124	3
6	318	771.52300594538	3
6	323	783.028597578102	2
6	328	791.22200636245	1
6	333	809.60417685094	0
6	335	809.99896328964	0
6	341	836.11272726403	1
6	342	837.592624425587	1
6	347	853.019836195829	0
6	358	880.101037723776	0
6	362	893.1674807599	1
6	363	901.225737539748	1
6	364	908.215801466968	0
6	378	958.986682587974	0
6	382	961.113788177775	1
6	383	969.867273512049	1
6	387	980.006287846102	1
6	389	986.58770618071	2
6	392	1012.514652331267	2
6	397	1033.514119353106	1
6	398	1033.716867364273	0
6	413	1071.697528192129	0
6	414	1073.740063494056	0
6	424	1107.464074333445	0
6	429	1114.635427473807	0
6	432	1117.78384952829	0
6	436	1121.017381211308	1
6	438	1124.43115273652	2
6	442	1130.82600363503	3
6	443	1133.195869468162	3
6	447	1148.533918641737	3
6	452	1162.295124448654	3
6	453	1162.52016839173	2
6	455	1164.363948844049	2
6	456	1166.299900881938	2
6	462	1174.071106898272	2
6	464	1175.776090639092	3
6	466	1182.736178667829	4
6	468	1185.782939051587	5
6	470	1186.137599269998	6
6	471	1190.346724977978	6
6	472	1192.801550843162	5
6	475	1203.308097488503	4
6	476	1204.357281039801	3
6	478	1214.244314790628	3
6	481	1217.233320931601	3
6	482	1219.298692593876	2
6	484	1226.823743164412	2
6	488	1250.476709292462	3
6	489	1251.390556539899	3
6	492	1283.59940481403	2
6	493	1288.449509497231	1
6	494	1288.822233299643	0
6	499	1298.650389291879	0
6	502	1302.239647153541	0
6	505	1308.125086076041	0
6	506	1308.370194216062	0
6	514	1310.28837300475	0
6	519	1316.705600913226	0
6	538	1359.796549003241	0
6	542	1370.990339914893	1
6	545	1374.828928717324	1
6	546	1378.158284129951	0
6	548	1378.159707347523	0
6	550	1380.964876480297	1
6	554	1386.732170890961	2
6	556	1389.108069391996	3
6	557	1389.307050243917	3
6	558	1396.71379550816	2
6	559	1398.556405089326	1
6	560	1401.851533320833	0
6	577	1465.193283170876	0
6	578	1468.407842115736	0
6	592	1518.048533812449	0
6	593	1520.604101628797	0
6	596	1522.115300919114	0
6	599	1537.185011105839	0
6	602	1541.428895554315	0
6	606	1550.738110740724	1
6	607	1552.853836767474	1
6	608	1553.853957496957	0
6	612	1557.057458542175	0
6	613	1561.104385599936	0
6	617	1568.331551592928	0
6	625	1594.882472076587	1
6	635	1619.894738349259	2
6	638	1623.84544071183	2
6	640	1624.084042264992	2
6	644	1626.210616034251	3
6	647	1629.679244482216	3
6	649	1632.846757884736	3
6	650	1646.817552355734	3
6	653	1655.579698569255	2
6	659	1664.490478429722	2
6	661	1671.38165525371	3
6	665	1675.267107061551	4
6	666	1677.239944053277	4
6	667	1678.349515236204	3
6	668	1683.295755117044	2
6	673	1688.174957313044	1
6	675	1689.847971375368	1
6	677	1702.746913519538	2
6	680	1706.78428129948	2
6	681	1709.668781252584	1
6	683	1712.497602514756	1
6	685	1714.363548584924	2
6	687	1719.6409964056	3
6	695	1722.58306476235	4
6	696	1723.706557460734	4
6	699	1732.378540336769	3
6	704	1747.249283972821	2
6	706	1755.40584379679	2
6	708	1762.461127702236	3
6	711	1770.140735693408	3
6	714	1772.840983051416	2
6	715	1774.738785663966	1
6	719	1787.059466435055	1
6	725	1809.486314153089	2
6	728	1817.82638011956	2
6	734	1847.391152781413	2
6	742	1857.225048866429	3
6	743	1858.691330201001	3
6	747	1866.271830798015	3
6	748	1869.918419902742	3
6	750	1878.578067492393	3
6	751	1880.961192306796	3
6	753	1886.757159903634	3
6	756	1891.669291498988	3
6	759	1899.427927363645	2
6	761	1903.265596083928	2
6	762	1912.979102325325	2
6	767	1940.000082243405	1
6	770	1940.333833060385	0
6	774	1956.425399870298	0
6	775	1966.982940274658	0
6	777	1969.834502793289	0
6	782	1980.326653931329	0
6	793	1999.57917616298	0
6	796	2008.39579931949	0
6	801	2031.530575653383	0
6	804	2041.277393094697	0
6	810	2049.403337861292	0
6	813	2054.338851825184	0
6	819	2069.148904070772	0
6	820	2075.053458566277	0
6	829	2112.867149498668	0
6	832	2120.200847487731	0
6	841	2134.440791909142	0
6	847	2157.212802221385	1
6	856	2169.432123004355	1
6	860	2171.380613717592	1
6	864	2171.740503012916	2
6	870	2187.341514577323	3
6	873	2202.063846879536	3
6	879	2219.535531233618	3
6	881	2223.8424989331	4
6	882	2228.744301470806	4
6	883	2229.279010137618	3
6	884	2232.156269931207	2
6	888	2245.658919910221	2
6	891	2255.292752822235	2
6	892	2255.382577008614	1
6	897	2273.222221238642	0
6	920	2315.1814443388	0
6	924	2322.283976249027	1
6	930	2331.248097080117	2
6	933	2335.817543701322	2
6	937	2346.228359067299	2
6	938	2364.864980406742	2
6	944	2370.716186367381	2
6	948	2375.068077861533	3
6	950	2375.806323096909	4
6	956	2379.965256529779	5
6	957	2383.561351900719	5
6	958	2383.585891901862	4
6	960	2385.250852286311	4
6	966	2413.808996696861	5
6	968	2423.704403934987	6
6	969	2429.300916980343	6
6	971	2439.323409864084	6
6	974	2453.039494652019	6
6	977	2463.365748002016	5
6	986	2479.85601745563	4
6	989	2490.70780442049	3
6	990	2498.326105592244	2
7	169	390.19208526962	12
7	180	407.439532221909	13
7	222	518.507968548388	14
7	239	575.666162275779	15
7	250	612.842100177508	16
7	268	647.071192511576	17
7	271	651.628792350656	18
7	274	665.26574855193	19
7	294	730.723164477223	20
7	300	746.720203383419	21
7	307	751.804402087226	22
7	335	809.99896328964	23
7	358	880.101037723776	24
7	378	958.986682587974	25
7	413	1071.697528192129	26
7	424	1107.464074333445	27
7	432	1117.78384952829	28
7	499	1298.650389291879	29
7	505	1308.125086076041	30
7	514	1310.28837300475	31
7	538	1359.796549003241	32
7	548	1378.159707347523	33
7	577	1465.193283170876	34
7	592	1518.048533812449	35
7	596	1522.115300919114	36
7	602	1541.428895554315	37
7	612	1557.057458542175	38
7	617	1568.331551592928	39
7	774	1956.425399870298	40
7	777	1969.834502793289	41
7	793	1999.57917616298	42
7	801	2031.530575653383	43
7	810	2049.403337861292	44
7	819	2069.148904070772	45
7	829	2112.867149498668	46
7	841	2134.440791909142	47
7	920	2315.1814443388	48
8	169	390.19208526962	0
8	172	391.071892675971	0.519437076167
8	180	407.439532221909	0
8	222	518.507968548388	0
8	225	532.61072385196	10.437103527074
8	232	554.130033473238	5.381216740121
8	233	565.017646232945	14.950027732893
8	239	575.666162275779	0
8	250	612.842100177508	0
8	259	638.640501002704	15.228908275877
8	268	647.071192511576	0
8	271	651.628792350656	0
8	274	665.26574855193	0
8	294	730.723164477223	0
8	300	746.720203383419	0
8	307	751.804402087226	0
8	318	771.52300594538	9.989953932058
8	323	783.028597578102	20.516303911008
8	328	791.22200636245	24.280012020326
8	335	809.99896328964	0
8	342	837.592624425587	1.479897161557
8	358	880.101037723776	0
8	363	901.225737539748	8.058256779848
8	378	958.986682587974	0
8	383	969.867273512049	8.753485334274
8	392	1012.514652331267	32.508364485165
8	397	1033.514119353106	46.926413172396
8	413	1071.697528192129	0
8	424	1107.464074333445	0
8	432	1117.78384952829	0
8	443	1133.195869468162	12.178488256854
8	452	1162.295124448654	37.863971712134
8	453	1162.52016839173	31.6941647567
8	456	1166.299900881938	17.765982240201
8	471	1190.346724977978	25.982776133929
8	472	1192.801550843162	18.73044394489
8	475	1203.308097488503	27.532006849411
8	476	1204.357281039801	21.621102371972
8	481	1217.233320931601	31.450381880014
8	482	1219.298692593876	33.161093323878
8	489	1251.390556539899	37.146241749271
8	492	1283.59940481403	56.775661649618
8	493	1288.449509497231	37.972800204769
8	499	1298.650389291879	0
8	505	1308.125086076041	0
8	514	1310.28837300475	0
8	538	1359.796549003241	0
8	545	1374.828928717324	3.838588802431
8	548	1378.159707347523	0
8	557	1389.307050243917	8.34217376362
8	558	1396.71379550816	9.981624617199
8	559	1398.556405089326	9.44833569733
8	577	1465.193283170876	0
8	592	1518.048533812449	0
8	596	1522.115300919114	0
8	602	1541.428895554315	0
8	607	1552.853836767474	2.11572602675
8	612	1557.057458542175	0
8	617	1568.331551592928	0
8	638	1623.84544071183	28.962968635243
8	647	1629.679244482216	9.784506132957
8	650	1646.817552355734	22.733510090742
8	653	1655.579698569255	29.369082535004
8	666	1677.239944053277	44.393186168541
8	667	1678.349515236204	13.859036806482
8	668	1683.295755117044	11.914099863334
8	673	1688.174957313044	12.907850251493
8	680	1706.78428129948	16.936309924112
8	681	1709.668781252584	6.921867733046
8	696	1723.706557460734	11.208954945978
8	699	1732.378540336769	18.014991751845
8	704	1747.249283972821	27.608287567221
8	711	1770.140735693408	47.557670931058
8	714	1772.840983051416	17.435139254626
8	715	1774.738785663966	12.27765796173
8	728	1817.82638011956	30.766913684505
8	743	1858.691330201001	49.205016047912
8	748	1869.918419902742	22.527267121329
8	751	1880.961192306796	23.736143440367
8	756	1891.669291498988	25.397460700973
8	759	1899.427927363645	20.849859871252
8	762	1912.979102325325	26.221942421691
8	767	1940.000082243405	36.734486159477
8	774	1956.425399870298	0
8	777	1969.834502793289	0
8	793	1999.57917616298	0
8	801	2031.530575653383	0
8	810	2049.403337861292	0
8	819	2069.148904070772	0
8	829	2112.867149498668	0
8	841	2134.440791909142	0
8	856	2169.432123004355	12.21932078297
8	873	2202.063846879536	30.683233161944
8	882	2228.744301470806	57.00379845789
8	883	2229.279010137618	41.937495560295
8	884	2232.156269931207	12.620738697589
8	891	2255.292752822235	31.450253889135
8	892	2255.382577008614	9.723657098393
8	920	2315.1814443388	0
8	933	2335.817543701322	13.533567452295
8	938	2364.864980406742	33.616883326625
8	957	2383.561351900719	37.33299283342
8	958	2383.585891901862	12.869705534481
8	969	2429.300916980343	54.23283911881
8	974	2453.039494652019	77.23317155511
8	977	2463.365748002016	83.400491472237
8	986	2479.85601745563	94.605165169319
8	989	2490.70780442049	76.898807723629
8	990	2498.326105592244	74.621701657257
9	172	391.071892675971	22
9	175	396.783692749106	23
9	181	413.145699806548	24
9	225	532.61072385196	25
9	232	554.130033473238	26
9	233	565.017646232945	27
9	236	572.238892348353	28
9	244	594.49066108202	29
9	259	638.640501002704	30
9	264	644.386599309054	31
9	269	650.123825433153	32
9	272	659.634143029261	33
9	275	684.546366826167	34
9	295	730.773382388538	35
9	301	746.929394409569	36
9	318	771.52300594538	37
9	323	783.028597578102	38
9	328	791.22200636245	39
9	333	809.60417685094	40
9	342	837.592624425587	41
9	347	853.019836195829	42
9	363	901.225737539748	43
9	364	908.215801466968	44
9	383	969.867273512049	45
9	392	1012.514652331267	46
9	397	1033.514119353106	47
9	398	1033.716867364273	48
9	414	1073.740063494056	49
9	429	1114.635427473807	50
9	443	1133.195869468162	51
9	452	1162.295124448654	52
9	453	1162.52016839173	53
9	456	1166.299900881938	54
9	471	1190.346724977978	55
9	472	1192.801550843162	56
9	475	1203.308097488503	57
9	476	1204.357281039801	58
9	481	1217.233320931601	59
9	482	1219.298692593876	60
9	489	1251.390556539899	61
9	492	1283.59940481403	62
9	493	1288.449509497231	63
9	494	1288.822233299643	64
9	502	1302.239647153541	65
9	506	1308.370194216062	66
9	519	1316.705600913226	67
9	545	1374.828928717324	68
9	546	1378.158284129951	69
9	557	1389.307050243917	70
9	558	1396.71379550816	71
9	559	1398.556405089326	72
9	560	1401.851533320833	73
9	578	1468.407842115736	74
9	593	1520.604101628797	75
9	599	1537.185011105839	76
9	607	1552.853836767474	77
9	608	1553.853957496957	78
9	613	1561.104385599936	79
9	638	1623.84544071183	80
9	647	1629.679244482216	81
9	650	1646.817552355734	82
9	653	1655.579698569255	83
9	666	1677.239944053277	84
9	667	1678.349515236204	85
9	668	1683.295755117044	86
9	673	1688.174957313044	87
9	680	1706.78428129948	88
9	681	1709.668781252584	89
9	696	1723.706557460734	90
9	699	1732.378540336769	91
9	704	1747.249283972821	92
9	711	1770.140735693408	93
9	714	1772.840983051416	94
9	715	1774.738785663966	95
9	728	1817.82638011956	96
9	743	1858.691330201001	97
9	748	1869.918419902742	98
9	751	1880.961192306796	99
9	756	1891.669291498988	100
9	759	1899.427927363645	101
9	762	1912.979102325325	102
9	767	1940.000082243405	103
9	770	1940.333833060385	104
9	775	1966.982940274658	105
9	782	1980.326653931329	106
9	796	2008.39579931949	107
9	804	2041.277393094697	108
9	813	2054.338851825184	109
9	820	2075.053458566277	110
9	832	2120.200847487731	111
9	856	2169.432123004355	112
9	873	2202.063846879536	113
9	882	2228.744301470806	114
9	883	2229.279010137618	115
9	884	2232.156269931207	116
9	891	2255.292752822235	117
9	892	2255.382577008614	118
9	897	2273.222221238642	119
9	933	2335.817543701322	120
9	938	2364.864980406742	121
9	957	2383.561351900719	122
9	958	2383.585891901862	123
9	969	2429.300916980343	124
9	974	2453.039494652019	125
9	977	2463.365748002016	126
9	986	2479.85601745563	127
9	989	2490.70780442049	128
9	990	2498.326105592244	129
10	172	391.071892675971	0.879807406351
10	175	396.783692749106	6.231237149302
10	181	413.145699806548	5.706167584639
10	225	532.61072385196	14.102755303572
10	232	554.130033473238	31.956413148352
10	233	565.017646232945	16.268829499828
10	236	572.238892348353	22.171273848301
10	244	594.49066108202	18.824498806241
10	259	638.640501002704	25.798400825196
10	264	644.386599309054	20.975006582227
10	269	650.123825433153	3.052632921577
10	272	659.634143029261	8.005350678605
10	275	684.546366826167	19.280618274237
10	295	730.773382388538	0.050217911315
10	301	746.929394409569	0.20919102615
10	318	771.52300594538	19.718603858154
10	323	783.028597578102	21.49554556478
10	328	791.22200636245	28.709712695356
10	333	809.60417685094	42.662182508816
10	342	837.592624425587	27.593661135947
10	347	853.019836195829	16.907108931799
10	363	901.225737539748	21.124699815972
10	364	908.215801466968	15.048320707068
10	383	969.867273512049	10.880590924075
10	392	1012.514652331267	51.400864153492
10	397	1033.514119353106	53.507831507004
10	398	1033.716867364273	47.129161183563
10	414	1073.740063494056	2.042535301927
10	429	1114.635427473807	7.171353140362
10	443	1133.195869468162	15.412019939872
10	452	1162.295124448654	41.277743237346
10	453	1162.52016839173	38.08901565521
10	456	1166.299900881938	35.473897246908
10	471	1190.346724977978	41.812806336241
10	472	1192.801550843162	28.437601999113
10	475	1203.308097488503	29.236990590231
10	476	1204.357281039801	28.581190400709
10	481	1217.233320931601	34.497142263772
10	482	1219.298692593876	33.515753542289
10	489	1251.390556539899	65.252957269901
10	492	1283.59940481403	69.355090023402
10	493	1288.449509497231	61.625766332819
10	494	1288.822233299643	38.345524007181
10	502	1302.239647153541	3.589257861662
10	506	1308.370194216062	0.245108140021
10	519	1316.705600913226	6.417227908476
10	545	1374.828928717324	15.032379714083
10	546	1378.158284129951	7.167944215058
10	557	1389.307050243917	11.147342896394
10	558	1396.71379550816	15.748919027863
10	559	1398.556405089326	11.824234198365
10	560	1401.851533320833	12.743463928837
10	578	1468.407842115736	3.21455894486
10	593	1520.604101628797	2.555567816348
10	599	1537.185011105839	15.069710186725
10	607	1552.853836767474	11.424941213159
10	608	1553.853957496957	3.115846756233
10	613	1561.104385599936	4.046927057761
10	638	1623.84544071183	55.513889118902
10	647	1629.679244482216	34.796772405629
10	650	1646.817552355734	26.922814006475
10	653	1655.579698569255	31.495656304263
10	666	1677.239944053277	51.029328019026
10	667	1678.349515236204	45.502757351468
10	668	1683.295755117044	18.805276687322
10	673	1688.174957313044	16.793302059334
10	680	1706.78428129948	31.517174237929
10	681	1709.668781252584	19.820809877216
10	696	1723.706557460734	20.959643941196
10	699	1732.378540336769	19.880937822013
10	704	1747.249283972821	32.885735387897
10	711	1770.140735693408	50.499739287808
10	714	1772.840983051416	50.257918289066
10	715	1774.738785663966	19.332941867176
10	728	1817.82638011956	55.365252417324
10	743	1858.691330201001	71.631863765946
10	748	1869.918419902742	60.432105749653
10	751	1880.961192306796	33.570039525383
10	756	1891.669291498988	34.444242632559
10	759	1899.427927363645	33.15609656563
10	762	1912.979102325325	34.401034832932
10	767	1940.000082243405	53.242922339771
10	770	1940.333833060385	37.068236976457
10	775	1966.982940274658	10.55754040436
10	782	1980.326653931329	10.49215113804
10	796	2008.39579931949	8.81662315651
10	804	2041.277393094697	9.746817441314
10	813	2054.338851825184	4.935513963892
10	820	2075.053458566277	5.904554495505
10	832	2120.200847487731	7.333697989063
10	856	2169.432123004355	34.991331095213
10	873	2202.063846879536	44.851044658151
10	882	2228.744301470806	57.363687753214
10	883	2229.279010137618	57.538507124702
10	884	2232.156269931207	44.814755353884
10	891	2255.292752822235	35.757221588617
10	892	2255.382577008614	31.540078075514
10	897	2273.222221238642	27.563301328421
10	933	2335.817543701322	20.636099362522
10	938	2364.864980406742	42.581004157715
10	957	2383.561351900719	52.313254820602
10	958	2383.585891901862	37.357532834563
10	969	2429.300916980343	58.584730612962
10	974	2453.039494652019	77.971416790486
10	977	2463.365748002016	87.559424905107
10	986	2479.85601745563	99.890760925851
10	989	2490.70780442049	105.45695213418
10	990	2498.326105592244	84.517108895383
11	991	2500	0.054
12	991	2500	0.0516

