file 55514 1678560109                                           
version 2
run experiments_hard_game_mode1-696-20230311-19:41:49-8183
attr configname experiments_hard_game_mode1
attr datetime 20230311-19:41:49
attr experiment experiments_hard_game_mode1
attr inifile omnetpp.ini
attr iterationvars "$0=8.5, $1=4, $2=100"
attr iterationvarsf 8.5,4,100-
attr measurement "$0=8.5, $1=4, $2=100"
attr network Network
attr processid 8183
attr repetition 6
attr replication #6
attr resultdir results
attr runnumber 696
attr seedset 6
param *.boss.arrival_mean 20
param *.boss.service_mean 8.5
param *.minion.arrival_mean 10
param *.minion.service_mean 4
param *.player.recover_rate_x 100
param **.minion.arrival_distribution 0
param **.minion.service_distribution 0
param **.boss.arrival_distribution 0
param **.boss.service_distribution 0

vector 0 Network.player boss_jobs_number_stat:vector ETV
attr source signal_boss_jobs_number
vector 1 Network.player boss_jobs_queue_number_stat:vector ETV
attr source signal_boss_jobs_queue_number
vector 2 Network.player minion_jobs_number_stat:vector ETV
attr source signal_minion_jobs_number
vector 3 Network.player minion_jobs_queue_number_stat:vector ETV
attr source signal_minion_jobs_queue_number
vector 4 Network.player boss_defeated_stat:vector ETV
attr source signal_boss_defeated
vector 5 Network.player boss_response_time_stat:vector ETV
attr source signal_boss_response_time
vector 6 Network.player boss_waiting_time_stat:vector ETV
attr source signal_boss_waiting_time
vector 7 Network.player minion_waiting_time_stat:vector ETV
attr source signal_minion_waiting_time
vector 8 Network.player minion_defeated_stat:vector ETV
attr source signal_minion_defeated
vector 9 Network.player minion_response_time_stat:vector ETV
attr source signal_minion_response_time
vector 10 Network.player minion_recovered_stat:vector ETV
attr source signal_minion_recovered
vector 11 Network.player minion_throughput:vector ETV
attr source signal_minion_throughput
vector 12 Network.player boss_throughput:vector ETV
attr source signal_boss_throughput
0	2016 2407 130 999 350.911095348185 2499.404620087199 94 1 4 144 276
1	4423 4815 130 999 350.911095348185 2499.404620087199 188 0 3 100 164
2	9238 5030 132 987 351.627033189598 2473.954007465772 196 1 12 682 3856
3	14268 10064 132 987 351.627033189598 2473.954007465772 393 0 11 977 5401
4	24332 2517 133 997 353.841436100107 2493.616838834482 94 21 114 6345 497495
5	26849 3665 133 997 353.841436100107 2493.616838834482 94 0.004620493561 44.037274388569 1156.9485002766 24882.603537061
6	30514 2884 133 999 353.841436100107 2499.404620087199 94 0 32.718852014829 371.03256349664 6582.0896586975
7	33398 8221 136 997 357.483854221573 2493.616838834482 227 0 105.29839465402 4422.425237626 217510.89475276
8	41619 5349 137 977 363.213290129848 2467.811273681682 197 19 215 23049 3333831
9	46968 7678 137 977 363.213290129848 2467.811273681682 197 0.093882132885 106.76533044573 4571.9272188504 225617.2935391
10	54646 828 140 999 366.390704133182 2499.404620087199 30 8 37 675 17435
11	55474 19 1000 1000 2500 2500 1 0.086 0.086 0.086 0.007396
12	55493 20 1000 1000 2500 2500 1 0.0456 0.0456 0.0456 0.00207936

