version 2
run experiments_hard_game_mode1-1457-20230311-19:44:42-12339
attr configname experiments_hard_game_mode1
attr datetime 20230311-19:44:42
attr experiment experiments_hard_game_mode1
attr inifile omnetpp.ini
attr iterationvars "$0=9.5, $1=7, $2=0"
attr iterationvarsf 9.5,7,0-
attr measurement "$0=9.5, $1=7, $2=0"
attr network Network
attr processid 12339
attr repetition 17
attr replication #17
attr resultdir results
attr runnumber 1457
attr seedset 17
param *.boss.arrival_mean 20
param *.boss.service_mean 9.5
param *.minion.arrival_mean 10
param *.minion.service_mean 7
param *.player.recover_rate_x 0
param **.minion.arrival_distribution 0
param **.minion.service_distribution 0
param **.boss.arrival_distribution 0
param **.boss.service_distribution 0

vector 0 Network.player boss_jobs_number_stat:vector ETV
attr source signal_boss_jobs_number
vector 1 Network.player boss_jobs_queue_number_stat:vector ETV
attr source signal_boss_jobs_queue_number
vector 2 Network.player boss_defeated_stat:vector ETV
attr source signal_boss_defeated
vector 3 Network.player boss_response_time_stat:vector ETV
attr source signal_boss_response_time
vector 4 Network.player boss_waiting_time_stat:vector ETV
attr source signal_boss_waiting_time
vector 5 Network.player minion_jobs_number_stat:vector ETV
attr source signal_minion_jobs_number
vector 6 Network.player minion_jobs_queue_number_stat:vector ETV
attr source signal_minion_jobs_queue_number
vector 7 Network.player minion_waiting_time_stat:vector ETV
attr source signal_minion_waiting_time
vector 8 Network.player minion_recovered_stat:vector ETV
attr source signal_minion_recovered
vector 9 Network.player minion_defeated_stat:vector ETV
attr source signal_minion_defeated
vector 10 Network.player minion_response_time_stat:vector ETV
attr source signal_minion_response_time
vector 11 Network.player minion_throughput:vector ETV
attr source signal_minion_throughput
vector 12 Network.player boss_throughput:vector ETV
attr source signal_boss_throughput
0	150	350.171511211393	6
0	153	359.177002320821	6
0	157	365.26094743687	7
0	159	368.098189762035	8
0	172	385.995055935859	6
0	183	401.159380145501	6
0	190	408.580972013092	6
0	193	411.98303390355	6
0	195	412.876803304027	7
0	199	422.146072715288	8
0	206	446.775027194891	4
0	212	468.45014409572	3
0	214	472.544172029421	4
0	219	487.076176212721	4
0	221	491.308263830936	5
0	231	514.420445053881	2
0	238	540.977110483324	2
0	241	551.819681983572	2
0	243	554.511948886503	3
0	249	575.952425612315	2
0	253	583.288797401775	1
0	256	588.718100361583	1
0	283	643.125925376857	1
0	285	645.586996621865	2
0	324	730.571370209296	1
0	326	734.350173070654	2
0	353	810.658340050417	1
0	379	884.907727247863	1
0	381	887.721201712711	2
0	383	888.414522886148	3
0	385	888.512631947575	4
0	387	890.614748597704	5
0	401	921.637319564409	4
0	406	933.050810641064	4
0	414	955.511706174683	5
0	438	994.890497857697	1
0	440	1003.331701847225	2
0	450	1024.71278138575	1
0	452	1033.063840915732	2
0	457	1051.810539160986	1
0	464	1065.212657206365	1
0	466	1065.754729663329	2
0	471	1080.816328212444	2
0	483	1093.090213003979	3
0	534	1190.157796246335	1
0	538	1195.018006867426	2
0	547	1254.157083332267	1
0	561	1280.882010518192	1
0	567	1313.151903889802	1
0	575	1321.444395591257	2
0	577	1325.585896946281	3
0	582	1335.422098015786	3
0	584	1338.793171785704	4
0	589	1343.945698054676	4
0	592	1344.605648280557	4
0	596	1348.23718360817	3
0	598	1354.444723385226	4
0	604	1363.78207600242	1
0	607	1372.897775342055	1
0	610	1380.740144125913	1
0	633	1449.877692855951	1
0	636	1463.860393903988	1
0	642	1472.968465229854	1
0	651	1519.198196621634	1
0	655	1532.42682870514	2
0	663	1550.165412899953	1
0	667	1554.583269324379	2
0	676	1573.502541172078	2
0	695	1622.789686438765	1
0	697	1626.079452015312	2
0	701	1630.884862694327	3
0	703	1635.526245392597	4
0	709	1672.708889509399	1
0	720	1683.53909461402	1
0	722	1684.610946595907	2
0	727	1685.324302382972	2
0	729	1690.607090687069	3
0	731	1690.716656719464	4
0	745	1722.801084257979	1
0	754	1752.565669775121	1
0	757	1757.548582860074	1
0	776	1795.945836784854	1
0	780	1803.075119845715	2
0	808	1863.031907122048	1
0	812	1873.807397067592	1
0	815	1876.768904317585	1
0	828	1890.39997952919	1
0	831	1891.62937734553	1
0	836	1895.714537944116	1
0	842	1904.656803873486	2
0	846	1907.741361857288	3
0	848	1907.770545241994	4
0	850	1910.078089205621	5
0	861	1928.628792155236	3
0	874	1940.266183214219	1
0	886	1969.677378120698	1
0	905	2005.109057834261	1
0	923	2037.716048677079	1
0	936	2096.363142973599	1
0	938	2103.40630497504	2
0	944	2118.70735399252	3
0	950	2130.419533422778	4
0	959	2149.699629152779	2
0	970	2180.406746134353	1
0	978	2189.056782590741	1
0	989	2208.817946604845	1
0	1000	2249.007462530087	1
0	1010	2267.540485069693	1
0	1020	2284.914111308136	1
0	1033	2303.01610025261	1
0	1058	2370.815889430469	1
0	1060	2386.415765345996	2
0	1082	2426.057704019991	1
0	1084	2426.901955418237	2
0	1088	2436.157063888962	3
0	1102	2467.123966566147	1
0	1107	2473.867866227238	1
0	1116	2489.726720628059	1
1	150	350.171511211393	5
1	151	354.146654299165	5
1	153	359.177002320821	5
1	157	365.26094743687	6
1	159	368.098189762035	7
1	162	371.880626997691	7
1	163	375.169259668118	6
1	164	377.698313963752	5
1	172	385.995055935859	5
1	181	400.874127624454	5
1	183	401.159380145501	5
1	186	404.571712284888	5
1	190	408.580972013092	5
1	191	411.435116409081	5
1	193	411.98303390355	5
1	195	412.876803304027	6
1	199	422.146072715288	7
1	200	423.41550569666	7
1	201	423.921246729902	6
1	202	424.952116358271	5
1	203	426.378461788833	4
1	204	435.085377606839	3
1	206	446.775027194891	3
1	207	461.735458209602	3
1	208	463.127094103183	2
1	212	468.45014409572	2
1	214	472.544172029421	3
1	215	477.867037849645	3
1	219	487.076176212721	3
1	221	491.308263830936	4
1	224	499.670978539226	4
1	225	500.467857642056	3
1	228	503.150397287324	2
1	229	507.462671200699	1
1	231	514.420445053881	1
1	236	536.631316996294	1
1	238	540.977110483324	1
1	239	548.329726421732	1
1	241	551.819681983572	1
1	243	554.511948886503	2
1	244	563.078860435589	2
1	247	573.641102312332	1
1	249	575.952425612315	1
1	250	579.049716520387	1
1	251	582.753698979729	0
1	253	583.288797401775	0
1	254	586.080548858842	0
1	256	588.718100361583	0
1	257	589.563048859796	0
1	283	643.125925376857	0
1	285	645.586996621865	1
1	286	647.539852937579	1
1	289	651.547334364602	0
1	324	730.571370209296	0
1	326	734.350173070654	1
1	327	738.575995660314	1
1	344	784.966844055431	0
1	353	810.658340050417	0
1	354	813.879423537091	0
1	379	884.907727247863	0
1	381	887.721201712711	1
1	383	888.414522886148	2
1	385	888.512631947575	3
1	387	890.614748597704	4
1	390	895.331461504495	4
1	397	913.971016421124	3
1	401	921.637319564409	3
1	404	931.171430281932	3
1	406	933.050810641064	3
1	414	955.511706174683	4
1	415	955.986843671357	4
1	416	956.698746116202	3
1	417	957.061871996174	2
1	418	959.33606255224	1
1	419	963.057060281613	0
1	438	994.890497857697	0
1	440	1003.331701847225	1
1	445	1013.905773178275	1
1	446	1017.822154767608	0
1	450	1024.71278138575	0
1	452	1033.063840915732	1
1	453	1037.562215214164	1
1	454	1046.933662959985	0
1	457	1051.810539160986	0
1	460	1059.462648849875	0
1	464	1065.212657206365	0
1	466	1065.754729663329	1
1	467	1065.958253376825	1
1	471	1080.816328212444	1
1	483	1093.090213003979	2
1	484	1100.844248787074	2
1	493	1103.284404560797	1
1	496	1104.36223014188	0
1	534	1190.157796246335	0
1	538	1195.018006867426	1
1	541	1214.236120644684	1
1	542	1226.705335785153	0
1	547	1254.157083332267	0
1	550	1256.936748724971	0
1	561	1280.882010518192	0
1	562	1284.355852003141	0
1	567	1313.151903889802	0
1	575	1321.444395591257	1
1	577	1325.585896946281	2
1	580	1333.054528361673	2
1	582	1335.422098015786	2
1	584	1338.793171785704	3
1	585	1341.140374273162	3
1	589	1343.945698054676	3
1	590	1344.405145200133	3
1	592	1344.605648280557	3
1	593	1345.253607785991	3
1	594	1347.813692963059	2
1	596	1348.23718360817	2
1	598	1354.444723385226	3
1	599	1357.079346620242	3
1	600	1359.021750115665	2
1	601	1359.088757667839	1
1	602	1360.490880791968	0
1	604	1363.78207600242	0
1	605	1371.984675151144	0
1	607	1372.897775342055	0
1	608	1379.16678002452	0
1	610	1380.740144125913	0
1	615	1401.355460531729	0
1	633	1449.877692855951	0
1	634	1462.34075601034	0
1	636	1463.860393903988	0
1	637	1468.46374491542	0
1	642	1472.968465229854	0
1	643	1486.859013541211	0
1	651	1519.198196621634	0
1	655	1532.42682870514	1
1	660	1541.832483093589	1
1	661	1545.354769295933	0
1	663	1550.165412899953	0
1	667	1554.583269324379	1
1	672	1568.203714765769	1
1	676	1573.502541172078	1
1	677	1579.484347041977	1
1	680	1592.099347441648	0
1	695	1622.789686438765	0
1	697	1626.079452015312	1
1	701	1630.884862694327	2
1	703	1635.526245392597	3
1	704	1651.239531739887	3
1	705	1657.252554611846	2
1	706	1664.420527355596	1
1	707	1670.089354151134	0
1	709	1672.708889509399	0
1	712	1677.873547883686	0
1	720	1683.53909461402	0
1	722	1684.610946595907	1
1	723	1684.983021266659	1
1	727	1685.324302382972	1
1	729	1690.607090687069	2
1	731	1690.716656719464	3
1	732	1692.887474293189	3
1	737	1694.338933709203	2
1	740	1708.372270999528	1
1	741	1710.055512070726	0
1	745	1722.801084257979	0
1	748	1728.229113512258	0
1	754	1752.565669775121	0
1	755	1753.950524541166	0
1	757	1757.548582860074	0
1	758	1769.360555158919	0
1	776	1795.945836784854	0
1	780	1803.075119845715	1
1	781	1804.502870778945	1
1	784	1815.906642095123	0
1	808	1863.031907122048	0
1	809	1863.999338255827	0
1	812	1873.807397067592	0
1	813	1875.456041020676	0
1	815	1876.768904317585	0
1	818	1878.221301644499	0
1	828	1890.39997952919	0
1	829	1890.531765056147	0
1	831	1891.62937734553	0
1	834	1893.800360655475	0
1	836	1895.714537944116	0
1	842	1904.656803873486	1
1	846	1907.741361857288	2
1	848	1907.770545241994	3
1	850	1910.078089205621	4
1	853	1914.205855815211	4
1	854	1914.878160814577	3
1	857	1922.47470565126	2
1	861	1928.628792155236	2
1	862	1929.538124761325	2
1	863	1930.322814605752	1
1	868	1934.217170492468	0
1	874	1940.266183214219	0
1	875	1947.611096760202	0
1	886	1969.677378120698	0
1	889	1978.300046176072	0
1	905	2005.109057834261	0
1	906	2007.882098574265	0
1	923	2037.716048677079	0
1	934	2083.443856891378	0
1	936	2096.363142973599	0
1	938	2103.40630497504	1
1	944	2118.70735399252	2
1	950	2130.419533422778	3
1	951	2131.637090458429	3
1	954	2144.794703336253	2
1	957	2147.740600685269	1
1	959	2149.699629152779	1
1	962	2151.718013370755	1
1	965	2160.752186442532	0
1	970	2180.406746134353	0
1	975	2186.125000803687	0
1	978	2189.056782590741	0
1	981	2191.448401438233	0
1	989	2208.817946604845	0
1	990	2212.441116514447	0
1	1000	2249.007462530087	0
1	1001	2250.522862207628	0
1	1010	2267.540485069693	0
1	1013	2269.257571294481	0
1	1020	2284.914111308136	0
1	1021	2290.583472862334	0
1	1033	2303.01610025261	0
1	1034	2305.734244792061	0
1	1058	2370.815889430469	0
1	1060	2386.415765345996	1
1	1073	2404.672703072227	1
1	1074	2404.683959626881	0
1	1082	2426.057704019991	0
1	1084	2426.901955418237	1
1	1088	2436.157063888962	2
1	1095	2457.795827370108	2
1	1096	2462.441311492777	1
1	1097	2463.685354790978	0
1	1102	2467.123966566147	0
1	1105	2469.196279247491	0
1	1107	2473.867866227238	0
1	1108	2478.181584034611	0
1	1116	2489.726720628059	0
1	1117	2494.309237205001	0
2	151	354.146654299165	16
2	162	371.880626997691	17
2	163	375.169259668118	18
2	164	377.698313963752	19
2	181	400.874127624454	20
2	186	404.571712284888	21
2	191	411.435116409081	22
2	200	423.41550569666	23
2	201	423.921246729902	24
2	202	424.952116358271	25
2	203	426.378461788833	26
2	204	435.085377606839	27
2	207	461.735458209602	28
2	208	463.127094103183	29
2	215	477.867037849645	30
2	224	499.670978539226	31
2	225	500.467857642056	32
2	228	503.150397287324	33
2	229	507.462671200699	34
2	236	536.631316996294	35
2	239	548.329726421732	36
2	244	563.078860435589	37
2	247	573.641102312332	38
2	250	579.049716520387	39
2	251	582.753698979729	40
2	254	586.080548858842	41
2	257	589.563048859796	42
2	286	647.539852937579	43
2	289	651.547334364602	44
2	327	738.575995660314	45
2	344	784.966844055431	46
2	354	813.879423537091	47
2	390	895.331461504495	48
2	397	913.971016421124	49
2	404	931.171430281932	50
2	415	955.986843671357	51
2	416	956.698746116202	52
2	417	957.061871996174	53
2	418	959.33606255224	54
2	419	963.057060281613	55
2	445	1013.905773178275	56
2	446	1017.822154767608	57
2	453	1037.562215214164	58
2	454	1046.933662959985	59
2	460	1059.462648849875	60
2	467	1065.958253376825	61
2	484	1100.844248787074	62
2	493	1103.284404560797	63
2	496	1104.36223014188	64
2	541	1214.236120644684	65
2	542	1226.705335785153	66
2	550	1256.936748724971	67
2	562	1284.355852003141	68
2	580	1333.054528361673	69
2	585	1341.140374273162	70
2	590	1344.405145200133	71
2	593	1345.253607785991	72
2	594	1347.813692963059	73
2	599	1357.079346620242	74
2	600	1359.021750115665	75
2	601	1359.088757667839	76
2	602	1360.490880791968	77
2	605	1371.984675151144	78
2	608	1379.16678002452	79
2	615	1401.355460531729	80
2	634	1462.34075601034	81
2	637	1468.46374491542	82
2	643	1486.859013541211	83
2	660	1541.832483093589	84
2	661	1545.354769295933	85
2	672	1568.203714765769	86
2	677	1579.484347041977	87
2	680	1592.099347441648	88
2	704	1651.239531739887	89
2	705	1657.252554611846	90
2	706	1664.420527355596	91
2	707	1670.089354151134	92
2	712	1677.873547883686	93
2	723	1684.983021266659	94
2	732	1692.887474293189	95
2	737	1694.338933709203	96
2	740	1708.372270999528	97
2	741	1710.055512070726	98
2	748	1728.229113512258	99
2	755	1753.950524541166	100
2	758	1769.360555158919	101
2	781	1804.502870778945	102
2	784	1815.906642095123	103
2	809	1863.999338255827	104
2	813	1875.456041020676	105
2	818	1878.221301644499	106
2	829	1890.531765056147	107
2	834	1893.800360655475	108
2	853	1914.205855815211	109
2	854	1914.878160814577	110
2	857	1922.47470565126	111
2	862	1929.538124761325	112
2	863	1930.322814605752	113
2	868	1934.217170492468	114
2	875	1947.611096760202	115
2	889	1978.300046176072	116
2	906	2007.882098574265	117
2	934	2083.443856891378	118
2	951	2131.637090458429	119
2	954	2144.794703336253	120
2	957	2147.740600685269	121
2	962	2151.718013370755	122
2	965	2160.752186442532	123
2	975	2186.125000803687	124
2	981	2191.448401438233	125
2	990	2212.441116514447	126
2	1001	2250.522862207628	127
2	1013	2269.257571294481	128
2	1021	2290.583472862334	129
2	1034	2305.734244792061	130
2	1073	2404.672703072227	131
2	1074	2404.683959626881	132
2	1095	2457.795827370108	133
2	1096	2462.441311492777	134
2	1097	2463.685354790978	135
2	1105	2469.196279247491	136
2	1108	2478.181584034611	137
2	1117	2494.309237205001	138
3	151	354.146654299165	46.336738854451
3	162	371.880626997691	50.465271042124
3	163	375.169259668118	51.036770806038
3	164	377.698313963752	41.51564183172
3	181	400.874127624454	59.727185868999
3	186	404.571712284888	54.400201073495
3	191	411.435116409081	52.25811408826
3	200	423.41550569666	58.15455825979
3	201	423.921246729902	55.823056967867
3	202	424.952116358271	38.957060422412
3	203	426.378461788833	25.219081643332
3	204	435.085377606839	26.504405593747
3	207	461.735458209602	49.752424306052
3	208	463.127094103183	50.250290799156
3	215	477.867037849645	55.720965134357
3	224	499.670978539226	52.895951344335
3	225	500.467857642056	32.017713546336
3	228	503.150397287324	30.606225257903
3	229	507.462671200699	20.386494987978
3	236	536.631316996294	45.323053165358
3	239	548.329726421732	33.909281367851
3	244	563.078860435589	22.101749952265
3	247	573.641102312332	21.82142032876
3	250	579.049716520387	24.537767633884
3	251	582.753698979729	6.801273367414
3	254	586.080548858842	2.791751457067
3	257	589.563048859796	0.844948498213
3	286	647.539852937579	4.413927560722
3	289	651.547334364602	5.960337742737
3	327	738.575995660314	8.004625451018
3	344	784.966844055431	50.616670984777
3	354	813.879423537091	3.221083486674
3	390	895.331461504495	10.423734256632
3	397	913.971016421124	26.249814708413
3	404	931.171430281932	42.756907395784
3	415	955.986843671357	67.474211723782
3	416	956.698746116202	66.083997518498
3	417	957.061871996174	35.424552431765
3	418	959.33606255224	26.285251911176
3	419	963.057060281613	7.54535410693
3	445	1013.905773178275	19.015275320578
3	446	1017.822154767608	14.490452920383
3	453	1037.562215214164	12.849433828414
3	454	1046.933662959985	13.869822044253
3	460	1059.462648849875	7.652109688889
3	467	1065.958253376825	0.74559617046
3	484	1100.844248787074	35.089519123745
3	493	1103.284404560797	22.468076348353
3	496	1104.36223014188	11.272017137901
3	541	1214.236120644684	24.078324398349
3	542	1226.705335785153	31.687328917727
3	550	1256.936748724971	2.779665392704
3	562	1284.355852003141	3.473841484949
3	580	1333.054528361673	19.902624471871
3	585	1341.140374273162	19.695978681905
3	590	1344.405145200133	18.819248253852
3	593	1345.253607785991	9.831509770205
3	594	1347.813692963059	9.020521177355
3	599	1357.079346620242	13.133648565566
3	600	1359.021750115665	14.416101835108
3	601	1359.088757667839	10.851574059669
3	602	1360.490880791968	6.046157406742
3	605	1371.984675151144	8.202599148724
3	608	1379.16678002452	6.269004682465
3	615	1401.355460531729	20.615316405816
3	634	1462.34075601034	12.463063154389
3	637	1468.46374491542	4.603351011432
3	643	1486.859013541211	13.890548311357
3	660	1541.832483093589	22.634286471955
3	661	1545.354769295933	12.927940590793
3	672	1568.203714765769	18.038301865816
3	677	1579.484347041977	24.901077717598
3	680	1592.099347441648	18.59680626957
3	704	1651.239531739887	28.449845301122
3	705	1657.252554611846	31.173102596534
3	706	1664.420527355596	33.535664661269
3	707	1670.089354151134	34.563108758537
3	712	1677.873547883686	5.164658374287
3	723	1684.983021266659	1.443926652639
3	732	1692.887474293189	8.276527697282
3	737	1694.338933709203	9.014631326231
3	740	1708.372270999528	17.765180312459
3	741	1710.055512070726	19.338855351262
3	748	1728.229113512258	5.428029254279
3	755	1753.950524541166	1.384854766045
3	758	1769.360555158919	11.811972298845
3	781	1804.502870778945	8.557033994091
3	784	1815.906642095123	12.831522249408
3	809	1863.999338255827	0.967431133779
3	813	1875.456041020676	1.648643953084
3	818	1878.221301644499	1.452397326914
3	829	1890.531765056147	0.131785526957
3	834	1893.800360655475	2.170983309945
3	853	1914.205855815211	18.491317871095
3	854	1914.878160814577	10.221356941091
3	857	1922.47470565126	14.733343793972
3	862	1929.538124761325	21.767579519331
3	863	1930.322814605752	20.244725400131
3	868	1934.217170492468	5.588378337232
3	875	1947.611096760202	7.344913545983
3	889	1978.300046176072	8.622668055374
3	906	2007.882098574265	2.773040740004
3	934	2083.443856891378	45.727808214299
3	951	2131.637090458429	35.27394748483
3	954	2144.794703336253	41.388398361213
3	957	2147.740600685269	29.033246692749
3	962	2151.718013370755	21.298479947977
3	965	2160.752186442532	11.052557289753
3	975	2186.125000803687	5.718254669334
3	981	2191.448401438233	2.391618847492
3	990	2212.441116514447	3.623169909602
3	1001	2250.522862207628	1.515399677541
3	1013	2269.257571294481	1.717086224788
3	1021	2290.583472862334	5.669361554198
3	1034	2305.734244792061	2.718144539451
3	1073	2404.672703072227	33.856813641758
3	1074	2404.683959626881	18.268194280885
3	1095	2457.795827370108	31.738123350117
3	1096	2462.441311492777	35.53935607454
3	1097	2463.685354790978	27.528290902016
3	1105	2469.196279247491	2.072312681344
3	1108	2478.181584034611	4.313717807373
3	1117	2494.309237205001	4.582516576942
4	151	354.146654299165	32.731298343598
4	162	371.880626997691	47.748138135611
4	163	375.169259668118	38.986587536086
4	164	377.698313963752	36.551372208297
4	181	400.874127624454	50.702616413061
4	186	404.571712284888	45.394709964067
4	191	411.435116409081	46.174168972211
4	200	423.41550569666	55.317315934625
4	201	423.921246729902	37.926190794043
4	202	424.952116358271	23.79273621277
4	203	426.378461788833	17.797489775741
4	204	435.085377606839	23.102343703289
4	207	461.735458209602	48.858654905575
4	208	463.127094103183	40.981021387895
4	215	477.867037849645	31.092010654754
4	224	499.670978539226	31.220834443506
4	225	500.467857642056	27.923685612635
4	228	503.150397287324	16.074221074603
4	229	507.462671200699	16.154407369763
4	236	536.631316996294	22.210871942413
4	239	548.329726421732	7.352615938408
4	244	563.078860435589	11.259178452017
4	247	573.641102312332	19.129153425829
4	250	579.049716520387	3.097290908072
4	253	583.288797401775	0
4	256	588.718100361583	0
4	283	643.125925376857	0
4	286	647.539852937579	1.952856315714
4	324	730.571370209296	0
4	327	738.575995660314	4.22582258966
4	353	810.658340050417	0
4	379	884.907727247863	0
4	390	895.331461504495	7.610259791784
4	397	913.971016421124	25.556493534976
4	404	931.171430281932	42.658798334357
4	415	955.986843671357	65.372095073653
4	416	956.698746116202	35.061426551793
4	417	957.061871996174	24.01106135511
4	418	959.33606255224	3.824356377557
4	438	994.890497857697	0
4	445	1013.905773178275	10.57407133105
4	450	1024.71278138575	0
4	453	1037.562215214164	4.498374298432
4	457	1051.810539160986	0
4	464	1065.212657206365	0
4	467	1065.958253376825	0.203523713496
4	484	1100.844248787074	20.02792057463
4	493	1103.284404560797	10.194191556818
4	534	1190.157796246335	0
4	541	1214.236120644684	19.218113777258
4	547	1254.157083332267	0
4	561	1280.882010518192	0
4	567	1313.151903889802	0
4	580	1333.054528361673	11.610132770416
4	585	1341.140374273162	15.554477326881
4	590	1344.405145200133	8.983047184347
4	593	1345.253607785991	6.460436000287
4	594	1347.813692963059	3.867994908383
4	599	1357.079346620242	12.473698339685
4	600	1359.021750115665	10.784566507495
4	601	1359.088757667839	4.644034282613
4	604	1363.78207600242	0
4	607	1372.897775342055	0
4	610	1380.740144125913	0
4	633	1449.877692855951	0
4	636	1463.860393903988	0
4	642	1472.968465229854	0
4	651	1519.198196621634	0
4	660	1541.832483093589	9.405654388449
4	663	1550.165412899953	0
4	672	1568.203714765769	13.62044544139
4	677	1579.484347041977	5.981805869899
4	695	1622.789686438765	0
4	704	1651.239531739887	25.160079724575
4	705	1657.252554611846	26.367691917519
4	706	1664.420527355596	28.894281962999
4	709	1672.708889509399	0
4	720	1683.53909461402	0
4	723	1684.983021266659	0.372074670752
4	732	1692.887474293189	7.563171910217
4	737	1694.338933709203	3.731843022134
4	740	1708.372270999528	17.655614280064
4	745	1722.801084257979	0
4	754	1752.565669775121	0
4	757	1757.548582860074	0
4	776	1795.945836784854	0
4	781	1804.502870778945	1.42775093323
4	808	1863.031907122048	0
4	812	1873.807397067592	0
4	815	1876.768904317585	0
4	828	1890.39997952919	0
4	831	1891.62937734553	0
4	836	1895.714537944116	0
4	853	1914.205855815211	9.549051941725
4	854	1914.878160814577	7.136798957289
4	857	1922.47470565126	14.704160409266
4	862	1929.538124761325	19.460035555704
4	863	1930.322814605752	1.694022450516
4	874	1940.266183214219	0
4	886	1969.677378120698	0
4	905	2005.109057834261	0
4	923	2037.716048677079	0
4	936	2096.363142973599	0
4	951	2131.637090458429	28.230785483389
4	954	2144.794703336253	26.087349343733
4	957	2147.740600685269	17.321067262491
4	962	2151.718013370755	2.018384217976
4	970	2180.406746134353	0
4	978	2189.056782590741	0
4	989	2208.817946604845	0
4	1000	2249.007462530087	0
4	1010	2267.540485069693	0
4	1020	2284.914111308136	0
4	1033	2303.01610025261	0
4	1058	2370.815889430469	0
4	1073	2404.672703072227	18.256937726231
4	1082	2426.057704019991	0
4	1095	2457.795827370108	30.893871951871
4	1096	2462.441311492777	26.284247603815
4	1102	2467.123966566147	0
4	1107	2473.867866227238	0
4	1116	2489.726720628059	0
5	155	361.587814466951	7
5	161	370.517362617564	8
5	166	381.15031939228	9
5	168	383.000106765623	10
5	170	385.205731859589	11
5	174	387.231673826958	12
5	176	391.467645020652	13
5	178	391.790327657756	14
5	180	400.240274676465	15
5	185	402.849031992676	16
5	188	408.277538686361	17
5	197	415.825879056699	18
5	210	468.003348668458	19
5	217	479.777162500302	20
5	223	497.643032871097	21
5	227	501.06747342256	22
5	233	529.720340730688	23
5	235	530.664543745399	24
5	246	564.630861679177	25
5	263	607.060157196228	22
5	265	608.817100002223	23
5	269	623.652681534036	22
5	272	626.268215411257	22
5	275	634.226339513972	22
5	278	641.269760757948	22
5	281	642.992641513097	22
5	288	649.251260264539	23
5	293	663.131940718352	22
5	297	670.373604627643	21
5	301	677.811581296454	20
5	304	681.325147848155	20
5	311	697.713954861291	16
5	313	705.670589228675	17
5	318	718.278332535994	15
5	329	739.370792297982	12
5	331	739.531013032072	13
5	333	741.885813294221	14
5	335	749.08452382733	15
5	337	755.707301090235	16
5	339	766.887371715564	17
5	341	771.70993267628	18
5	343	783.247208959	19
5	347	793.563616539954	19
5	350	800.22497064418	19
5	356	814.985995901723	19
5	371	876.737061601873	7
5	374	880.263351200228	7
5	377	884.715060646702	7
5	389	893.057995720692	8
5	392	897.621565833426	9
5	394	904.687267680435	10
5	396	906.148189442126	11
5	399	919.461424773194	12
5	403	923.468924505841	13
5	408	933.372035396762	14
5	410	935.239130551037	15
5	412	947.361177466021	16
5	421	965.713394902006	17
5	424	969.144301495477	17
5	426	978.446267412114	18
5	428	979.290949837497	19
5	430	985.367248631966	20
5	436	991.916379502635	17
5	442	1004.036309392494	18
5	444	1007.313294854891	19
5	459	1055.253222836611	17
5	462	1064.332896723178	18
5	469	1074.458734162069	19
5	473	1084.73509076389	20
5	475	1084.920010614221	21
5	477	1085.344176726577	22
5	479	1086.847302578806	23
5	481	1090.993272535036	24
5	486	1101.359118887311	25
5	488	1102.726871690193	26
5	490	1102.773859650864	27
5	492	1102.808703067666	28
5	495	1103.558692577001	29
5	498	1105.49852764354	30
5	501	1113.898576141939	30
5	505	1118.218172902397	29
5	507	1129.286243436009	30
5	511	1149.330667512377	29
5	521	1168.132939327389	22
5	526	1177.257572825815	20
5	529	1180.200759868871	20
5	531	1180.363532954243	21
5	536	1193.696432415785	21
5	540	1198.036362909496	22
5	549	1256.80320130424	20
5	553	1262.57149398774	20
5	555	1262.817832895913	21
5	557	1264.443793757312	22
5	569	1316.827869198588	18
5	571	1316.836966825172	19
5	573	1317.891645213725	20
5	579	1325.964751757203	21
5	587	1341.896319704022	22
5	612	1390.713665924599	23
5	614	1391.491145976173	24
5	623	1432.109599366781	19
5	625	1435.424498503776	20
5	627	1435.451453764455	21
5	629	1436.34740156385	22
5	640	1470.537153083715	20
5	647	1494.538245268396	19
5	653	1520.42257571502	18
5	657	1533.240568147096	19
5	659	1537.392676850934	20
5	665	1552.745797621676	21
5	669	1564.909420616986	22
5	671	1566.697454731817	23
5	674	1571.139574914787	24
5	679	1591.272968515485	25
5	683	1595.182544280602	25
5	685	1596.777140918567	26
5	690	1617.910615571711	24
5	693	1622.429547964932	24
5	699	1629.439667213029	25
5	711	1676.568257126997	26
5	714	1680.26691701325	27
5	718	1681.635368076538	26
5	725	1685.2420606866	27
5	734	1693.214085867151	28
5	736	1693.850338585547	29
5	739	1705.365906575477	30
5	747	1727.738594423032	29
5	752	1737.523578243873	28
5	760	1776.48107159176	29
5	763	1781.898375840307	29
5	765	1783.251380516264	30
5	767	1783.408564707176	31
5	769	1787.876282173172	32
5	773	1792.56691716898	31
5	778	1802.089588050119	31
5	783	1812.408404696471	32
5	787	1820.014028729581	32
5	789	1820.596842822519	33
5	792	1824.037007746774	33
5	796	1843.87114111351	32
5	801	1853.396838359014	30
5	803	1858.475513299252	31
5	817	1876.886942893869	28
5	820	1886.063619410735	29
5	824	1888.644437598973	28
5	826	1888.850596083817	29
5	833	1893.65186083956	30
5	838	1902.201910201055	31
5	840	1904.594850998163	32
5	844	1907.186420434709	33
5	852	1911.280504890157	34
5	856	1918.455621373657	35
5	859	1922.630736722385	36
5	865	1931.007132665202	37
5	867	1932.733605221341	38
5	872	1939.881984605495	37
5	877	1954.337475071124	38
5	880	1961.404136305048	38
5	884	1967.826872257726	37
5	888	1973.977769645519	38
5	891	1980.79880086202	39
5	896	1988.646059310834	37
5	898	1990.289519978881	38
5	902	1998.882624034751	37
5	910	2010.24701442697	35
5	913	2010.606594549351	35
5	917	2028.407657464782	34
5	921	2030.619084909051	33
5	925	2046.884535755182	34
5	927	2049.934755867752	35
5	929	2053.073870204826	36
5	931	2063.536240371679	37
5	933	2068.179391804684	38
5	940	2106.24467890276	39
5	942	2111.67201245948	40
5	946	2124.276576918475	41
5	948	2126.00628669928	42
5	953	2137.727488543402	43
5	956	2145.095894681443	44
5	961	2151.587321290818	45
5	964	2157.587890184407	46
5	968	2167.761515143486	46
5	972	2181.83866788825	47
5	974	2182.998930779226	48
5	980	2191.379152475978	48
5	987	2207.518507673308	45
5	992	2218.373340417633	46
5	1005	2262.688833919648	39
5	1008	2266.771277960554	39
5	1012	2268.14123197056	40
5	1015	2274.229981918126	41
5	1023	2295.928009914854	39
5	1025	2299.367600235415	40
5	1027	2300.503154335507	41
5	1029	2301.724759587071	42
5	1031	2301.953157066354	43
5	1038	2314.502394381873	42
5	1040	2315.683588688348	43
5	1045	2339.842619891371	41
5	1048	2342.657497307074	41
5	1050	2344.823868400702	42
5	1054	2364.105097919066	41
5	1062	2391.771816139766	40
5	1064	2391.87833102605	41
5	1066	2397.644739807356	42
5	1068	2398.975566228828	43
5	1070	2399.368096068654	44
5	1072	2402.805214477881	45
5	1076	2409.673769388734	46
5	1078	2417.435661793298	47
5	1086	2436.107939185418	46
5	1090	2437.320281692505	47
5	1092	2440.299984748182	48
5	1094	2455.702516081559	49
5	1099	2465.779298357275	50
5	1104	2468.035048194316	50
5	1110	2480.2962639258	51
5	1112	2486.133993132066	52
5	1114	2488.977018924844	53
6	155	361.587814466951	6
6	161	370.517362617564	7
6	166	381.15031939228	8
6	168	383.000106765623	9
6	170	385.205731859589	10
6	174	387.231673826958	11
6	176	391.467645020652	12
6	178	391.790327657756	13
6	180	400.240274676465	14
6	185	402.849031992676	15
6	188	408.277538686361	16
6	197	415.825879056699	17
6	210	468.003348668458	18
6	217	479.777162500302	19
6	223	497.643032871097	20
6	227	501.06747342256	21
6	233	529.720340730688	22
6	235	530.664543745399	23
6	246	564.630861679177	24
6	258	596.320152356755	24
6	259	599.107781069189	23
6	260	599.852979877539	22
6	261	604.299049547021	21
6	263	607.060157196228	21
6	265	608.817100002223	22
6	266	616.12700619486	22
6	267	617.525437214503	21
6	269	623.652681534036	21
6	270	624.073727775682	21
6	272	626.268215411257	21
6	273	626.809533087476	21
6	275	634.226339513972	21
6	276	638.391187509216	21
6	278	641.269760757948	21
6	279	642.638768665131	21
6	281	642.992641513097	21
6	288	649.251260264539	22
6	290	656.826991676483	22
6	291	661.23727400137	21
6	293	663.131940718352	21
6	294	663.66464874022	21
6	295	668.17154839737	20
6	297	670.373604627643	20
6	298	670.441730242722	20
6	299	670.881875679603	19
6	301	677.811581296454	19
6	302	678.817630237179	19
6	304	681.325147848155	19
6	305	684.512162031504	19
6	306	686.373228947046	18
6	307	689.687070636088	17
6	308	697.603327990134	16
6	309	697.611689508801	15
6	311	697.713954861291	15
6	313	705.670589228675	16
6	314	706.533710767462	16
6	315	711.421126416232	15
6	316	715.384662313286	14
6	318	718.278332535994	14
6	319	721.195212272301	14
6	320	724.628557329277	13
6	321	724.845910869147	12
6	322	727.706386993827	11
6	329	739.370792297982	11
6	331	739.531013032072	12
6	333	741.885813294221	13
6	335	749.08452382733	14
6	337	755.707301090235	15
6	339	766.887371715564	16
6	341	771.70993267628	17
6	343	783.247208959	18
6	345	790.006475608559	18
6	347	793.563616539954	18
6	348	798.114854196614	18
6	350	800.22497064418	18
6	351	802.753669448625	18
6	356	814.985995901723	18
6	357	816.736801983489	18
6	358	822.035591596387	17
6	359	829.931322925242	16
6	360	837.916910429866	15
6	361	838.871832886922	14
6	362	842.344940788146	13
6	363	848.421713876073	12
6	364	850.320298945208	11
6	365	851.187792121996	10
6	366	860.559733109962	9
6	367	869.158206704735	8
6	368	870.517117145911	7
6	369	874.253581129765	6
6	371	876.737061601873	6
6	372	878.778391694684	6
6	374	880.263351200228	6
6	375	883.040459023523	6
6	377	884.715060646702	6
6	389	893.057995720692	7
6	392	897.621565833426	8
6	394	904.687267680435	9
6	396	906.148189442126	10
6	399	919.461424773194	11
6	403	923.468924505841	12
6	408	933.372035396762	13
6	410	935.239130551037	14
6	412	947.361177466021	15
6	421	965.713394902006	16
6	422	965.880832689567	16
6	424	969.144301495477	16
6	426	978.446267412114	17
6	428	979.290949837497	18
6	430	985.367248631966	19
6	431	988.758201845868	19
6	432	989.971762904036	18
6	433	990.660574981907	17
6	434	990.923590532213	16
6	436	991.916379502635	16
6	442	1004.036309392494	17
6	444	1007.313294854891	18
6	447	1020.246273415445	18
6	448	1020.325695888115	17
6	455	1051.05383815064	16
6	459	1055.253222836611	16
6	462	1064.332896723178	17
6	469	1074.458734162069	18
6	473	1084.73509076389	19
6	475	1084.920010614221	20
6	477	1085.344176726577	21
6	479	1086.847302578806	22
6	481	1090.993272535036	23
6	486	1101.359118887311	24
6	488	1102.726871690193	25
6	490	1102.773859650864	26
6	492	1102.808703067666	27
6	495	1103.558692577001	28
6	498	1105.49852764354	29
6	499	1108.741022605418	29
6	501	1113.898576141939	29
6	502	1114.644259502355	29
6	503	1116.127240401738	28
6	505	1118.218172902397	28
6	507	1129.286243436009	29
6	508	1143.833479759843	29
6	509	1144.385885765708	28
6	511	1149.330667512377	28
6	512	1151.579103674739	28
6	513	1151.806677162934	27
6	514	1152.242161895034	26
6	515	1153.400045828066	25
6	516	1158.227585324999	24
6	517	1158.544445059153	23
6	518	1160.624726680043	22
6	519	1166.896735148441	21
6	521	1168.132939327389	21
6	522	1173.98146116615	21
6	523	1174.73019973099	20
6	524	1175.233482593332	19
6	526	1177.257572825815	19
6	527	1179.853467531472	19
6	529	1180.200759868871	19
6	531	1180.363532954243	20
6	532	1183.182423336558	20
6	536	1193.696432415785	20
6	540	1198.036362909496	21
6	543	1228.341762605485	21
6	544	1233.879026584957	20
6	545	1234.331985258807	19
6	549	1256.80320130424	19
6	551	1260.278666860487	19
6	553	1262.57149398774	19
6	555	1262.817832895913	20
6	557	1264.443793757312	21
6	558	1276.210850202536	21
6	559	1277.774379350349	20
6	563	1294.919102904814	19
6	564	1298.251477094927	18
6	565	1305.872582574148	17
6	569	1316.827869198588	17
6	571	1316.836966825172	18
6	573	1317.891645213725	19
6	579	1325.964751757203	20
6	587	1341.896319704022	21
6	612	1390.713665924599	22
6	614	1391.491145976173	23
6	616	1405.4524370926	23
6	617	1408.255934319552	22
6	618	1413.582950821502	21
6	619	1417.882072294544	20
6	620	1429.245959765623	19
6	621	1430.490790369568	18
6	623	1432.109599366781	18
6	625	1435.424498503776	19
6	627	1435.451453764455	20
6	629	1436.34740156385	21
6	630	1445.528422389769	21
6	631	1449.645136855257	20
6	638	1469.412760435132	19
6	640	1470.537153083715	19
6	644	1487.22351866662	19
6	645	1487.324511256985	18
6	647	1494.538245268396	18
6	648	1507.721670648877	18
6	649	1515.47040638545	17
6	653	1520.42257571502	17
6	657	1533.240568147096	18
6	659	1537.392676850934	19
6	665	1552.745797621676	20
6	669	1564.909420616986	21
6	671	1566.697454731817	22
6	674	1571.139574914787	23
6	679	1591.272968515485	24
6	681	1594.610548261298	24
6	683	1595.182544280602	24
6	685	1596.777140918567	25
6	686	1597.913620217935	25
6	687	1610.57965841844	24
6	688	1613.863543265423	23
6	690	1617.910615571711	23
6	691	1621.098542130558	23
6	693	1622.429547964932	23
6	699	1629.439667213029	24
6	711	1676.568257126997	25
6	714	1680.26691701325	26
6	715	1680.490804514962	26
6	716	1680.694563480242	25
6	718	1681.635368076538	25
6	725	1685.2420606866	26
6	734	1693.214085867151	27
6	736	1693.850338585547	28
6	739	1705.365906575477	29
6	742	1715.493217843594	29
6	743	1717.205688153258	28
6	747	1727.738594423032	28
6	749	1728.755936751132	28
6	750	1731.067902706764	27
6	752	1737.523578243873	27
6	760	1776.48107159176	28
6	761	1777.202489162388	28
6	763	1781.898375840307	28
6	765	1783.251380516264	29
6	767	1783.408564707176	30
6	769	1787.876282173172	31
6	770	1789.59938425067	31
6	771	1791.336434533825	30
6	773	1792.56691716898	30
6	774	1795.309117295987	30
6	778	1802.089588050119	30
6	783	1812.408404696471	31
6	785	1819.53721687603	31
6	787	1820.014028729581	31
6	789	1820.596842822519	32
6	790	1821.640064870346	32
6	792	1824.037007746774	32
6	793	1827.729564281366	32
6	794	1838.49538092246	31
6	796	1843.87114111351	31
6	797	1844.763614896621	31
6	798	1850.174842461011	30
6	799	1850.594454069277	29
6	801	1853.396838359014	29
6	803	1858.475513299252	30
6	804	1859.179655076945	30
6	805	1859.798697727814	29
6	806	1860.451217692221	28
6	810	1866.407257633678	27
6	817	1876.886942893869	27
6	820	1886.063619410735	28
6	821	1887.141107868531	28
6	822	1887.294694812835	27
6	824	1888.644437598973	27
6	826	1888.850596083817	28
6	833	1893.65186083956	29
6	838	1902.201910201055	30
6	840	1904.594850998163	31
6	844	1907.186420434709	32
6	852	1911.280504890157	33
6	856	1918.455621373657	34
6	859	1922.630736722385	35
6	865	1931.007132665202	36
6	867	1932.733605221341	37
6	869	1936.828397209545	37
6	870	1938.931262797996	36
6	872	1939.881984605495	36
6	877	1954.337475071124	37
6	878	1958.393084005079	37
6	880	1961.404136305048	37
6	881	1962.632590862461	37
6	882	1967.750523377706	36
6	884	1967.826872257726	36
6	888	1973.977769645519	37
6	891	1980.79880086202	38
6	892	1983.851064803019	38
6	893	1984.93064734335	37
6	894	1988.09734306291	36
6	896	1988.646059310834	36
6	898	1990.289519978881	37
6	899	1992.786265324397	37
6	900	1997.68204356122	36
6	902	1998.882624034751	36
6	903	2001.286137902719	36
6	907	2008.36420642778	35
6	908	2008.589017849332	34
6	910	2010.24701442697	34
6	911	2010.410474121615	34
6	913	2010.606594549351	34
6	914	2027.609968022624	34
6	915	2027.617027142321	33
6	917	2028.407657464782	33
6	918	2028.859570259969	33
6	919	2029.764859981068	32
6	921	2030.619084909051	32
6	925	2046.884535755182	33
6	927	2049.934755867752	34
6	929	2053.073870204826	35
6	931	2063.536240371679	36
6	933	2068.179391804684	37
6	940	2106.24467890276	38
6	942	2111.67201245948	39
6	946	2124.276576918475	40
6	948	2126.00628669928	41
6	953	2137.727488543402	42
6	956	2145.095894681443	43
6	961	2151.587321290818	44
6	964	2157.587890184407	45
6	966	2162.271208975925	45
6	968	2167.761515143486	45
6	972	2181.83866788825	46
6	974	2182.998930779226	47
6	976	2186.971821685187	47
6	980	2191.379152475978	47
6	982	2198.645378473554	47
6	983	2199.718786173567	46
6	984	2201.443579517598	45
6	985	2205.344373301121	44
6	987	2207.518507673308	44
6	992	2218.373340417633	45
6	993	2222.44254743625	45
6	994	2231.267367136455	44
6	995	2240.148967548955	43
6	996	2240.200985275315	42
6	997	2246.930783777509	41
6	998	2248.852597013427	40
6	1002	2252.326358034481	39
6	1003	2254.928780194657	38
6	1005	2262.688833919648	38
6	1006	2262.791730843016	38
6	1008	2266.771277960554	38
6	1012	2268.14123197056	39
6	1015	2274.229981918126	40
6	1016	2278.93430308903	40
6	1017	2280.402788953774	39
6	1018	2281.414124786757	38
6	1023	2295.928009914854	38
6	1025	2299.367600235415	39
6	1027	2300.503154335507	40
6	1029	2301.724759587071	41
6	1031	2301.953157066354	42
6	1035	2312.461229179055	42
6	1036	2313.495223340385	41
6	1038	2314.502394381873	41
6	1040	2315.683588688348	42
6	1041	2326.029706101424	42
6	1042	2332.545695499566	41
6	1043	2332.975617680975	40
6	1045	2339.842619891371	40
6	1046	2341.193348266316	40
6	1048	2342.657497307074	40
6	1050	2344.823868400702	41
6	1051	2355.857821447848	41
6	1052	2360.573162040299	40
6	1054	2364.105097919066	40
6	1055	2366.014213330133	40
6	1056	2369.594549305952	39
6	1062	2391.771816139766	39
6	1064	2391.87833102605	40
6	1066	2397.644739807356	41
6	1068	2398.975566228828	42
6	1070	2399.368096068654	43
6	1072	2402.805214477881	44
6	1076	2409.673769388734	45
6	1078	2417.435661793298	46
6	1079	2420.050856028123	46
6	1080	2423.152644175914	45
6	1086	2436.107939185418	45
6	1090	2437.320281692505	46
6	1092	2440.299984748182	47
6	1094	2455.702516081559	48
6	1099	2465.779298357275	49
6	1100	2466.695879935799	49
6	1104	2468.035048194316	49
6	1110	2480.2962639258	50
6	1112	2486.133993132066	51
6	1114	2488.977018924844	52
6	1118	2496.333642986052	52
6	1119	2496.82018637166	51
7	251	582.753698979729	303.12674211775
7	254	586.080548858842	295.61045220797
7	257	589.563048859796	291.59790200418
7	258	596.320152356755	274.87664452996
7	259	599.107781069189	274.24753123773
7	260	599.852979877539	260.04516570273
7	261	604.299049547021	242.71123508007
7	266	616.12700619486	245.6096435773
7	267	617.525437214503	236.37511782222
7	270	624.073727775682	241.07362101006
7	273	626.809533087476	241.60380122789
7	276	638.391187509216	251.15951368226
7	279	642.638768665131	251.17112364448
7	289	651.547334364602	259.75700670685
7	290	656.826991676483	256.58671700002
7	291	661.23727400137	258.38824200869
7	294	663.66464874022	255.38711005386
7	295	668.17154839737	252.34566934067
7	298	670.441730242722	202.43838157426
7	299	670.881875679603	191.1047131793
7	302	678.817630237179	181.17459736608
7	305	684.512162031504	183.44468860894
7	306	686.373228947046	156.65288821636
7	307	689.687070636088	159.02252689069
7	308	697.603327990134	132.97246631096
7	309	697.611689508801	114.32289210703
7	314	706.533710767462	117.81561040588
7	315	711.421126416232	104.36096922
7	316	715.384662313286	106.56756231106
7	319	721.195212272301	97.542530738265
7	320	724.628557329277	98.36034191802
7	321	724.845910869147	90.619571355175
7	322	727.706386993827	86.436626235879
7	344	784.966844055431	141.97420254233
7	345	790.006475608559	146.8805502317
7	348	798.114854196614	148.86359393207
7	351	802.753669448625	139.62172873027
7	354	813.879423537091	143.50581890945
7	357	816.736801983489	138.92522068703
7	358	822.035591596387	140.71044374823
7	359	829.931322925242	132.21736806395
7	360	837.916910429866	132.24632120119
7	361	838.871832886922	120.59350035093
7	362	842.344940788146	111.77357057885
7	363	848.421713876073	109.05092157809
7	364	850.320298945208	110.78928591314
7	365	851.187792121996	109.30197882778
7	366	860.559733109962	111.47520928263
7	367	869.158206704735	113.4509056145
7	368	870.517117145911	103.62974543035
7	369	874.253581129765	102.54364845348
7	372	878.778391694684	95.531182735684
7	375	883.040459023523	89.476842483569
7	419	963.057060281613	162.83208963743
7	422	965.880832689567	155.22249263915
7	431	988.758201845868	173.77220594414
7	432	989.971762904036	113.23470130216
7	433	990.660574981907	110.39722378168
7	434	990.923590532213	106.20852988551
7	446	1017.822154767608	132.91442751975
7	447	1020.246273415445	127.18827769475
7	448	1020.325695888115	122.70413005469
7	454	1046.933662959985	142.24639527955
7	455	1051.05383815064	144.90564870851
7	460	1059.462648849875	140.00122407668
7	496	1104.36223014188	180.89330563604
7	499	1108.741022605418	175.36898720866
7	502	1114.644259502355	179.40512895132
7	503	1116.127240401738	168.76606293572
7	508	1143.833479759843	178.12008485784
7	509	1144.385885765708	175.24158427023
7	512	1151.579103674739	173.13283626263
7	513	1151.806677162934	172.51572732544
7	514	1152.242161895034	166.87491326307
7	515	1153.400045828066	161.48366632543
7	516	1158.227585324999	163.3370874673
7	517	1158.544445059153	154.50813566666
7	518	1160.624726680043	153.31143182515
7	519	1166.896735148441	142.18395376269
7	522	1173.98146116615	122.17092200516
7	523	1174.73019973099	119.47697689438
7	524	1175.233482593332	110.90058587015
7	527	1179.853467531472	114.64081032511
7	532	1183.182423336558	108.72368917449
7	542	1226.705335785153	141.97024502126
7	543	1228.341762605485	143.42175199126
7	544	1233.879026584957	148.53484985838
7	545	1234.331985258807	147.48468268
7	550	1256.936748724971	165.94347618993
7	551	1260.278666860487	158.91954797318
7	558	1276.210850202536	173.48397851234
7	559	1277.774379350349	175.00051969948
7	562	1284.355852003141	181.54714893548
7	563	1294.919102904814	191.36041032781
7	564	1298.251477094927	192.75294945139
7	565	1305.872582574148	191.97400643221
7	602	1360.490880791968	242.27270788957
7	605	1371.984675151144	242.69843171514
7	608	1379.16678002452	229.83611251214
7	615	1401.355460531729	233.22252120434
7	616	1405.4524370926	228.19486426679
7	617	1408.255934319552	228.05517445068
7	618	1413.582950821502	233.21941786726
7	619	1417.882072294544	227.72427604821
7	620	1429.245959765623	235.54952734984
7	621	1430.490790369568	232.45442746007
7	630	1445.528422389769	191.3713390575
7	631	1449.645136855257	192.84193555102
7	634	1462.34075601034	199.7692620226
7	637	1468.46374491542	205.64591201951
7	638	1469.412760435132	204.96896667782
7	643	1486.859013541211	205.97700302302
7	644	1487.22351866662	174.07161477682
7	645	1487.324511256985	170.4966420584
7	648	1507.721670648877	190.8847038237
7	649	1515.47040638545	197.57876117173
7	661	1545.354769295933	219.39001753873
7	680	1592.099347441648	250.20302773763
7	681	1594.610548261298	230.82847225888
7	686	1597.913620217935	225.01584487588
7	687	1610.57965841844	229.83951429253
7	688	1613.863543265423	223.14987734082
7	691	1621.098542130558	229.60739615438
7	707	1670.089354151134	237.97975478435
7	712	1677.873547883686	242.44904937991
7	715	1680.490804514962	245.03935075051
7	716	1680.694563480242	244.34716191639
7	741	1710.055512070726	260.17781921478
7	742	1715.493217843594	251.63282393961
7	743	1717.205688153258	246.66853506954
7	748	1728.229113512258	255.2606482824
7	749	1728.755936751132	234.21769148274
7	750	1731.067902706764	211.86970608513
7	755	1753.950524541166	233.52794882615
7	758	1769.360555158919	236.11998701182
7	761	1777.202489162388	239.80981231145
7	770	1789.59938425067	239.43397135072
7	771	1791.336434533825	238.59063691215
7	774	1795.309117295987	230.399696679
7	784	1815.906642095123	249.20918736331
7	785	1819.53721687603	248.39764196124
7	790	1821.640064870346	230.36709635486
7	793	1827.729564281366	232.54702000076
7	794	1838.49538092246	241.71824000389
7	797	1844.763614896621	226.85299932491
7	798	1850.174842461011	227.74529449608
7	799	1850.594454069277	227.80476763051
7	804	1859.179655076945	229.73998786392
7	805	1859.798697727814	187.08980821841
7	806	1860.451217692221	183.88296056522
7	809	1863.999338255827	183.73242124258
7	810	1866.407257633678	184.77188955714
7	813	1875.456041020676	191.91694640666
7	818	1878.221301644499	192.9792409579
7	821	1887.141107868531	193.92702200138
7	822	1887.294694812835	193.44435622729
7	829	1890.531765056147	185.16585848067
7	834	1893.800360655475	170.9992763975
7	868	1934.217170492468	206.47857606944
7	869	1936.828397209545	199.30481896567
7	870	1938.931262797996	186.36559302288
7	875	1947.611096760202	190.06251390013
7	878	1958.393084005079	181.91201241332
7	881	1962.632590862461	180.73421502215
7	882	1967.750523377706	184.49914286144
7	889	1978.300046176072	194.8914814689
7	892	1983.851064803019	195.97478262985
7	893	1984.93064734335	192.36373017437
7	894	1988.09734306291	192.15150627806
7	899	1992.786265324397	190.69667727428
7	900	1997.68204356122	185.27363886475
7	903	2001.286137902719	181.27210917314
7	906	2007.882098574265	187.28525575175
7	907	2008.36420642778	184.32719868101
7	908	2008.589017849332	164.71787673582
7	911	2010.410474121615	157.0136357626
7	914	2027.609968022624	169.13445472337
7	915	2027.617027142321	164.58512002027
7	918	2028.859570259969	155.05217319238
7	919	2029.764859981068	152.99595566348
7	934	2083.443856891378	206.55691399751
7	965	2160.752186442532	274.6885670318
7	966	2162.271208975925	273.62677137695
7	975	2186.125000803687	297.27440471987
7	976	2186.971821685187	296.571842156
7	981	2191.448401438233	299.8190240927
7	982	2198.645378473554	304.99351763399
7	983	2199.718786173567	304.00424822945
7	984	2201.443579517598	299.24166931654
7	985	2205.344373301121	300.74952230296
7	990	2212.441116514447	305.25469607974
7	993	2222.44254743625	311.16204254609
7	994	2231.267367136455	312.8117457628
7	995	2240.148967548955	317.51823082657
7	996	2240.200985275315	309.19385261011
7	997	2246.930783777509	314.19717855617
7	998	2248.852597013427	308.97061240793
7	1001	2250.522862207628	310.25667899341
7	1002	2252.326358034481	297.98888296336
7	1003	2254.928780194657	293.52464388961
7	1006	2262.791730843016	294.96485858529
7	1013	2269.257571294481	299.58019317378
7	1016	2278.93430308903	304.95653344351
7	1017	2280.402788953774	299.60398809175
7	1018	2281.414124786757	292.76806547592
7	1021	2290.583472862334	300.29395288345
7	1034	2305.734244792061	306.85162075731
7	1035	2312.461229179055	307.35217134479
7	1036	2313.495223340385	303.24820891341
7	1041	2326.029706101424	315.42311155207
7	1042	2332.545695499566	304.13803803478
7	1043	2332.975617680975	302.35653277192
7	1046	2341.193348266316	303.47729958924
7	1051	2355.857821447848	308.97328569267
7	1052	2360.573162040299	310.63840617255
7	1055	2366.014213330133	312.94034312531
7	1056	2369.594549305952	306.05830893427
7	1074	2404.683959626881	336.5045678222
7	1079	2420.050856028123	323.68771305452
7	1080	2423.152644175914	316.90796527315
7	1097	2463.685354790978	352.0133423315
7	1100	2466.695879935799	342.41930301732
7	1105	2469.196279247491	343.18999254821
7	1108	2478.181584034611	340.45409549121
7	1117	2494.309237205001	349.21334252356
7	1118	2496.333642986052	344.74632169523
7	1119	2496.82018637166	339.23229618725
8	253	583.288797401775	6
8	256	588.718100361583	7
8	283	643.125925376857	8
8	324	730.571370209296	9
8	353	810.658340050417	10
8	379	884.907727247863	11
8	438	994.890497857697	12
8	450	1024.71278138575	13
8	457	1051.810539160986	14
8	464	1065.212657206365	15
8	534	1190.157796246335	16
8	547	1254.157083332267	17
8	561	1280.882010518192	18
8	567	1313.151903889802	19
8	604	1363.78207600242	20
8	607	1372.897775342055	21
8	610	1380.740144125913	22
8	633	1449.877692855951	23
8	636	1463.860393903988	24
8	642	1472.968465229854	25
8	651	1519.198196621634	26
8	663	1550.165412899953	27
8	695	1622.789686438765	28
8	709	1672.708889509399	29
8	720	1683.53909461402	30
8	745	1722.801084257979	31
8	754	1752.565669775121	32
8	757	1757.548582860074	33
8	776	1795.945836784854	34
8	808	1863.031907122048	35
8	812	1873.807397067592	36
8	815	1876.768904317585	37
8	828	1890.39997952919	38
8	831	1891.62937734553	39
8	836	1895.714537944116	40
8	874	1940.266183214219	41
8	886	1969.677378120698	42
8	905	2005.109057834261	43
8	923	2037.716048677079	44
8	936	2096.363142973599	45
8	970	2180.406746134353	46
8	978	2189.056782590741	47
8	989	2208.817946604845	48
8	1000	2249.007462530087	49
8	1010	2267.540485069693	50
8	1020	2284.914111308136	51
8	1033	2303.01610025261	52
8	1058	2370.815889430469	53
8	1082	2426.057704019991	54
8	1102	2467.123966566147	55
8	1107	2473.867866227238	56
8	1116	2489.726720628059	57
9	258	596.320152356755	28
9	259	599.107781069189	29
9	260	599.852979877539	30
9	261	604.299049547021	31
9	266	616.12700619486	32
9	267	617.525437214503	33
9	270	624.073727775682	34
9	273	626.809533087476	35
9	276	638.391187509216	36
9	279	642.638768665131	37
9	290	656.826991676483	38
9	291	661.23727400137	39
9	294	663.66464874022	40
9	295	668.17154839737	41
9	298	670.441730242722	42
9	299	670.881875679603	43
9	302	678.817630237179	44
9	305	684.512162031504	45
9	306	686.373228947046	46
9	307	689.687070636088	47
9	308	697.603327990134	48
9	309	697.611689508801	49
9	314	706.533710767462	50
9	315	711.421126416232	51
9	316	715.384662313286	52
9	319	721.195212272301	53
9	320	724.628557329277	54
9	321	724.845910869147	55
9	322	727.706386993827	56
9	345	790.006475608559	57
9	348	798.114854196614	58
9	351	802.753669448625	59
9	357	816.736801983489	60
9	358	822.035591596387	61
9	359	829.931322925242	62
9	360	837.916910429866	63
9	361	838.871832886922	64
9	362	842.344940788146	65
9	363	848.421713876073	66
9	364	850.320298945208	67
9	365	851.187792121996	68
9	366	860.559733109962	69
9	367	869.158206704735	70
9	368	870.517117145911	71
9	369	874.253581129765	72
9	372	878.778391694684	73
9	375	883.040459023523	74
9	422	965.880832689567	75
9	431	988.758201845868	76
9	432	989.971762904036	77
9	433	990.660574981907	78
9	434	990.923590532213	79
9	447	1020.246273415445	80
9	448	1020.325695888115	81
9	455	1051.05383815064	82
9	499	1108.741022605418	83
9	502	1114.644259502355	84
9	503	1116.127240401738	85
9	508	1143.833479759843	86
9	509	1144.385885765708	87
9	512	1151.579103674739	88
9	513	1151.806677162934	89
9	514	1152.242161895034	90
9	515	1153.400045828066	91
9	516	1158.227585324999	92
9	517	1158.544445059153	93
9	518	1160.624726680043	94
9	519	1166.896735148441	95
9	522	1173.98146116615	96
9	523	1174.73019973099	97
9	524	1175.233482593332	98
9	527	1179.853467531472	99
9	532	1183.182423336558	100
9	543	1228.341762605485	101
9	544	1233.879026584957	102
9	545	1234.331985258807	103
9	551	1260.278666860487	104
9	558	1276.210850202536	105
9	559	1277.774379350349	106
9	563	1294.919102904814	107
9	564	1298.251477094927	108
9	565	1305.872582574148	109
9	616	1405.4524370926	110
9	617	1408.255934319552	111
9	618	1413.582950821502	112
9	619	1417.882072294544	113
9	620	1429.245959765623	114
9	621	1430.490790369568	115
9	630	1445.528422389769	116
9	631	1449.645136855257	117
9	638	1469.412760435132	118
9	644	1487.22351866662	119
9	645	1487.324511256985	120
9	648	1507.721670648877	121
9	649	1515.47040638545	122
9	681	1594.610548261298	123
9	686	1597.913620217935	124
9	687	1610.57965841844	125
9	688	1613.863543265423	126
9	691	1621.098542130558	127
9	715	1680.490804514962	128
9	716	1680.694563480242	129
9	742	1715.493217843594	130
9	743	1717.205688153258	131
9	749	1728.755936751132	132
9	750	1731.067902706764	133
9	761	1777.202489162388	134
9	770	1789.59938425067	135
9	771	1791.336434533825	136
9	774	1795.309117295987	137
9	785	1819.53721687603	138
9	790	1821.640064870346	139
9	793	1827.729564281366	140
9	794	1838.49538092246	141
9	797	1844.763614896621	142
9	798	1850.174842461011	143
9	799	1850.594454069277	144
9	804	1859.179655076945	145
9	805	1859.798697727814	146
9	806	1860.451217692221	147
9	810	1866.407257633678	148
9	821	1887.141107868531	149
9	822	1887.294694812835	150
9	869	1936.828397209545	151
9	870	1938.931262797996	152
9	878	1958.393084005079	153
9	881	1962.632590862461	154
9	882	1967.750523377706	155
9	892	1983.851064803019	156
9	893	1984.93064734335	157
9	894	1988.09734306291	158
9	899	1992.786265324397	159
9	900	1997.68204356122	160
9	903	2001.286137902719	161
9	907	2008.36420642778	162
9	908	2008.589017849332	163
9	911	2010.410474121615	164
9	914	2027.609968022624	165
9	915	2027.617027142321	166
9	918	2028.859570259969	167
9	919	2029.764859981068	168
9	966	2162.271208975925	169
9	976	2186.971821685187	170
9	982	2198.645378473554	171
9	983	2199.718786173567	172
9	984	2201.443579517598	173
9	985	2205.344373301121	174
9	993	2222.44254743625	175
9	994	2231.267367136455	176
9	995	2240.148967548955	177
9	996	2240.200985275315	178
9	997	2246.930783777509	179
9	998	2248.852597013427	180
9	1002	2252.326358034481	181
9	1003	2254.928780194657	182
9	1006	2262.791730843016	183
9	1016	2278.93430308903	184
9	1017	2280.402788953774	185
9	1018	2281.414124786757	186
9	1035	2312.461229179055	187
9	1036	2313.495223340385	188
9	1041	2326.029706101424	189
9	1042	2332.545695499566	190
9	1043	2332.975617680975	191
9	1046	2341.193348266316	192
9	1051	2355.857821447848	193
9	1052	2360.573162040299	194
9	1055	2366.014213330133	195
9	1056	2369.594549305952	196
9	1079	2420.050856028123	197
9	1080	2423.152644175914	198
9	1100	2466.695879935799	199
9	1118	2496.333642986052	200
9	1119	2496.82018637166	201
10	258	596.320152356755	298.35500550114
10	259	599.107781069189	277.66427324239
10	260	599.852979877539	274.99273004608
10	261	604.299049547021	264.49123537221
10	266	616.12700619486	254.53919172791
10	267	617.525437214503	247.00807459694
10	270	624.073727775682	242.9234083834
10	273	626.809533087476	243.80942632185
10	276	638.391187509216	253.18545564963
10	279	642.638768665131	255.40709483817
10	290	656.826991676483	265.03666401873
10	291	661.23727400137	260.99699932491
10	294	663.66464874022	260.81561674754
10	295	668.17154839737	259.89400971101
10	298	670.441730242722	254.61585118602
10	299	670.881875679603	202.87852701114
10	302	678.817630237179	199.04046773688
10	305	684.512162031504	186.86912916041
10	306	686.373228947046	185.30575552449
10	307	689.687070636088	159.9667299054
10	308	697.603327990134	166.93878424473
10	309	697.611689508801	132.98082782962
10	314	706.533710767462	123.24491336569
10	315	711.421126416232	122.70302605465
10	316	715.384662313286	108.32450511706
10	319	721.195212272301	112.37811227008
10	320	724.628557329277	100.97587579524
10	321	724.845910869147	98.57769545789
10	322	727.706386993827	93.480047479855
10	345	790.006475608559	147.01383409546
10	348	798.114854196614	154.98892881976
10	351	802.753669448625	153.50240918409
10	357	816.736801983489	146.36319735585
10	358	822.035591596387	144.22401029993
10	359	829.931322925242	148.60617507709
10	360	837.916910429866	140.20295556857
10	361	838.871832886922	133.20124365825
10	362	842.344940788146	124.06660825215
10	363	848.421713876073	117.85034366678
10	364	850.320298945208	110.94950664723
10	365	851.187792121996	111.65677908992
10	366	860.559733109962	118.67391981574
10	367	869.158206704735	120.0736828774
10	368	870.517117145911	114.80981605568
10	369	874.253581129765	107.3662094142
10	372	878.778391694684	107.0684590184
10	375	883.040459023523	99.793250064523
10	422	965.880832689567	165.65586204539
10	431	988.758201845868	178.09986179545
10	432	989.971762904036	174.98576700231
10	433	990.660574981907	113.92351338003
10	434	990.923590532213	110.66023933198
10	447	1020.246273415445	135.33854616758
10	448	1020.325695888115	127.26770016742
10	455	1051.05383815064	146.36657047021
10	499	1108.741022605418	185.27209809958
10	502	1114.644259502355	181.27222410559
10	503	1116.127240401738	180.8881098507
10	508	1143.833479759843	196.47230229382
10	509	1144.385885765708	178.6724908637
10	512	1151.579103674739	182.43480217926
10	513	1151.806677162934	173.36040975082
10	514	1152.242161895034	172.95121205754
10	515	1153.400045828066	168.0327971961
10	516	1158.227585324999	166.31120582236
10	517	1158.544445059153	163.65394720146
10	518	1160.624726680043	156.58841728755
10	519	1166.896735148441	159.58344029355
10	522	1173.98146116615	149.2686797804
10	523	1174.73019973099	122.91966057
10	524	1175.233482593332	119.98025975672
10	527	1179.853467531472	115.52057080829
10	532	1183.182423336558	117.96976613019
10	543	1228.341762605485	143.60667184159
10	544	1233.879026584957	148.95901597074
10	545	1234.331985258807	148.98780853223
10	551	1260.278666860487	169.28539432545
10	558	1276.210850202536	174.85173131523
10	559	1277.774379350349	175.04750766016
10	563	1294.919102904814	192.11039983715
10	564	1298.251477094927	194.69278451793
10	565	1305.872582574148	200.37405493061
10	616	1405.4524370926	237.31949776521
10	617	1408.255934319552	230.99836149374
10	618	1413.582950821502	233.38219095263
10	619	1417.882072294544	237.5185393403
10	620	1429.245959765623	239.08816351929
10	621	1430.490790369568	236.79435795378
10	630	1445.528422389769	247.49205948027
10	631	1449.645136855257	195.48805352299
10	638	1469.412760435132	206.59492753922
10	644	1487.22351866662	206.34150814843
10	645	1487.324511256985	174.17260736718
10	648	1507.721670648877	190.89380145029
10	649	1515.47040638545	198.63343956028
10	681	1594.610548261298	252.71422855728
10	686	1597.913620217935	234.13154421551
10	687	1610.57965841844	237.68188307638
10	688	1613.863543265423	233.12339913951
10	691	1621.098542130558	230.38487620596
10	715	1680.490804514962	245.06630601119
10	716	1680.694563480242	245.24310971579
10	742	1715.493217843594	265.61552498764
10	743	1717.205688153258	253.34529424927
10	749	1728.755936751132	255.78747152128
10	750	1731.067902706764	236.52965743837
10	761	1777.202489162388	243.96192101529
10	770	1789.59938425067	252.20670739974
10	771	1791.336434533825	241.17102163387
10	774	1795.309117295987	242.56331967431
10	785	1819.53721687603	252.83976214421
10	790	1821.640064870346	250.50048995556
10	793	1827.729564281366	236.45659576588
10	794	1838.49538092246	243.31283664186
10	797	1844.763614896621	247.98647397805
10	798	1850.174842461011	232.2642268893
10	799	1850.594454069277	228.16490610434
10	804	1859.179655076945	236.38996863818
10	805	1859.798697727814	230.35903051478
10	806	1860.451217692221	187.74232818282
10	810	1866.407257633678	186.14034062043
10	821	1887.141107868531	201.89904718193
10	822	1887.294694812835	194.08060894568
10	869	1936.828397209545	209.08980278651
10	870	1938.931262797996	201.40768455412
10	878	1958.393084005079	200.844501145
10	881	1962.632590862461	186.1515192707
10	882	1967.750523377706	185.8521475374
10	892	1983.851064803019	200.44250009584
10	893	1984.93064734335	197.05436517018
10	894	1988.09734306291	195.53042589393
10	899	1992.786265324397	196.84042853954
10	900	1997.68204356122	195.5924555111
10	903	2001.286137902719	188.87773320625
10	907	2008.36420642778	187.76736360526
10	908	2008.589017849332	184.55201010256
10	911	2010.410474121615	166.5393330081
10	914	2027.609968022624	174.21312966361
10	915	2027.617027142321	169.14151384307
10	918	2028.859570259969	165.82766313792
10	919	2029.764859981068	155.95746291348
10	966	2162.271208975925	276.20758956519
10	976	2186.971821685187	298.12122560137
10	982	2198.645378473554	307.01600112802
10	983	2199.718786173567	306.06692533401
10	984	2201.443579517598	305.72904157348
10	985	2205.344373301121	303.14246310007
10	993	2222.44254743625	315.25612700154
10	994	2231.267367136455	319.9868622463
10	995	2240.148967548955	321.6933461753
10	996	2240.200985275315	317.57024855293
10	997	2246.930783777509	315.92365111231
10	998	2248.852597013427	316.11899179209
10	1002	2252.326358034481	312.06017482026
10	1003	2254.928780194657	300.59130512353
10	1006	2262.791730843016	301.38759453797
10	1016	2278.93430308903	309.25692496833
10	1017	2280.402788953774	306.42501930826
10	1018	2281.414124786757	300.61532392474
10	1035	2312.461229179055	313.5786051443
10	1036	2313.495223340385	308.38616550612
10	1041	2326.029706101424	315.78269167445
10	1042	2332.545695499566	321.93910095021
10	1043	2332.975617680975	304.56796021619
10	1046	2341.193348266316	310.57426335727
10	1051	2355.857821447848	318.14177277077
10	1052	2360.573162040299	313.68862628512
10	1055	2366.014213330133	316.07945746238
10	1056	2369.594549305952	316.52067910113
10	1079	2420.050856028123	351.87146422344
10	1080	2423.152644175914	326.78950120231
10	1100	2466.695879935799	355.02386747632
10	1118	2496.333642986052	351.23774830461
10	1119	2496.82018637166	345.23286508084
11	1120	2500	0.0804
12	1120	2500	0.0552

