version 2
run experiments_hard_game_mode1-1210-20230311-19:43:42-11099
attr configname experiments_hard_game_mode1
attr datetime 20230311-19:43:42
attr experiment experiments_hard_game_mode1
attr inifile omnetpp.ini
attr iterationvars "$0=9.5, $1=3, $2=0"
attr iterationvarsf 9.5,3,0-
attr measurement "$0=9.5, $1=3, $2=0"
attr network Network
attr processid 11099
attr repetition 10
attr replication #10
attr resultdir results
attr runnumber 1210
attr seedset 10
param *.boss.arrival_mean 20
param *.boss.service_mean 9.5
param *.minion.arrival_mean 10
param *.minion.service_mean 3
param *.player.recover_rate_x 0
param **.minion.arrival_distribution 0
param **.minion.service_distribution 0
param **.boss.arrival_distribution 0
param **.boss.service_distribution 0

vector 0 Network.player boss_defeated_stat:vector ETV
attr source signal_boss_defeated
vector 1 Network.player boss_jobs_queue_number_stat:vector ETV
attr source signal_boss_jobs_queue_number
vector 2 Network.player boss_response_time_stat:vector ETV
attr source signal_boss_response_time
vector 3 Network.player boss_waiting_time_stat:vector ETV
attr source signal_boss_waiting_time
vector 4 Network.player minion_waiting_time_stat:vector ETV
attr source signal_minion_waiting_time
vector 5 Network.player minion_defeated_stat:vector ETV
attr source signal_minion_defeated
vector 6 Network.player minion_jobs_queue_number_stat:vector ETV
attr source signal_minion_jobs_queue_number
vector 7 Network.player minion_response_time_stat:vector ETV
attr source signal_minion_response_time
vector 8 Network.player minion_jobs_number_stat:vector ETV
attr source signal_minion_jobs_number
vector 9 Network.player boss_jobs_number_stat:vector ETV
attr source signal_boss_jobs_number
vector 10 Network.player minion_recovered_stat:vector ETV
attr source signal_minion_recovered
vector 11 Network.player minion_throughput:vector ETV
attr source signal_minion_throughput
vector 12 Network.player boss_throughput:vector ETV
attr source signal_boss_throughput
0	171	350.916567284451	20
0	172	355.689787304325	21
0	173	357.204343178517	22
0	202	435.211687919477	23
0	210	445.534711093745	24
0	219	483.944620086349	25
0	244	542.944602731948	26
0	245	543.500989026236	27
0	256	572.906960916426	28
0	263	592.047255415783	29
0	292	650.560808875221	30
0	293	652.933732657028	31
0	304	676.089757257931	32
0	307	681.021930589481	33
0	312	700.557319900575	34
0	319	710.784173379763	35
0	320	712.541514684402	36
0	325	719.385054091349	37
0	328	724.492535354833	38
0	345	743.58138381884	39
0	350	753.636628888685	40
0	369	777.74086850804	41
0	374	786.947218274752	42
0	377	820.735174681801	43
0	382	825.647898743654	44
0	385	830.271986360927	45
0	413	873.33521080375	46
0	422	902.688140111224	47
0	425	910.381493136205	48
0	428	915.987961015174	49
0	429	921.30996205494	50
0	432	931.834333764451	51
0	437	933.632091349596	52
0	440	937.475365462952	53
0	448	948.783600518714	54
0	458	982.341112213375	55
0	480	1044.588650353345	56
0	483	1063.814045699106	57
0	500	1088.246779732374	58
0	501	1091.136913222787	59
0	515	1117.131117824722	60
0	519	1132.049011286345	61
0	538	1160.000947166436	62
0	539	1167.444340881116	63
0	550	1176.112620397074	64
0	551	1182.24480958794	65
0	564	1198.790414965387	66
0	588	1241.2187768043	67
0	603	1290.310666658238	68
0	649	1392.384183805628	69
0	650	1397.184829652032	70
0	671	1428.388486894564	71
0	674	1448.090342377002	72
0	687	1470.981997296017	73
0	700	1502.41156151116	74
0	707	1509.488860847848	75
0	710	1524.54933314459	76
0	711	1525.592775291051	77
0	712	1526.790497996135	78
0	715	1528.686383718504	79
0	716	1555.034348293879	80
0	731	1584.08975491058	81
0	732	1585.67241608669	82
0	735	1590.716425658495	83
0	736	1596.800592616345	84
0	739	1615.82536228893	85
0	742	1624.746264885971	86
0	753	1635.341446888786	87
0	756	1638.260064856448	88
0	761	1647.674336950943	89
0	768	1671.906288130618	90
0	769	1674.96865721102	91
0	785	1712.285980158896	92
0	796	1733.856448564417	93
0	797	1735.23223575744	94
0	802	1737.434288978592	95
0	805	1752.940664959209	96
0	808	1757.863515323883	97
0	815	1781.493216192811	98
0	830	1829.441317693428	99
0	833	1836.663355194472	100
0	834	1849.30569799163	101
0	849	1872.210549326569	102
0	869	1904.152974151237	103
0	876	1919.326563803402	104
0	910	1974.421778000487	105
0	924	1990.877401447742	106
0	945	2026.739424908681	107
0	972	2078.39004745449	108
0	984	2104.513712157418	109
0	998	2126.078860424505	110
0	1013	2173.994886835155	111
0	1017	2177.555797736641	112
0	1022	2189.450891345099	113
0	1028	2201.264229950839	114
0	1029	2212.852485103808	115
0	1036	2229.09866857112	116
0	1037	2238.033234812966	117
0	1052	2280.792710272519	118
0	1064	2296.037651019462	119
0	1092	2342.3991385455	120
0	1093	2344.591500119421	121
0	1105	2379.099901236109	122
0	1108	2381.209812679913	123
0	1123	2406.723059608373	124
0	1137	2435.470646650607	125
0	1142	2444.967091288869	126
0	1145	2450.138023518271	127
1	171	350.916567284451	2
1	172	355.689787304325	1
1	173	357.204343178517	0
1	199	419.824288542282	0
1	202	435.211687919477	0
1	209	445.426883461239	0
1	210	445.534711093745	0
1	218	481.155473799364	0
1	219	483.944620086349	0
1	239	536.946986058516	0
1	241	541.720738592907	1
1	243	541.736319955185	2
1	244	542.944602731948	2
1	245	543.500989026236	1
1	247	545.749899725905	1
1	256	572.906960916426	1
1	263	592.047255415783	0
1	287	642.852204457678	0
1	289	646.904432915695	1
1	292	650.560808875221	1
1	293	652.933732657028	0
1	301	666.123998518003	0
1	303	673.379073049835	1
1	304	676.089757257931	1
1	307	681.021930589481	0
1	311	692.296201596188	0
1	312	700.557319900575	0
1	316	707.174758416955	0
1	318	707.316586279335	1
1	319	710.784173379763	1
1	320	712.541514684402	0
1	322	718.627327699064	0
1	324	719.093978241006	1
1	325	719.385054091349	1
1	328	724.492535354833	0
1	332	725.978438086876	0
1	342	740.857761909457	1
1	345	743.58138381884	1
1	350	753.636628888685	0
1	354	759.785179545867	0
1	362	769.99705848	1
1	366	773.001749095169	2
1	368	773.957541426202	3
1	369	777.74086850804	3
1	373	780.867851638882	3
1	374	786.947218274752	3
1	377	820.735174681801	2
1	382	825.647898743654	1
1	385	830.271986360927	0
1	398	853.673845421965	0
1	402	862.799389841877	1
1	410	868.098797839271	2
1	413	873.33521080375	2
1	417	880.277491819915	2
1	419	882.177038103687	3
1	422	902.688140111224	3
1	425	910.381493136205	2
1	427	912.935758198835	2
1	428	915.987961015174	2
1	429	921.30996205494	1
1	432	931.834333764451	0
1	434	932.202672012874	0
1	437	933.632091349596	0
1	439	936.657389288969	0
1	440	937.475365462952	0
1	447	946.297682443241	0
1	448	948.783600518714	0
1	453	960.738265453186	0
1	458	982.341112213375	0
1	479	1042.502595974247	0
1	480	1044.588650353345	0
1	482	1060.452690583967	0
1	483	1063.814045699106	0
1	491	1073.028472791389	0
1	493	1073.979749661901	1
1	500	1088.246779732374	1
1	501	1091.136913222787	0
1	514	1113.293494763991	0
1	515	1117.131117824722	0
1	518	1132.000155132253	0
1	519	1132.049011286345	0
1	533	1154.808071207918	0
1	537	1158.547296278815	1
1	538	1160.000947166436	1
1	539	1167.444340881116	0
1	541	1170.522199205898	0
1	545	1171.867477851254	1
1	547	1172.13455232041	2
1	550	1176.112620397074	2
1	551	1182.24480958794	1
1	564	1198.790414965387	0
1	587	1231.608305717097	0
1	588	1241.2187768043	0
1	602	1288.624242739881	0
1	603	1290.310666658238	0
1	644	1356.036850805122	0
1	646	1372.606487445524	1
1	649	1392.384183805628	1
1	650	1397.184829652032	0
1	656	1405.653119015198	0
1	658	1415.389328740932	1
1	662	1422.655085990457	2
1	664	1422.976987813847	3
1	668	1425.03253417898	4
1	671	1428.388486894564	4
1	673	1430.283059070374	4
1	674	1448.090342377002	4
1	680	1453.338074498799	4
1	682	1458.853815662555	5
1	686	1470.455632448849	6
1	687	1470.981997296017	6
1	697	1493.449335598144	6
1	699	1496.052380205525	7
1	700	1502.41156151116	7
1	707	1509.488860847848	6
1	709	1514.884379549808	6
1	710	1524.54933314459	6
1	711	1525.592775291051	5
1	712	1526.790497996135	4
1	714	1528.555324124831	4
1	715	1528.686383718504	4
1	716	1555.034348293879	3
1	718	1564.373909976404	3
1	720	1565.073784446035	4
1	722	1568.88161662372	5
1	731	1584.08975491058	5
1	732	1585.67241608669	4
1	735	1590.716425658495	3
1	736	1596.800592616345	2
1	739	1615.82536228893	1
1	741	1616.890074396541	1
1	742	1624.746264885971	1
1	744	1626.810805176556	1
1	750	1632.799960695581	2
1	753	1635.341446888786	2
1	755	1636.823592669957	2
1	756	1638.260064856448	2
1	761	1647.674336950943	1
1	767	1658.548708404319	1
1	768	1671.906288130618	1
1	769	1674.96865721102	0
1	774	1686.708174305305	0
1	776	1694.179105853179	1
1	784	1705.252233173425	2
1	785	1712.285980158896	2
1	789	1719.93445107556	2
1	791	1724.59685573388	3
1	796	1733.856448564417	3
1	797	1735.23223575744	2
1	802	1737.434288978592	1
1	804	1740.42133159935	1
1	805	1752.940664959209	1
1	807	1757.194056480443	1
1	808	1757.863515323883	1
1	810	1761.281828584842	1
1	812	1761.918109262225	2
1	815	1781.493216192811	2
1	830	1829.441317693428	1
1	832	1831.77425238343	1
1	833	1836.663355194472	1
1	834	1849.30569799163	0
1	848	1868.713537013691	0
1	849	1872.210549326569	0
1	866	1898.558444776125	0
1	869	1904.152974151237	0
1	875	1910.506246022932	0
1	876	1919.326563803402	0
1	905	1966.608133512492	0
1	910	1974.421778000487	0
1	915	1976.663636876505	0
1	924	1990.877401447742	0
1	942	2021.706676798273	0
1	945	2026.739424908681	0
1	971	2073.959348802285	0
1	972	2078.39004745449	0
1	977	2092.180436930985	0
1	984	2104.513712157418	0
1	993	2118.166042985004	0
1	998	2126.078860424505	0
1	1012	2169.154750841632	0
1	1013	2173.994886835155	0
1	1016	2177.061307273094	0
1	1017	2177.555797736641	0
1	1019	2178.914416394662	0
1	1022	2189.450891345099	0
1	1025	2195.814478513715	0
1	1027	2200.177172437229	1
1	1028	2201.264229950839	1
1	1029	2212.852485103808	0
1	1031	2214.891347264506	0
1	1033	2215.816986545285	1
1	1036	2229.09866857112	1
1	1037	2238.033234812966	0
1	1051	2280.78927417951	0
1	1052	2280.792710272519	0
1	1063	2288.659915777357	0
1	1064	2296.037651019462	0
1	1083	2325.886460952761	0
1	1087	2335.729066720743	1
1	1092	2342.3991385455	1
1	1093	2344.591500119421	0
1	1098	2363.241703758442	0
1	1100	2369.572912620892	1
1	1105	2379.099901236109	1
1	1108	2381.209812679913	0
1	1116	2385.090107213244	0
1	1123	2406.723059608373	0
1	1132	2420.381264551342	0
1	1137	2435.470646650607	0
1	1141	2438.055371942036	0
1	1142	2444.967091288869	0
1	1144	2446.879911890008	0
1	1145	2450.138023518271	0
2	171	350.916567284451	2.740715074245
2	172	355.689787304325	7.097948842875
2	173	357.204343178517	7.451200718694
2	202	435.211687919477	15.387399377195
2	210	445.534711093745	0.107827632506
2	219	483.944620086349	2.789146286985
2	244	542.944602731948	5.997616673432
2	245	543.500989026236	1.780250433329
2	256	572.906960916426	31.170640961241
2	263	592.047255415783	46.297355689878
2	292	650.560808875221	7.708604417543
2	293	652.933732657028	6.029299741333
2	304	676.089757257931	9.965758739928
2	307	681.021930589481	7.642857539646
2	312	700.557319900575	8.261118304387
2	319	710.784173379763	3.609414962808
2	320	712.541514684402	5.224928405067
2	325	719.385054091349	0.757726392285
2	328	724.492535354833	5.398557113827
2	345	743.58138381884	17.602945731964
2	350	753.636628888685	12.778866979228
2	369	777.74086850804	17.955688962173
2	374	786.947218274752	16.950159794752
2	377	820.735174681801	47.733425586632
2	382	825.647898743654	51.690357317452
2	385	830.271986360927	49.404134722045
2	413	873.33521080375	19.661365381785
2	422	902.688140111224	39.888750269347
2	425	910.381493136205	42.282695296934
2	428	915.987961015174	35.710469195259
2	429	921.30996205494	39.132923951253
2	432	931.834333764451	18.898575565616
2	437	933.632091349596	1.429419336722
2	440	937.475365462952	0.817976173983
2	448	948.783600518714	2.485918075473
2	458	982.341112213375	21.602846760189
2	480	1044.588650353345	2.086054379098
2	483	1063.814045699106	3.361355115139
2	500	1088.246779732374	15.218306940985
2	501	1091.136913222787	17.157163560886
2	515	1117.131117824722	3.837623060731
2	519	1132.049011286345	0.048856154092
2	538	1160.000947166436	5.192875958518
2	539	1167.444340881116	8.897044602301
2	550	1176.112620397074	5.590421191176
2	551	1182.24480958794	10.377331736686
2	564	1198.790414965387	26.655862644977
2	588	1241.2187768043	9.610471087203
2	603	1290.310666658238	1.686423918357
2	649	1392.384183805628	36.347333000506
2	650	1397.184829652032	24.578342206508
2	671	1428.388486894564	22.735367879366
2	674	1448.090342377002	32.70101363607
2	687	1470.981997296017	48.32691130556
2	700	1502.41156151116	79.434573697313
2	707	1509.488860847848	84.456326668868
2	710	1524.54933314459	94.266274074216
2	711	1525.592775291051	72.254700792252
2	712	1526.790497996135	67.93668233358
2	715	1528.686383718504	58.230751269655
2	716	1555.034348293879	61.585012695735
2	731	1584.08975491058	88.037374705055
2	732	1585.67241608669	70.788036536882
2	735	1590.716425658495	62.161101533664
2	736	1596.800592616345	32.426682639941
2	739	1615.82536228893	50.751577842895
2	742	1624.746264885971	55.864648262251
2	753	1635.341446888786	18.451372492245
2	756	1638.260064856448	11.449259679892
2	761	1647.674336950943	14.874376255362
2	768	1671.906288130618	35.082695460661
2	769	1674.96865721102	16.419948806701
2	785	1712.285980158896	25.577805853591
2	796	1733.856448564417	39.677342711238
2	797	1735.23223575744	29.980002584015
2	802	1737.434288978592	17.499837903032
2	805	1752.940664959209	28.343809225329
2	808	1757.863515323883	17.442183724533
2	815	1781.493216192811	24.299159712368
2	830	1829.441317693428	68.159489108586
2	833	1836.663355194472	74.745245932247
2	834	1849.30569799163	17.5314456082
2	849	1872.210549326569	3.497012312878
2	869	1904.152974151237	5.594529375112
2	876	1919.326563803402	8.82031778047
2	910	1974.421778000487	7.813644487995
2	924	1990.877401447742	14.213764571237
2	945	2026.739424908681	5.032748110408
2	972	2078.39004745449	4.430698652205
2	984	2104.513712157418	12.333275226433
2	998	2126.078860424505	7.912817439501
2	1013	2173.994886835155	4.840135993523
2	1017	2177.555797736641	0.494490463547
2	1022	2189.450891345099	10.536474950437
2	1028	2201.264229950839	5.449751437124
2	1029	2212.852485103808	12.675312666579
2	1036	2229.09866857112	14.207321306614
2	1037	2238.033234812966	22.216248267681
2	1052	2280.792710272519	0.003436093009
2	1064	2296.037651019462	7.377735242105
2	1092	2342.3991385455	16.512677592739
2	1093	2344.591500119421	8.862433398678
2	1105	2379.099901236109	15.858197477667
2	1108	2381.209812679913	11.636900059021
2	1123	2406.723059608373	21.632952395129
2	1137	2435.470646650607	15.089382099265
2	1142	2444.967091288869	6.911719346833
2	1145	2450.138023518271	3.258111628263
3	171	350.916567284451	2.324728823001
3	172	355.689787304325	5.936644844502
3	199	419.824288542282	0
3	209	445.426883461239	0
3	218	481.155473799364	0
3	239	536.946986058516	0
3	244	542.944602731948	1.223864139041
3	245	543.500989026236	1.764669071051
3	256	572.906960916426	27.157061190521
3	287	642.852204457678	0
3	292	650.560808875221	3.656375959526
3	301	666.123998518003	0
3	304	676.089757257931	2.710684208096
3	311	692.296201596188	0
3	316	707.174758416955	0
3	319	710.784173379763	3.467587100428
3	322	718.627327699064	0
3	325	719.385054091349	0.291075850343
3	332	725.978438086876	0
3	345	743.58138381884	2.723621909383
3	354	759.785179545867	0
3	369	777.74086850804	7.74381002804
3	374	786.947218274752	13.945469179583
3	377	820.735174681801	46.777633255599
3	382	825.647898743654	44.780047104772
3	398	853.673845421965	0
3	413	873.33521080375	10.535820961873
3	422	902.688140111224	34.589342271953
3	425	910.381493136205	30.10400131629
3	428	915.987961015174	33.810922911487
3	429	921.30996205494	8.374203856105
3	434	932.202672012874	0
3	439	936.657389288969	0
3	447	946.297682443241	0
3	453	960.738265453186	0
3	479	1042.502595974247	0
3	482	1060.452690583967	0
3	491	1073.028472791389	0
3	500	1088.246779732374	14.267030070473
3	514	1113.293494763991	0
3	518	1132.000155132253	0
3	533	1154.808071207918	0
3	538	1160.000947166436	1.453650887621
3	541	1170.522199205898	0
3	550	1176.112620397074	4.24514254582
3	551	1182.24480958794	10.11025726753
3	587	1231.608305717097	0
3	602	1288.624242739881	0
3	644	1356.036850805122	0
3	649	1392.384183805628	19.777696360104
3	656	1405.653119015198	0
3	671	1428.388486894564	12.999158153632
3	674	1448.090342377002	25.435256386545
3	687	1470.981997296017	48.00500948217
3	700	1502.41156151116	77.37902733218
3	707	1509.488860847848	79.205801777474
3	710	1524.54933314459	71.211258645791
3	711	1525.592775291051	66.738959628496
3	712	1526.790497996135	56.334865547286
3	715	1528.686383718504	35.23704812036
3	716	1555.034348293879	58.981968088354
3	731	1584.08975491058	69.205375360772
3	732	1585.67241608669	57.117091961859
3	735	1590.716425658495	26.342515682091
3	736	1596.800592616345	31.72680817031
3	739	1615.82536228893	46.94374566521
3	742	1624.746264885971	7.85619048943
3	753	1635.341446888786	8.53064171223
3	756	1638.260064856448	5.460104160867
3	761	1647.674336950943	10.850744280986
3	768	1671.906288130618	13.357579726299
3	774	1686.708174305305	0
3	785	1712.285980158896	18.106874305717
3	796	1733.856448564417	28.604215390992
3	797	1735.23223575744	15.29778468188
3	802	1737.434288978592	12.837433244712
3	805	1752.940664959209	12.519333359859
3	808	1757.863515323883	0.66945884344
3	815	1781.493216192811	20.211387607969
3	830	1829.441317693428	67.523208431203
3	833	1836.663355194472	4.889102811042
3	848	1868.713537013691	0
3	866	1898.558444776125	0
3	875	1910.506246022932	0
3	905	1966.608133512492	0
3	915	1976.663636876505	0
3	942	2021.706676798273	0
3	971	2073.959348802285	0
3	977	2092.180436930985	0
3	993	2118.166042985004	0
3	1012	2169.154750841632	0
3	1016	2177.061307273094	0
3	1019	2178.914416394662	0
3	1025	2195.814478513715	0
3	1028	2201.264229950839	1.08705751361
3	1031	2214.891347264506	0
3	1036	2229.09866857112	13.281682025835
3	1051	2280.78927417951	0
3	1063	2288.659915777357	0
3	1083	2325.886460952761	0
3	1092	2342.3991385455	6.670071824757
3	1098	2363.241703758442	0
3	1105	2379.099901236109	9.526988615217
3	1116	2385.090107213244	0
3	1132	2420.381264551342	0
3	1141	2438.055371942036	0
3	1144	2446.879911890008	0
4	173	357.204343178517	7.864199528476
4	176	367.376450425266	0
4	179	384.176460755635	0
4	182	386.436038687455	0
4	185	391.952056832985	0
4	188	395.813839015567	1.947723193608
4	191	404.473974224828	0
4	194	410.436848643051	0
4	197	418.962261761174	0
4	202	435.211687919477	15.387399377195
4	203	437.803131770033	7.760460718299
4	206	441.443807283647	0
4	212	473.00260902335	0
4	215	475.369278079737	0
4	221	493.286867919828	0
4	224	501.939221806893	0
4	227	509.038289566614	0
4	230	518.619025209951	0
4	233	528.562184431506	0
4	236	530.409486620472	0
4	263	592.047255415783	43.617568177905
4	264	594.675625752721	41.823434906403
4	267	598.281366441317	39.499203785249
4	268	598.597552556994	38.812427505242
4	271	607.443786758328	33.291603467259
4	272	611.500647045485	29.72350631226
4	277	614.427939163195	22.519415696271
4	278	614.688530186845	19.442645267156
4	279	615.869737278872	16.125043534571
4	280	616.274530784677	2.219557629415
4	281	616.517156705018	2.315365565319
4	284	639.373022439287	0
4	293	652.933732657028	5.752179229538
4	296	658.412344747376	0
4	299	662.241880940892	0
4	307	681.021930589481	14.897932071478
4	312	700.557319900575	20.822230230782
4	313	704.877678832471	23.576163961084
4	314	705.867367494549	13.571165898361
4	320	712.541514684402	5.366756267447
4	328	724.492535354833	5.865207655769
4	329	724.580645840593	4.826588970126
4	350	753.636628888685	25.922088073491
4	351	756.255063177577	27.691904526062
4	352	758.166009936603	27.526688083974
4	385	830.271986360927	92.220069292426
4	386	834.71330152646	91.570089201759
4	387	839.385819803149	93.341952597763
4	390	842.072741021708	93.284002640923
4	391	842.810779067703	83.025599521836
4	394	847.372904932773	86.199429148148
4	395	851.759455963156	90.212544947673
4	396	853.036254894817	90.876493832775
4	432	931.834333764451	161.26865768206
4	437	933.632091349596	154.5757029594
4	440	937.475365462952	132.80997772815
4	441	938.785853758675	117.64437663904
4	442	939.101061846343	115.98659183835
4	443	940.953424344323	111.11952178641
4	444	944.495257341571	102.51850796831
4	445	945.33597748849	100.58201767868
4	448	948.783600518714	95.109755096749
4	449	955.365076765868	97.88100309203
4	450	956.361706226554	92.271180169195
4	451	957.750521767786	93.344428293277
4	458	982.341112213375	117.93106169776
4	459	982.510757923501	109.35820532781
4	460	988.734041902764	108.55352124191
4	463	993.593840187297	101.4507068911
4	464	994.055983771254	88.154839634397
4	465	994.326150425017	64.361817887485
4	466	995.311961938952	63.109289926078
4	467	998.77864224385	65.761566355141
4	468	1000.385412723817	63.728023434848
4	469	1003.566958035563	57.269275592322
4	470	1004.993154308014	44.254888854828
4	471	1007.256367410522	40.217915039887
4	472	1009.49075731035	38.723995725659
4	473	1012.558616922311	23.729445451517
4	476	1033.712953239657	0
4	485	1063.897103797653	0
4	488	1067.205057491134	0
4	501	1091.136913222787	16.873066201687
4	502	1094.667890301686	18.597468116543
4	503	1098.987012482511	20.75368965475
4	506	1100.820633055485	0
4	509	1101.542520841805	0
4	512	1111.342333799117	0
4	515	1117.131117824722	3.837623060731
4	521	1137.351662066246	0
4	524	1143.757808395093	0
4	527	1148.722540957953	0
4	530	1151.992584731014	1.386984439227
4	539	1167.444340881116	11.593369832952
4	564	1198.790414965387	28.268215759489
4	567	1204.296605155465	32.532393134656
4	568	1206.569871864633	32.931453871668
4	569	1210.000589322385	26.956601781071
4	574	1214.617159397062	30.153559098379
4	579	1220.580104522533	34.28541366551
4	580	1221.44738163022	28.01958807861
4	585	1228.721863255539	34.769634234148
4	588	1241.2187768043	43.100112054818
4	589	1246.286501646019	42.045158407097
4	590	1246.529734446638	36.183413957959
4	593	1251.841158909226	37.508534957856
4	594	1252.29753789861	37.466696735094
4	595	1252.379950721933	32.430863799744
4	596	1254.330797615345	31.416501813534
4	597	1255.157851589559	31.864580789208
4	598	1257.08026579517	25.471960078073
4	599	1257.28339611461	8.595191277654
4	605	1290.898130123353	0
4	608	1292.134440060981	0.311277937819
4	611	1294.576402543527	0
4	614	1304.070144681555	0
4	617	1306.027610017938	0.186694874424
4	620	1319.757161600396	0
4	623	1323.432945874271	0
4	626	1329.748623566149	0
4	629	1331.472350562202	0.789844726939
4	632	1340.718512005517	0
4	635	1345.187440574485	0
4	638	1350.785968730655	0
4	641	1352.286864856484	1.414684005666
4	650	1397.184829652032	14.577807459419
4	653	1400.916642425074	0
4	769	1674.96865721102	252.86130060723
4	770	1676.393678900236	251.4220643343
4	834	1849.30569799163	423.07616930071
4	835	1849.989023385327	398.51731968219
4	838	1853.394295467717	401.11646118315
4	841	1854.753009019311	391.78783534501
4	842	1859.281009975695	373.7644867271
4	845	1862.923309069905	375.20077061608
4	846	1866.999217075394	379.15512138204
4	849	1872.210549326569	382.29114240738
4	852	1876.606702260887	372.99320653378
4	855	1880.04935209201	375.74612408167
4	856	1880.792315912711	375.05359193038
4	857	1881.109094148439	309.32928242576
4	858	1882.733763168271	309.35516310283
4	859	1883.360176709496	308.49280196596
4	862	1887.576300797531	306.62619925617
4	863	1889.747124565321	300.33511227018
4	864	1895.600372317389	288.8254807758
4	869	1904.152974151237	277.24192093937
4	876	1919.326563803402	287.27894078888
4	877	1919.426025784753	285.62332085273
4	878	1920.989569540228	276.44202492493
4	879	1921.62936478071	276.42954351488
4	882	1929.826988094657	279.78912289697
4	885	1935.135277475114	284.85227321621
4	886	1938.03739720316	260.83357853178
4	887	1942.404198805432	255.69602450013
4	888	1942.479660813532	248.25140736711
4	889	1942.750547954488	246.99769783411
4	890	1944.993914210386	248.06534621993
4	891	1946.328256255739	229.26095844046
4	892	1953.531838025833	227.7938150938
4	893	1955.232651347205	222.6988489259
4	894	1956.945032905389	221.22598548037
4	895	1957.390533970913	220.24345040406
4	896	1959.424881684541	190.4921298542
4	897	1961.563766880302	171.73122824501
4	898	1963.546863912711	163.34493886688
4	899	1963.813342169368	162.41551825
4	902	1964.294415701792	150.87714780284
4	903	1965.112678643803	144.2667265937
4	910	1974.421778000487	153.31277795841
4	913	1975.883485267255	151.43524646972
4	924	1990.877401447742	139.11402546083
4	925	1992.76025782921	138.99715677795
4	926	1999.251831460351	137.63609709571
4	927	2000.991363128549	132.27782611486
4	928	2003.286895709718	130.6840745117
4	929	2003.684292999022	124.32821941214
4	930	2004.478973461594	117.79061177827
4	931	2004.660996866062	106.10255208994
4	932	2007.504193415017	105.06217436289
4	933	2009.036904218753	103.17558973203
4	934	2010.260784523208	100.48337652737
4	935	2013.883524806703	103.37727878377
4	938	2019.233475695175	97.050780258829
4	945	2026.739424908681	96.580811022421
4	946	2027.953238281429	64.041096958369
4	947	2029.258874052107	62.650740539615
4	948	2030.245131646724	56.92615504607
4	949	2030.412280558399	57.050970790835
4	950	2031.758841266948	56.642259145966
4	953	2032.984746276469	56.321109399964
4	954	2034.477343155336	56.904376082075
4	955	2035.645193142003	56.568557950707
4	956	2036.029849818929	50.767906528045
4	957	2036.589233241444	47.285778381204
4	958	2039.821607839035	24.466925905491
4	959	2041.066250197666	20.517810976179
4	960	2042.592519689684	20.885842891411
4	961	2043.226826131025	17.501011393887
4	962	2045.710389401669	13.691304913079
4	965	2055.502620266609	0
4	968	2060.575503583687	0
4	974	2084.709706378142	0
4	984	2104.513712157418	11.573867608582
4	985	2105.292111539334	6.255022124391
4	986	2106.552673352096	3.961535741077
4	989	2116.368780264422	0
4	998	2126.078860424505	9.596259375736
4	999	2126.363567273492	8.197524288488
4	1000	2128.850212722466	9.526149080754
4	1001	2130.056318479881	6.382043834625
4	1004	2138.040682945383	0
4	1007	2150.885637978048	0
4	1010	2167.367114672204	0
4	1013	2173.994886835155	4.840135993523
4	1022	2189.450891345099	3.415997347222
4	1037	2238.033234812966	16.806154882645
4	1040	2239.617999866823	0.728730264171
4	1043	2254.483068097837	0
4	1046	2271.075409916749	0
4	1049	2280.771826103366	0
4	1052	2280.792710272519	0.003436093009
4	1055	2283.864084695993	0
4	1058	2285.228315646586	0.858565805296
4	1061	2288.442495856882	0
4	1064	2296.037651019462	7.377735242105
4	1067	2297.682127169254	0.101881144566
4	1070	2309.781809862415	0
4	1079	2320.875769193888	8.102956439016
4	1080	2321.497270806804	7.975947578549
4	1081	2321.894063463113	3.561496009417
4	1093	2344.591500119421	25.722947667246
4	1094	2353.350535094314	27.464074141553
4	1095	2361.602940737769	33.696209304766
4	1096	2361.900942565983	25.035042132249
4	1108	2381.209812679913	41.405988180682
4	1109	2382.787066667913	19.545362909471
4	1112	2383.733143193884	12.585376373876
4	1113	2384.387823519343	13.235789139376
4	1114	2384.815706941985	3.92850316028
4	1123	2406.723059608373	23.534075348566
4	1124	2406.859423567125	21.769316353881
4	1127	2416.458745149244	30.061071389575
4	1128	2417.164765630702	26.046133420262
4	1137	2435.470646650607	34.879340752224
4	1142	2444.967091288869	37.451162936942
4	1145	2450.138023518271	32.008014802271
4	1146	2451.830686086361	31.449421535019
4	1147	2452.318299136601	28.439471997148
4	1148	2456.775232624538	26.741663251191
4	1149	2457.482706929403	21.937649190569
4	1154	2461.779322147588	23.723950205552
4	1157	2466.195330283387	19.315418393379
4	1158	2470.114853850457	12.423395680862
4	1159	2471.362500363174	10.22354637303
4	1164	2474.696359219759	12.402704638866
4	1165	2477.291622025285	3.73409422784
4	1166	2477.581193411259	3.167874457089
4	1169	2484.577435716635	1.263052441259
4	1172	2487.898238471302	0
5	174	357.631592187577	36
5	177	371.479249331814	37
5	180	385.687767853134	38
5	183	387.959592815707	39
5	188	395.813839015567	40
5	189	398.625052965338	41
5	192	406.593690398492	42
5	195	414.34774732149	43
5	203	437.803131770033	44
5	204	439.446420412826	45
5	207	443.961159120593	46
5	213	474.504780562163	47
5	216	477.017232649788	48
5	222	494.079634116009	49
5	225	502.785574720811	50
5	228	510.786675848843	51
5	231	522.204470801191	52
5	234	529.962713016461	53
5	237	530.757938256741	54
5	264	594.675625752721	55
5	267	598.281366441317	56
5	268	598.597552556994	57
5	271	607.443786758328	58
5	272	611.500647045485	59
5	277	614.427939163195	60
5	278	614.688530186845	61
5	279	615.869737278872	62
5	280	616.274530784677	63
5	281	616.517156705018	64
5	282	617.686928090322	65
5	285	641.747840381421	66
5	294	656.023180254761	67
5	297	660.297436316615	68
5	313	704.877678832471	69
5	314	705.867367494549	70
5	329	724.580645840593	71
5	330	725.227522377614	72
5	351	756.255063177577	73
5	352	758.166009936603	74
5	386	834.71330152646	75
5	387	839.385819803149	76
5	390	842.072741021708	77
5	391	842.810779067703	78
5	394	847.372904932773	79
5	395	851.759455963156	80
5	396	853.036254894817	81
5	441	938.785853758675	82
5	442	939.101061846343	83
5	443	940.953424344323	84
5	444	944.495257341571	85
5	445	945.33597748849	86
5	449	955.365076765868	87
5	450	956.361706226554	88
5	451	957.750521767786	89
5	459	982.510757923501	90
5	460	988.734041902764	91
5	463	993.593840187297	92
5	464	994.055983771254	93
5	465	994.326150425017	94
5	466	995.311961938952	95
5	467	998.77864224385	96
5	468	1000.385412723817	97
5	469	1003.566958035563	98
5	470	1004.993154308014	99
5	471	1007.256367410522	100
5	472	1009.49075731035	101
5	473	1012.558616922311	102
5	474	1019.492222230596	103
5	477	1034.559123552918	104
5	486	1066.664459894177	105
5	489	1068.597026339897	106
5	502	1094.667890301686	107
5	503	1098.987012482511	108
5	504	1099.983356366824	109
5	507	1101.364778147199	110
5	510	1102.513516043366	111
5	516	1118.089379238301	112
5	522	1137.86149103825	113
5	525	1145.637998512846	114
5	530	1151.992584731014	115
5	531	1152.550114371806	116
5	567	1204.296605155465	117
5	568	1206.569871864633	118
5	569	1210.000589322385	119
5	574	1214.617159397062	120
5	579	1220.580104522533	121
5	580	1221.44738163022	122
5	585	1228.721863255539	123
5	589	1246.286501646019	124
5	590	1246.529734446638	125
5	593	1251.841158909226	126
5	594	1252.29753789861	127
5	595	1252.379950721933	128
5	596	1254.330797615345	129
5	597	1255.157851589559	130
5	598	1257.08026579517	131
5	599	1257.28339611461	132
5	600	1258.212470904575	133
5	608	1292.134440060981	134
5	609	1293.569570597175	135
5	612	1297.152172299351	136
5	617	1306.027610017938	137
5	618	1311.213240666759	138
5	621	1320.920416301698	139
5	624	1327.860796631077	140
5	629	1331.472350562202	141
5	630	1331.885533812383	142
5	633	1343.169675743488	143
5	636	1345.612655199793	144
5	641	1352.286864856484	145
5	642	1354.413447301826	146
5	651	1399.774948853114	147
5	654	1404.986024668252	148
5	770	1676.393678900236	149
5	835	1849.989023385327	150
5	838	1853.394295467717	151
5	841	1854.753009019311	152
5	842	1859.281009975695	153
5	845	1862.923309069905	154
5	846	1866.999217075394	155
5	852	1876.606702260887	156
5	855	1880.04935209201	157
5	856	1880.792315912711	158
5	857	1881.109094148439	159
5	858	1882.733763168271	160
5	859	1883.360176709496	161
5	862	1887.576300797531	162
5	863	1889.747124565321	163
5	864	1895.600372317389	164
5	877	1919.426025784753	165
5	878	1920.989569540228	166
5	879	1921.62936478071	167
5	882	1929.826988094657	168
5	885	1935.135277475114	169
5	886	1938.03739720316	170
5	887	1942.404198805432	171
5	888	1942.479660813532	172
5	889	1942.750547954488	173
5	890	1944.993914210386	174
5	891	1946.328256255739	175
5	892	1953.531838025833	176
5	893	1955.232651347205	177
5	894	1956.945032905389	178
5	895	1957.390533970913	179
5	896	1959.424881684541	180
5	897	1961.563766880302	181
5	898	1963.546863912711	182
5	899	1963.813342169368	183
5	902	1964.294415701792	184
5	903	1965.112678643803	185
5	913	1975.883485267255	186
5	925	1992.76025782921	187
5	926	1999.251831460351	188
5	927	2000.991363128549	189
5	928	2003.286895709718	190
5	929	2003.684292999022	191
5	930	2004.478973461594	192
5	931	2004.660996866062	193
5	932	2007.504193415017	194
5	933	2009.036904218753	195
5	934	2010.260784523208	196
5	935	2013.883524806703	197
5	938	2019.233475695175	198
5	946	2027.953238281429	199
5	947	2029.258874052107	200
5	948	2030.245131646724	201
5	949	2030.412280558399	202
5	950	2031.758841266948	203
5	953	2032.984746276469	204
5	954	2034.477343155336	205
5	955	2035.645193142003	206
5	956	2036.029849818929	207
5	957	2036.589233241444	208
5	958	2039.821607839035	209
5	959	2041.066250197666	210
5	960	2042.592519689684	211
5	961	2043.226826131025	212
5	962	2045.710389401669	213
5	963	2046.70623783246	214
5	966	2059.12576351891	215
5	969	2061.14608872246	216
5	975	2089.674096046875	217
5	985	2105.292111539334	218
5	986	2106.552673352096	219
5	987	2112.530693672271	220
5	999	2126.363567273492	221
5	1000	2128.850212722466	222
5	1001	2130.056318479881	223
5	1002	2135.042647555703	224
5	1005	2138.901529903878	225
5	1008	2153.127805678858	226
5	1014	2175.348067318034	227
5	1023	2190.695303155542	228
5	1040	2239.617999866823	229
5	1041	2241.036503012686	230
5	1044	2254.749648788223	231
5	1047	2272.836864619207	232
5	1053	2283.423636253055	233
5	1058	2285.228315646586	234
5	1059	2286.22398927637	235
5	1067	2297.682127169254	236
5	1068	2298.438914902796	237
5	1079	2320.875769193888	238
5	1080	2321.497270806804	239
5	1081	2321.894063463113	240
5	1094	2353.350535094314	241
5	1095	2361.602940737769	242
5	1096	2361.900942565983	243
5	1109	2382.787066667913	244
5	1112	2383.733143193884	245
5	1113	2384.387823519343	246
5	1114	2384.815706941985	247
5	1124	2406.859423567125	248
5	1127	2416.458745149244	249
5	1128	2417.164765630702	250
5	1146	2451.830686086361	251
5	1147	2452.318299136601	252
5	1148	2456.775232624538	253
5	1149	2457.482706929403	254
5	1154	2461.779322147588	255
5	1157	2466.195330283387	256
5	1158	2470.114853850457	257
5	1159	2471.362500363174	258
5	1164	2474.696359219759	259
5	1165	2477.291622025285	260
5	1166	2477.581193411259	261
5	1169	2484.577435716635	262
5	1170	2487.556967582519	263
5	1173	2493.549980572547	264
6	174	357.631592187577	0
6	176	367.376450425266	0
6	177	371.479249331814	0
6	179	384.176460755635	0
6	180	385.687767853134	0
6	182	386.436038687455	0
6	183	387.959592815707	0
6	185	391.952056832985	0
6	187	393.866115821959	1
6	188	395.813839015567	1
6	189	398.625052965338	0
6	191	404.473974224828	0
6	192	406.593690398492	0
6	194	410.436848643051	0
6	195	414.34774732149	0
6	197	418.962261761174	0
6	201	430.042671051734	1
6	203	437.803131770033	1
6	204	439.446420412826	0
6	206	441.443807283647	0
6	207	443.961159120593	0
6	212	473.00260902335	0
6	213	474.504780562163	0
6	215	475.369278079737	0
6	216	477.017232649788	0
6	221	493.286867919828	0
6	222	494.079634116009	0
6	224	501.939221806893	0
6	225	502.785574720811	0
6	227	509.038289566614	0
6	228	510.786675848843	0
6	230	518.619025209951	0
6	231	522.204470801191	0
6	233	528.562184431506	0
6	234	529.962713016461	0
6	236	530.409486620472	0
6	237	530.757938256741	0
6	249	548.429687237878	0
6	251	552.852190846318	1
6	253	558.782162656068	2
6	255	559.785125051752	3
6	258	574.152183291069	4
6	260	581.777140733225	5
6	262	591.908523466924	6
6	264	594.675625752721	6
6	266	595.245884919689	6
6	267	598.281366441317	6
6	268	598.597552556994	5
6	270	599.744693744301	5
6	271	607.443786758328	5
6	272	611.500647045485	4
6	274	614.054973155262	4
6	276	614.201791139699	5
6	277	614.427939163195	5
6	278	614.688530186845	4
6	279	615.869737278872	3
6	280	616.274530784677	2
6	281	616.517156705018	1
6	282	617.686928090322	0
6	284	639.373022439287	0
6	285	641.747840381421	0
6	291	647.18155342749	0
6	294	656.023180254761	0
6	296	658.412344747376	0
6	297	660.297436316615	0
6	299	662.241880940892	0
6	306	679.735089669793	1
6	309	681.301514871387	2
6	313	704.877678832471	2
6	314	705.867367494549	1
6	327	719.754056870467	1
6	329	724.580645840593	1
6	330	725.227522377614	0
6	334	727.714540815194	0
6	336	728.563158651515	1
6	338	730.639321852629	2
6	340	738.051917068501	3
6	344	743.143212324701	4
6	347	746.043867205386	5
6	349	748.788738380785	6
6	351	756.255063177577	6
6	352	758.166009936603	5
6	356	761.173475784625	5
6	358	761.546911015483	6
6	360	762.159761062042	7
6	364	770.565676082391	8
6	371	779.056388390191	9
6	376	804.665387734801	10
6	379	821.141477119636	11
6	381	823.114470007992	12
6	384	829.833902557911	13
6	386	834.71330152646	13
6	387	839.385819803149	12
6	389	841.976749373265	12
6	390	842.072741021708	12
6	391	842.810779067703	11
6	393	844.753959809814	11
6	394	847.372904932773	11
6	395	851.759455963156	10
6	396	853.036254894817	9
6	400	857.484073673838	9
6	404	864.090526057359	10
6	406	864.406093474509	11
6	408	864.410050515611	12
6	412	873.152552595688	13
6	415	880.180520660851	14
6	421	892.143133296193	15
6	424	905.901144136857	16
6	431	929.964332537532	17
6	436	933.017075888709	18
6	441	938.785853758675	18
6	442	939.101061846343	17
6	443	940.953424344323	16
6	444	944.495257341571	15
6	445	945.33597748849	14
6	449	955.365076765868	13
6	450	956.361706226554	12
6	451	957.750521767786	11
6	455	967.038452370635	11
6	457	970.766761584691	12
6	459	982.510757923501	12
6	460	988.734041902764	11
6	462	988.829171470794	11
6	463	993.593840187297	11
6	464	994.055983771254	10
6	465	994.326150425017	9
6	466	995.311961938952	8
6	467	998.77864224385	7
6	468	1000.385412723817	6
6	469	1003.566958035563	5
6	470	1004.993154308014	4
6	471	1007.256367410522	3
6	472	1009.49075731035	2
6	473	1012.558616922311	1
6	474	1019.492222230596	0
6	476	1033.712953239657	0
6	477	1034.559123552918	0
6	485	1063.897103797653	0
6	486	1066.664459894177	0
6	488	1067.205057491134	0
6	489	1068.597026339897	0
6	495	1074.2638470211	0
6	497	1076.070422185143	1
6	499	1078.233322827761	2
6	502	1094.667890301686	2
6	503	1098.987012482511	1
6	504	1099.983356366824	0
6	506	1100.820633055485	0
6	507	1101.364778147199	0
6	509	1101.542520841805	0
6	510	1102.513516043366	0
6	512	1111.342333799117	0
6	516	1118.089379238301	0
6	521	1137.351662066246	0
6	522	1137.86149103825	0
6	524	1143.757808395093	0
6	525	1145.637998512846	0
6	527	1148.722540957953	0
6	529	1150.605600291787	1
6	530	1151.992584731014	1
6	531	1152.550114371806	0
6	535	1155.850971048164	0
6	543	1171.764212020809	1
6	549	1173.638417992965	2
6	553	1183.043987541314	3
6	555	1184.463600298683	4
6	557	1186.294690857023	5
6	559	1193.42779355161	6
6	561	1193.952229021391	7
6	563	1198.118664749482	8
6	566	1204.241343238922	9
6	567	1204.296605155465	9
6	568	1206.569871864633	8
6	569	1210.000589322385	7
6	571	1210.346320488679	7
6	573	1214.33262395137	8
6	574	1214.617159397062	8
6	576	1214.830841163516	8
6	578	1219.949086922189	9
6	579	1220.580104522533	9
6	580	1221.44738163022	8
6	582	1222.914295801811	8
6	584	1223.293270800351	9
6	585	1228.721863255539	9
6	589	1246.286501646019	8
6	590	1246.529734446638	7
6	592	1248.688204836956	7
6	593	1251.841158909226	7
6	594	1252.29753789861	6
6	595	1252.379950721933	5
6	596	1254.330797615345	4
6	597	1255.157851589559	3
6	598	1257.08026579517	2
6	599	1257.28339611461	1
6	600	1258.212470904575	0
6	605	1290.898130123353	0
6	607	1291.823162123162	1
6	608	1292.134440060981	1
6	609	1293.569570597175	0
6	611	1294.576402543527	0
6	612	1297.152172299351	0
6	614	1304.070144681555	0
6	616	1305.840915143514	1
6	617	1306.027610017938	1
6	618	1311.213240666759	0
6	620	1319.757161600396	0
6	621	1320.920416301698	0
6	623	1323.432945874271	0
6	624	1327.860796631077	0
6	626	1329.748623566149	0
6	628	1330.682505835263	1
6	629	1331.472350562202	1
6	630	1331.885533812383	0
6	632	1340.718512005517	0
6	633	1343.169675743488	0
6	635	1345.187440574485	0
6	636	1345.612655199793	0
6	638	1350.785968730655	0
6	640	1350.872180850818	1
6	641	1352.286864856484	1
6	642	1354.413447301826	0
6	648	1382.607022192613	0
6	651	1399.774948853114	0
6	653	1400.916642425074	0
6	654	1404.986024668252	0
6	660	1422.107356603794	0
6	666	1424.971614565931	1
6	670	1426.229528690923	2
6	676	1451.471703703142	3
6	678	1452.277834284563	4
6	684	1462.965173674297	5
6	689	1485.516523248597	6
6	691	1487.722538453823	7
6	693	1487.844095693352	8
6	695	1489.919406919192	9
6	702	1503.613495727106	10
6	704	1504.303228010345	11
6	706	1505.738723982334	12
6	724	1571.779811722683	13
6	726	1573.37860006544	14
6	728	1574.86737474354	15
6	730	1580.95010154136	16
6	734	1589.412012295137	17
6	738	1606.774891541585	18
6	746	1626.911053211865	19
6	748	1632.047623014525	20
6	752	1633.802704932022	21
6	758	1644.547544615298	22
6	760	1645.199821265832	23
6	763	1650.037865197686	24
6	765	1650.283004258902	25
6	770	1676.393678900236	25
6	772	1677.203818671379	25
6	778	1694.228253446423	26
6	780	1695.752850120378	27
6	782	1696.928567990461	28
6	787	1717.067297815278	29
6	793	1725.738022932032	30
6	795	1732.5338024213	31
6	799	1735.719047425022	32
6	801	1737.147083566854	33
6	814	1768.93275183034	34
6	817	1789.832538635294	35
6	819	1800.201925045835	36
6	821	1801.397823919369	37
6	823	1813.417267898949	38
6	825	1820.845952050105	39
6	827	1821.109000042073	40
6	829	1824.448238797531	41
6	835	1849.989023385327	41
6	837	1851.763375986915	41
6	838	1853.394295467717	41
6	840	1853.763101051265	41
6	841	1854.753009019311	41
6	842	1859.281009975695	40
6	844	1861.615734364642	40
6	845	1862.923309069905	40
6	846	1866.999217075394	39
6	851	1872.60282119802	39
6	852	1876.606702260887	39
6	854	1879.356073586884	39
6	855	1880.04935209201	39
6	856	1880.792315912711	38
6	857	1881.109094148439	37
6	858	1882.733763168271	36
6	859	1883.360176709496	35
6	861	1886.688361683324	35
6	862	1887.576300797531	35
6	863	1889.747124565321	34
6	864	1895.600372317389	33
6	868	1902.442019052124	33
6	871	1905.861314486726	34
6	873	1909.777407995839	35
6	877	1919.426025784753	35
6	878	1920.989569540228	34
6	879	1921.62936478071	33
6	881	1922.182695436346	33
6	882	1929.826988094657	33
6	884	1930.15861388626	33
6	885	1935.135277475114	33
6	886	1938.03739720316	32
6	887	1942.404198805432	31
6	888	1942.479660813532	30
6	889	1942.750547954488	29
6	890	1944.993914210386	28
6	891	1946.328256255739	27
6	892	1953.531838025833	26
6	893	1955.232651347205	25
6	894	1956.945032905389	24
6	895	1957.390533970913	23
6	896	1959.424881684541	22
6	897	1961.563766880302	21
6	898	1963.546863912711	20
6	899	1963.813342169368	19
6	901	1963.91214132306	19
6	902	1964.294415701792	19
6	903	1965.112678643803	18
6	907	1973.318976600654	18
6	909	1973.361309767564	19
6	912	1975.116582120982	20
6	913	1975.883485267255	20
6	917	1977.572967073261	20
6	919	1979.076635191296	21
6	921	1985.261943290884	22
6	923	1989.30345486024	23
6	925	1992.76025782921	23
6	926	1999.251831460351	22
6	927	2000.991363128549	21
6	928	2003.286895709718	20
6	929	2003.684292999022	19
6	930	2004.478973461594	18
6	931	2004.660996866062	17
6	932	2007.504193415017	16
6	933	2009.036904218753	15
6	934	2010.260784523208	14
6	935	2013.883524806703	13
6	937	2015.354681933544	13
6	938	2019.233475695175	13
6	940	2020.548439221487	13
6	944	2025.725814737138	14
6	946	2027.953238281429	14
6	947	2029.258874052107	13
6	948	2030.245131646724	12
6	949	2030.412280558399	11
6	950	2031.758841266948	10
6	952	2032.01908448859	10
6	953	2032.984746276469	10
6	954	2034.477343155336	9
6	955	2035.645193142003	8
6	956	2036.029849818929	7
6	957	2036.589233241444	6
6	958	2039.821607839035	5
6	959	2041.066250197666	4
6	960	2042.592519689684	3
6	961	2043.226826131025	2
6	962	2045.710389401669	1
6	963	2046.70623783246	0
6	965	2055.502620266609	0
6	966	2059.12576351891	0
6	968	2060.575503583687	0
6	969	2061.14608872246	0
6	974	2084.709706378142	0
6	975	2089.674096046875	0
6	979	2092.939844548836	0
6	981	2099.037089414943	1
6	983	2102.591137611019	2
6	985	2105.292111539334	2
6	986	2106.552673352096	1
6	987	2112.530693672271	0
6	989	2116.368780264422	0
6	991	2116.482601048769	1
6	995	2119.324063641712	2
6	997	2123.674274645256	3
6	999	2126.363567273492	3
6	1000	2128.850212722466	2
6	1001	2130.056318479881	1
6	1002	2135.042647555703	0
6	1004	2138.040682945383	0
6	1005	2138.901529903878	0
6	1007	2150.885637978048	0
6	1008	2153.127805678858	0
6	1010	2167.367114672204	0
6	1014	2175.348067318034	0
6	1021	2186.034893997877	0
6	1023	2190.695303155542	0
6	1035	2221.227079930321	0
6	1039	2238.889269602652	1
6	1040	2239.617999866823	1
6	1041	2241.036503012686	0
6	1043	2254.483068097837	0
6	1044	2254.749648788223	0
6	1046	2271.075409916749	0
6	1047	2272.836864619207	0
6	1049	2280.771826103366	0
6	1053	2283.423636253055	0
6	1055	2283.864084695993	0
6	1057	2284.36974984129	1
6	1058	2285.228315646586	1
6	1059	2286.22398927637	0
6	1061	2288.442495856882	0
6	1066	2297.580246024688	1
6	1067	2297.682127169254	1
6	1068	2298.438914902796	0
6	1070	2309.781809862415	0
6	1072	2312.772812754872	1
6	1074	2313.521323228255	2
6	1076	2318.332567453696	3
6	1078	2318.868552452175	4
6	1079	2320.875769193888	4
6	1080	2321.497270806804	3
6	1081	2321.894063463113	2
6	1085	2327.906731433003	2
6	1089	2336.865900433734	3
6	1091	2339.803824499231	4
6	1094	2353.350535094314	4
6	1095	2361.602940737769	3
6	1096	2361.900942565983	2
6	1102	2371.147766820008	2
6	1104	2371.152034379967	3
6	1107	2380.887203781705	4
6	1109	2382.787066667913	4
6	1111	2383.188984259807	4
6	1112	2383.733143193884	4
6	1113	2384.387823519343	3
6	1114	2384.815706941985	2
6	1118	2386.397673759669	2
6	1120	2391.11863221044	3
6	1122	2400.591305898383	4
6	1124	2406.859423567125	4
6	1126	2407.515928351927	4
6	1127	2416.458745149244	4
6	1128	2417.164765630702	3
6	1130	2418.130008716	3
6	1134	2423.878827139453	4
6	1136	2430.033569373347	5
6	1139	2435.545057738834	6
6	1146	2451.830686086361	6
6	1147	2452.318299136601	5
6	1148	2456.775232624538	4
6	1149	2457.482706929403	3
6	1151	2457.691458169595	3
6	1153	2461.138953990144	4
6	1154	2461.779322147588	4
6	1156	2462.293654580893	4
6	1157	2466.195330283387	4
6	1158	2470.114853850457	3
6	1159	2471.362500363174	2
6	1161	2473.557527797445	2
6	1163	2474.41331895417	3
6	1164	2474.696359219759	3
6	1165	2477.291622025285	2
6	1166	2477.581193411259	1
6	1168	2483.314383275376	1
6	1169	2484.577435716635	1
6	1170	2487.556967582519	0
6	1172	2487.898238471302	0
6	1173	2493.549980572547	0
7	174	357.631592187577	8.291448537536
7	177	371.479249331814	4.102798906548
7	180	385.687767853134	1.511307097499
7	183	387.959592815707	1.523554128252
7	188	395.813839015567	3.861782182582
7	189	398.625052965338	4.758937143379
7	192	406.593690398492	2.119716173664
7	195	414.34774732149	3.910898678439
7	203	437.803131770033	17.978843227751
7	204	439.446420412826	9.403749361092
7	207	443.961159120593	2.517351836946
7	213	474.504780562163	1.502171538813
7	216	477.017232649788	1.647954570051
7	222	494.079634116009	0.792766196181
7	225	502.785574720811	0.846352913918
7	228	510.786675848843	1.748386282229
7	231	522.204470801191	3.58544559124
7	234	529.962713016461	1.400528584955
7	237	530.757938256741	0.348451636269
7	264	594.675625752721	46.245938514843
7	267	598.281366441317	45.429175594999
7	268	598.597552556994	39.815389900926
7	271	607.443786758328	47.658661706576
7	272	611.500647045485	37.348463754416
7	277	614.427939163195	32.65079842997
7	278	614.688530186845	22.780006719921
7	279	615.869737278872	20.623852359183
7	280	616.274530784677	16.529837040376
7	281	616.517156705018	2.462183549756
7	282	617.686928090322	3.485136950623
7	285	641.747840381421	2.374817942134
7	294	656.023180254761	8.841626827271
7	297	660.297436316615	1.885091569239
7	313	704.877678832471	25.142589162678
7	314	705.867367494549	24.565852623162
7	329	724.580645840593	5.953318141529
7	330	725.227522377614	5.473465507147
7	351	756.255063177577	28.540522362383
7	352	758.166009936603	29.602851285088
7	386	834.71330152646	96.661384457959
7	387	839.385819803149	96.242607478448
7	390	842.072741021708	96.028873816322
7	391	842.810779067703	94.022040686918
7	394	847.372904932773	87.587725386906
7	395	851.759455963156	90.585980178531
7	396	853.036254894817	91.489343879334
7	441	938.785853758675	134.12046602387
7	442	939.101061846343	117.95958472671
7	443	940.953424344323	117.83895433633
7	444	944.495257341571	114.66135478366
7	445	945.33597748849	103.35922811522
7	449	955.365076765868	101.6912313439
7	450	956.361706226554	98.877632552716
7	451	957.750521767786	93.659995710427
7	459	982.510757923501	118.10070740789
7	460	988.734041902764	115.58148930708
7	463	993.593840187297	113.41331952645
7	464	994.055983771254	101.91285047506
7	465	994.326150425017	88.42500628816
7	466	995.311961938952	65.34762940142
7	467	998.77864224385	66.575970230976
7	468	1000.385412723817	67.368336835108
7	469	1003.566958035563	66.909568746594
7	470	1004.993154308014	58.695471864773
7	471	1007.256367410522	46.518101957336
7	472	1009.49075731035	42.452304939715
7	473	1012.558616922311	41.79185533762
7	474	1019.492222230596	30.663050759802
7	477	1034.559123552918	0.846170313261
7	486	1066.664459894177	2.767356096524
7	489	1068.597026339897	1.391968848763
7	502	1094.667890301686	20.404043280586
7	503	1098.987012482511	22.916590297368
7	504	1099.983356366824	21.750033539063
7	507	1101.364778147199	0.544145091714
7	510	1102.513516043366	0.970995201561
7	516	1118.089379238301	4.79588447431
7	522	1137.86149103825	0.509828972004
7	525	1145.637998512846	1.880190117753
7	530	1151.992584731014	3.270043773061
7	531	1152.550114371806	1.944514080019
7	567	1204.296605155465	33.774405949567
7	568	1206.569871864633	34.805659843824
7	569	1210.000589322385	36.36217132942
7	574	1214.617159397062	31.573171855748
7	579	1220.580104522533	36.11650422385
7	580	1221.44738163022	35.152690773197
7	585	1228.721863255539	35.294069703929
7	589	1246.286501646019	48.167836896537
7	590	1246.529734446638	42.288391207716
7	593	1251.841158909226	41.494838420547
7	594	1252.29753789861	37.96491394724
7	595	1252.379950721933	37.549109558417
7	596	1254.330797615345	34.381710693156
7	597	1255.157851589559	32.243555787748
7	598	1257.08026579517	33.786994994819
7	599	1257.28339611461	25.675090397513
7	600	1258.212470904575	9.524266067619
7	608	1292.134440060981	1.236309937628
7	609	1293.569570597175	1.746408474013
7	612	1297.152172299351	2.575769755824
7	617	1306.027610017938	1.957465336383
7	618	1311.213240666759	5.372325523245
7	621	1320.920416301698	1.163254701302
7	624	1327.860796631077	4.427850756806
7	629	1331.472350562202	1.723726996053
7	630	1331.885533812383	1.20302797712
7	633	1343.169675743488	2.451163737971
7	636	1345.612655199793	0.425214625308
7	641	1352.286864856484	1.500896125829
7	642	1354.413447301826	3.541266451008
7	651	1399.774948853114	17.167926660501
7	654	1404.986024668252	4.069382243178
7	770	1676.393678900236	254.28632229644
7	835	1849.989023385327	423.7594946944
7	838	1853.394295467717	401.92259176457
7	841	1854.753009019311	402.47517473475
7	842	1859.281009975695	396.3158363014
7	845	1862.923309069905	377.40678582131
7	846	1866.999217075394	379.27667862157
7	852	1876.606702260887	386.6872953417
7	855	1880.04935209201	376.4358563649
7	856	1880.792315912711	376.48908790237
7	857	1881.109094148439	375.3703701661
7	858	1882.733763168271	310.95395144559
7	859	1883.360176709496	309.98157664406
7	862	1887.576300797531	312.70892605399
7	863	1889.747124565321	308.79702302396
7	864	1895.600372317389	306.18836002225
7	877	1919.426025784753	287.37840277023
7	878	1920.989569540228	287.18686460821
7	879	1921.62936478071	277.08182016541
7	882	1929.826988094657	284.62716682883
7	885	1935.135277475114	285.09741227743
7	886	1938.03739720316	287.75439294426
7	887	1942.404198805432	265.20038013405
7	888	1942.479660813532	255.77148650823
7	889	1942.750547954488	248.52229450806
7	890	1944.993914210386	249.24106409001
7	891	1946.328256255739	249.39968826528
7	892	1953.531838025833	236.46454021055
7	893	1955.232651347205	229.49462841517
7	894	1956.945032905389	224.41123048409
7	895	1957.390533970913	221.67148654589
7	896	1959.424881684541	222.27779811769
7	897	1961.563766880302	192.63101504996
7	898	1963.546863912711	173.71432527742
7	899	1963.813342169368	163.61141712353
7	902	1964.294415701792	162.89659178242
7	903	1965.112678643803	151.69541074485
7	913	1975.883485267255	154.77448522518
7	925	1992.76025782921	140.9968818423
7	926	1999.251831460351	145.48873040909
7	927	2000.991363128549	139.37562876391
7	928	2003.286895709718	134.57335869603
7	929	2003.684292999022	131.081471801
7	930	2004.478973461594	125.12289987471
7	931	2004.660996866062	117.97263518274
7	932	2007.504193415017	108.94574863889
7	933	2009.036904218753	106.59488516663
7	934	2010.260784523208	104.39947003648
7	935	2013.883524806703	104.10611681086
7	938	2019.233475695175	108.72722967224
7	946	2027.953238281429	97.794624395169
7	947	2029.258874052107	65.346732729047
7	948	2030.245131646724	63.636998134232
7	949	2030.412280558399	57.093303957745
7	950	2031.758841266948	58.397531499384
7	953	2032.984746276469	57.868164155487
7	954	2034.477343155336	57.813706278831
7	955	2035.645193142003	58.072226068742
7	956	2036.029849818929	56.953214627633
7	957	2036.589233241444	51.32728995056
7	958	2039.821607839035	50.518152978795
7	959	2041.066250197666	25.711568264122
7	960	2042.592519689684	22.044080468197
7	961	2043.226826131025	21.520149332752
7	962	2045.710389401669	19.984574664531
7	963	2046.70623783246	14.68715334387
7	966	2059.12576351891	3.623143252301
7	969	2061.14608872246	0.570585138773
7	975	2089.674096046875	4.964389668733
7	985	2105.292111539334	12.352266990498
7	986	2106.552673352096	7.515583937153
7	987	2112.530693672271	9.939556061252
7	999	2126.363567273492	9.880966224723
7	1000	2128.850212722466	10.684169737462
7	1001	2130.056318479881	10.732254838169
7	1002	2135.042647555703	11.368372910447
7	1005	2138.901529903878	0.860846958495
7	1008	2153.127805678858	2.24216770081
7	1014	2175.348067318034	6.193316476402
7	1023	2190.695303155542	4.660409157665
7	1040	2239.617999866823	18.390919936502
7	1041	2241.036503012686	2.147233410034
7	1044	2254.749648788223	0.266580690386
7	1047	2272.836864619207	1.761454702458
7	1053	2283.423636253055	2.634362073545
7	1058	2285.228315646586	1.364230950593
7	1059	2286.22398927637	1.85423943508
7	1067	2297.682127169254	9.022211391897
7	1068	2298.438914902796	0.858668878108
7	1079	2320.875769193888	11.093959331473
7	1080	2321.497270806804	8.724458051932
7	1081	2321.894063463113	8.372740234858
7	1094	2353.350535094314	34.481982642139
7	1095	2361.602940737769	35.716479785008
7	1096	2361.900942565983	33.99421113298
7	1109	2382.787066667913	42.983242168682
7	1112	2383.733143193884	20.491439435442
7	1113	2384.387823519343	13.240056699335
7	1114	2384.815706941985	13.663672562018
7	1124	2406.859423567125	23.670439307318
7	1127	2416.458745149244	31.368637936
7	1128	2417.164765630702	30.767091871033
7	1146	2451.830686086361	33.700677370361
7	1147	2452.318299136601	31.937034585259
7	1148	2456.775232624538	32.896405485085
7	1149	2457.482706929403	27.449137556056
7	1154	2461.779322147588	26.234264408754
7	1157	2466.195330283387	28.139958341351
7	1158	2470.114853850457	23.234941960449
7	1159	2471.362500363174	13.671042193579
7	1164	2474.696359219759	13.557405229615
7	1165	2477.291622025285	14.997967444392
7	1166	2477.581193411259	4.023665613814
7	1169	2484.577435716635	10.164116762465
7	1170	2487.556967582519	4.242584307143
7	1173	2493.549980572547	5.651742101245
8	176	367.376450425266	1
8	179	384.176460755635	1
8	182	386.436038687455	1
8	185	391.952056832985	1
8	187	393.866115821959	2
8	191	404.473974224828	1
8	194	410.436848643051	1
8	197	418.962261761174	1
8	201	430.042671051734	2
8	206	441.443807283647	1
8	212	473.00260902335	1
8	215	475.369278079737	1
8	221	493.286867919828	1
8	224	501.939221806893	1
8	227	509.038289566614	1
8	230	518.619025209951	1
8	233	528.562184431506	1
8	236	530.409486620472	1
8	249	548.429687237878	1
8	251	552.852190846318	2
8	253	558.782162656068	3
8	255	559.785125051752	4
8	258	574.152183291069	5
8	260	581.777140733225	6
8	262	591.908523466924	7
8	266	595.245884919689	7
8	270	599.744693744301	6
8	274	614.054973155262	5
8	276	614.201791139699	6
8	284	639.373022439287	1
8	291	647.18155342749	1
8	296	658.412344747376	1
8	299	662.241880940892	1
8	306	679.735089669793	2
8	309	681.301514871387	3
8	327	719.754056870467	2
8	334	727.714540815194	1
8	336	728.563158651515	2
8	338	730.639321852629	3
8	340	738.051917068501	4
8	344	743.143212324701	5
8	347	746.043867205386	6
8	349	748.788738380785	7
8	356	761.173475784625	6
8	358	761.546911015483	7
8	360	762.159761062042	8
8	364	770.565676082391	9
8	371	779.056388390191	10
8	376	804.665387734801	11
8	379	821.141477119636	12
8	381	823.114470007992	13
8	384	829.833902557911	14
8	389	841.976749373265	13
8	393	844.753959809814	12
8	400	857.484073673838	10
8	404	864.090526057359	11
8	406	864.406093474509	12
8	408	864.410050515611	13
8	412	873.152552595688	14
8	415	880.180520660851	15
8	421	892.143133296193	16
8	424	905.901144136857	17
8	431	929.964332537532	18
8	436	933.017075888709	19
8	455	967.038452370635	12
8	457	970.766761584691	13
8	462	988.829171470794	12
8	476	1033.712953239657	1
8	485	1063.897103797653	1
8	488	1067.205057491134	1
8	495	1074.2638470211	1
8	497	1076.070422185143	2
8	499	1078.233322827761	3
8	506	1100.820633055485	1
8	509	1101.542520841805	1
8	512	1111.342333799117	1
8	521	1137.351662066246	1
8	524	1143.757808395093	1
8	527	1148.722540957953	1
8	529	1150.605600291787	2
8	535	1155.850971048164	1
8	543	1171.764212020809	2
8	549	1173.638417992965	3
8	553	1183.043987541314	4
8	555	1184.463600298683	5
8	557	1186.294690857023	6
8	559	1193.42779355161	7
8	561	1193.952229021391	8
8	563	1198.118664749482	9
8	566	1204.241343238922	10
8	571	1210.346320488679	8
8	573	1214.33262395137	9
8	576	1214.830841163516	9
8	578	1219.949086922189	10
8	582	1222.914295801811	9
8	584	1223.293270800351	10
8	592	1248.688204836956	8
8	605	1290.898130123353	1
8	607	1291.823162123162	2
8	611	1294.576402543527	1
8	614	1304.070144681555	1
8	616	1305.840915143514	2
8	620	1319.757161600396	1
8	623	1323.432945874271	1
8	626	1329.748623566149	1
8	628	1330.682505835263	2
8	632	1340.718512005517	1
8	635	1345.187440574485	1
8	638	1350.785968730655	1
8	640	1350.872180850818	2
8	648	1382.607022192613	1
8	653	1400.916642425074	1
8	660	1422.107356603794	1
8	666	1424.971614565931	2
8	670	1426.229528690923	3
8	676	1451.471703703142	4
8	678	1452.277834284563	5
8	684	1462.965173674297	6
8	689	1485.516523248597	7
8	691	1487.722538453823	8
8	693	1487.844095693352	9
8	695	1489.919406919192	10
8	702	1503.613495727106	11
8	704	1504.303228010345	12
8	706	1505.738723982334	13
8	724	1571.779811722683	14
8	726	1573.37860006544	15
8	728	1574.86737474354	16
8	730	1580.95010154136	17
8	734	1589.412012295137	18
8	738	1606.774891541585	19
8	746	1626.911053211865	20
8	748	1632.047623014525	21
8	752	1633.802704932022	22
8	758	1644.547544615298	23
8	760	1645.199821265832	24
8	763	1650.037865197686	25
8	765	1650.283004258902	26
8	772	1677.203818671379	26
8	778	1694.228253446423	27
8	780	1695.752850120378	28
8	782	1696.928567990461	29
8	787	1717.067297815278	30
8	793	1725.738022932032	31
8	795	1732.5338024213	32
8	799	1735.719047425022	33
8	801	1737.147083566854	34
8	814	1768.93275183034	35
8	817	1789.832538635294	36
8	819	1800.201925045835	37
8	821	1801.397823919369	38
8	823	1813.417267898949	39
8	825	1820.845952050105	40
8	827	1821.109000042073	41
8	829	1824.448238797531	42
8	837	1851.763375986915	42
8	840	1853.763101051265	42
8	844	1861.615734364642	41
8	851	1872.60282119802	40
8	854	1879.356073586884	40
8	861	1886.688361683324	36
8	868	1902.442019052124	34
8	871	1905.861314486726	35
8	873	1909.777407995839	36
8	881	1922.182695436346	34
8	884	1930.15861388626	34
8	901	1963.91214132306	20
8	907	1973.318976600654	19
8	909	1973.361309767564	20
8	912	1975.116582120982	21
8	917	1977.572967073261	21
8	919	1979.076635191296	22
8	921	1985.261943290884	23
8	923	1989.30345486024	24
8	937	2015.354681933544	14
8	940	2020.548439221487	14
8	944	2025.725814737138	15
8	952	2032.01908448859	11
8	965	2055.502620266609	1
8	968	2060.575503583687	1
8	974	2084.709706378142	1
8	979	2092.939844548836	1
8	981	2099.037089414943	2
8	983	2102.591137611019	3
8	989	2116.368780264422	1
8	991	2116.482601048769	2
8	995	2119.324063641712	3
8	997	2123.674274645256	4
8	1004	2138.040682945383	1
8	1007	2150.885637978048	1
8	1010	2167.367114672204	1
8	1021	2186.034893997877	1
8	1035	2221.227079930321	1
8	1039	2238.889269602652	2
8	1043	2254.483068097837	1
8	1046	2271.075409916749	1
8	1049	2280.771826103366	1
8	1055	2283.864084695993	1
8	1057	2284.36974984129	2
8	1061	2288.442495856882	1
8	1066	2297.580246024688	2
8	1070	2309.781809862415	1
8	1072	2312.772812754872	2
8	1074	2313.521323228255	3
8	1076	2318.332567453696	4
8	1078	2318.868552452175	5
8	1085	2327.906731433003	3
8	1089	2336.865900433734	4
8	1091	2339.803824499231	5
8	1102	2371.147766820008	3
8	1104	2371.152034379967	4
8	1107	2380.887203781705	5
8	1111	2383.188984259807	5
8	1118	2386.397673759669	3
8	1120	2391.11863221044	4
8	1122	2400.591305898383	5
8	1126	2407.515928351927	5
8	1130	2418.130008716	4
8	1134	2423.878827139453	5
8	1136	2430.033569373347	6
8	1139	2435.545057738834	7
8	1151	2457.691458169595	4
8	1153	2461.138953990144	5
8	1156	2462.293654580893	5
8	1161	2473.557527797445	3
8	1163	2474.41331895417	4
8	1168	2483.314383275376	2
8	1172	2487.898238471302	1
9	199	419.824288542282	1
9	209	445.426883461239	1
9	218	481.155473799364	1
9	239	536.946986058516	1
9	241	541.720738592907	2
9	243	541.736319955185	3
9	247	545.749899725905	2
9	287	642.852204457678	1
9	289	646.904432915695	2
9	301	666.123998518003	1
9	303	673.379073049835	2
9	311	692.296201596188	1
9	316	707.174758416955	1
9	318	707.316586279335	2
9	322	718.627327699064	1
9	324	719.093978241006	2
9	332	725.978438086876	1
9	342	740.857761909457	2
9	354	759.785179545867	1
9	362	769.99705848	2
9	366	773.001749095169	3
9	368	773.957541426202	4
9	373	780.867851638882	4
9	398	853.673845421965	1
9	402	862.799389841877	2
9	410	868.098797839271	3
9	417	880.277491819915	3
9	419	882.177038103687	4
9	427	912.935758198835	3
9	434	932.202672012874	1
9	439	936.657389288969	1
9	447	946.297682443241	1
9	453	960.738265453186	1
9	479	1042.502595974247	1
9	482	1060.452690583967	1
9	491	1073.028472791389	1
9	493	1073.979749661901	2
9	514	1113.293494763991	1
9	518	1132.000155132253	1
9	533	1154.808071207918	1
9	537	1158.547296278815	2
9	541	1170.522199205898	1
9	545	1171.867477851254	2
9	547	1172.13455232041	3
9	587	1231.608305717097	1
9	602	1288.624242739881	1
9	644	1356.036850805122	1
9	646	1372.606487445524	2
9	656	1405.653119015198	1
9	658	1415.389328740932	2
9	662	1422.655085990457	3
9	664	1422.976987813847	4
9	668	1425.03253417898	5
9	673	1430.283059070374	5
9	680	1453.338074498799	5
9	682	1458.853815662555	6
9	686	1470.455632448849	7
9	697	1493.449335598144	7
9	699	1496.052380205525	8
9	709	1514.884379549808	7
9	714	1528.555324124831	5
9	718	1564.373909976404	4
9	720	1565.073784446035	5
9	722	1568.88161662372	6
9	741	1616.890074396541	2
9	744	1626.810805176556	2
9	750	1632.799960695581	3
9	755	1636.823592669957	3
9	767	1658.548708404319	2
9	774	1686.708174305305	1
9	776	1694.179105853179	2
9	784	1705.252233173425	3
9	789	1719.93445107556	3
9	791	1724.59685573388	4
9	804	1740.42133159935	2
9	807	1757.194056480443	2
9	810	1761.281828584842	2
9	812	1761.918109262225	3
9	832	1831.77425238343	2
9	848	1868.713537013691	1
9	866	1898.558444776125	1
9	875	1910.506246022932	1
9	905	1966.608133512492	1
9	915	1976.663636876505	1
9	942	2021.706676798273	1
9	971	2073.959348802285	1
9	977	2092.180436930985	1
9	993	2118.166042985004	1
9	1012	2169.154750841632	1
9	1016	2177.061307273094	1
9	1019	2178.914416394662	1
9	1025	2195.814478513715	1
9	1027	2200.177172437229	2
9	1031	2214.891347264506	1
9	1033	2215.816986545285	2
9	1051	2280.78927417951	1
9	1063	2288.659915777357	1
9	1083	2325.886460952761	1
9	1087	2335.729066720743	2
9	1098	2363.241703758442	1
9	1100	2369.572912620892	2
9	1116	2385.090107213244	1
9	1132	2420.381264551342	1
9	1141	2438.055371942036	1
9	1144	2446.879911890008	1
10	199	419.824288542282	5
10	301	666.123998518003	6
10	311	692.296201596188	7
10	316	707.174758416955	8
10	322	718.627327699064	9
10	354	759.785179545867	10
10	398	853.673845421965	11
10	434	932.202672012874	12
10	439	936.657389288969	13
10	447	946.297682443241	14
10	453	960.738265453186	15
10	514	1113.293494763991	16
10	541	1170.522199205898	17
10	587	1231.608305717097	18
10	774	1686.708174305305	19
10	848	1868.713537013691	20
10	866	1898.558444776125	21
10	875	1910.506246022932	22
10	905	1966.608133512492	23
10	915	1976.663636876505	24
10	942	2021.706676798273	25
10	993	2118.166042985004	26
10	1012	2169.154750841632	27
10	1051	2280.78927417951	28
10	1063	2288.659915777357	29
10	1083	2325.886460952761	30
10	1098	2363.241703758442	31
10	1116	2385.090107213244	32
10	1132	2420.381264551342	33
10	1141	2438.055371942036	34
10	1144	2446.879911890008	35
11	1174	2500	0.1056
12	1174	2500	0.0508

