file 63319 1678560114                                           
version 2
run experiments_hard_game_mode1-721-20230311-19:41:54-8311
attr configname experiments_hard_game_mode1
attr datetime 20230311-19:41:54
attr experiment experiments_hard_game_mode1
attr inifile omnetpp.ini
attr iterationvars "$0=8.5, $1=5, $2=0"
attr iterationvarsf 8.5,5,0-
attr measurement "$0=8.5, $1=5, $2=0"
attr network Network
attr processid 8311
attr repetition 1
attr replication #1
attr resultdir results
attr runnumber 721
attr seedset 1
param *.boss.arrival_mean 20
param *.boss.service_mean 8.5
param *.minion.arrival_mean 10
param *.minion.service_mean 5
param *.player.recover_rate_x 0
param **.minion.arrival_distribution 0
param **.minion.service_distribution 0
param **.boss.arrival_distribution 0
param **.boss.service_distribution 0

vector 0 Network.player boss_defeated_stat:vector ETV
attr source signal_boss_defeated
vector 1 Network.player boss_jobs_queue_number_stat:vector ETV
attr source signal_boss_jobs_queue_number
vector 2 Network.player boss_response_time_stat:vector ETV
attr source signal_boss_response_time
vector 3 Network.player minion_waiting_time_stat:vector ETV
attr source signal_minion_waiting_time
vector 4 Network.player minion_defeated_stat:vector ETV
attr source signal_minion_defeated
vector 5 Network.player minion_jobs_queue_number_stat:vector ETV
attr source signal_minion_jobs_queue_number
vector 6 Network.player minion_response_time_stat:vector ETV
attr source signal_minion_response_time
vector 7 Network.player minion_jobs_number_stat:vector ETV
attr source signal_minion_jobs_number
vector 8 Network.player boss_jobs_number_stat:vector ETV
attr source signal_boss_jobs_number
vector 9 Network.player minion_recovered_stat:vector ETV
attr source signal_minion_recovered
vector 10 Network.player boss_waiting_time_stat:vector ETV
attr source signal_boss_waiting_time
vector 11 Network.player minion_throughput:vector ETV
attr source signal_minion_throughput
vector 12 Network.player boss_throughput:vector ETV
attr source signal_boss_throughput
0	2008 2703 126 1082 350.026857186936 2486.937261778183 100 18 117 6750 538950
1	4711 5164 126 1086 350.026857186936 2496.852317827315 200 0 4 72 132
2	9875 3913 126 1082 350.026857186936 2486.937261778183 100 0.012137135365 54.835628596562 1080.3768242207 22694.47326384
3	13788 10664 126 1084 350.026857186936 2496.371179729954 277 0 177.93894750146 13533.270348883 1198961.4909194
4	24452 5916 127 1084 352.937652847928 2496.371179729954 217 21 237 27993 4462605
5	30368 11383 127 1084 352.937652847928 2496.371179729954 439 0 20 2884 32970
6	41751 8547 127 1084 352.937652847928 2496.371179729954 217 0.062232742601 179.95332340933 11703.023917137 1076024.1216764
7	50298 5766 129 1079 354.557151855681 2480.108407740282 222 1 21 1684 19796
8	56064 2579 141 1086 369.375255317272 2496.852317827315 100 1 5 136 238
9	58643 1611 141 1086 369.375255317272 2496.852317827315 60 11 70 2430 116410
10	60254 3024 141 1086 369.375255317272 2496.852317827315 100 0 35.779771195884 298.7607658947 6621.146703167
11	63278 20 1087 1087 2500 2500 1 0.0948 0.0948 0.0948 0.00898704
12	63298 20 1087 1087 2500 2500 1 0.0468 0.0468 0.0468 0.00219024

