file 61375 1678560255                                           
version 2
run experiments_hard_game_mode1-1347-20230311-19:44:15-11784
attr configname experiments_hard_game_mode1
attr datetime 20230311-19:44:15
attr experiment experiments_hard_game_mode1
attr inifile omnetpp.ini
attr iterationvars "$0=9.5, $1=5, $2=0"
attr iterationvarsf 9.5,5,0-
attr measurement "$0=9.5, $1=5, $2=0"
attr network Network
attr processid 11784
attr repetition 27
attr replication #27
attr resultdir results
attr runnumber 1347
attr seedset 27
param *.boss.arrival_mean 20
param *.boss.service_mean 9.5
param *.minion.arrival_mean 10
param *.minion.service_mean 5
param *.player.recover_rate_x 0
param **.minion.arrival_distribution 0
param **.minion.service_distribution 0
param **.boss.arrival_distribution 0
param **.boss.service_distribution 0

vector 0 Network.player boss_jobs_number_stat:vector ETV
attr source signal_boss_jobs_number
vector 1 Network.player boss_jobs_queue_number_stat:vector ETV
attr source signal_boss_jobs_queue_number
vector 2 Network.player boss_waiting_time_stat:vector ETV
attr source signal_boss_waiting_time
vector 3 Network.player boss_defeated_stat:vector ETV
attr source signal_boss_defeated
vector 4 Network.player boss_response_time_stat:vector ETV
attr source signal_boss_response_time
vector 5 Network.player minion_jobs_number_stat:vector ETV
attr source signal_minion_jobs_number
vector 6 Network.player minion_jobs_queue_number_stat:vector ETV
attr source signal_minion_jobs_queue_number
vector 7 Network.player minion_waiting_time_stat:vector ETV
attr source signal_minion_waiting_time
vector 8 Network.player minion_defeated_stat:vector ETV
attr source signal_minion_defeated
vector 9 Network.player minion_response_time_stat:vector ETV
attr source signal_minion_response_time
vector 10 Network.player minion_recovered_stat:vector ETV
attr source signal_minion_recovered
vector 11 Network.player minion_throughput:vector ETV
attr source signal_minion_throughput
vector 12 Network.player boss_throughput:vector ETV
attr source signal_boss_throughput
0	2015 2805 152 1109 368.831334544424 2480.169364514395 110 1 7 211 569
1	4820 5619 152 1112 368.831334544424 2482.03874130622 220 0 6 202 514
2	10439 3560 152 1109 368.831334544424 2480.169364514395 110 0 61.039401017639 1073.7098013762 39796.021632869
3	13999 2948 153 1112 378.792818603844 2482.03874130622 110 14 123 7535 627055
4	16947 4292 153 1112 378.792818603844 2482.03874130622 110 0.073151939121 71.292200778963 2159.2996112364 83726.937314731
5	21239 6132 160 1119 397.949897162909 2495.328009140238 230 1 90 12788 828580
6	27371 11017 160 1121 397.949897162909 2499.523638155277 411 0 89 23940 1568444
7	38388 9275 161 1121 403.034539253047 2499.523638155277 234 0 603.1497568993 105874.50830229 51423910.250192
8	47663 5008 162 1121 405.872572634362 2499.523638155277 181 38 218 23168 3459634
9	52671 7220 162 1121 405.872572634362 2499.523638155277 181 0.09186656094 605.02401495948 85115.886255955 42128473.177053
10	59891 1443 175 1109 426.413797271532 2480.169364514395 52 11 62 1898 80990
11	61334 20 1122 1122 2500 2500 1 0.0872 0.0872 0.0872 0.00760384
12	61354 20 1122 1122 2500 2500 1 0.0492 0.0492 0.0492 0.00242064

