file 60816 1678560101                                           
version 2
run experiments_hard_game_mode1-660-20230311-19:41:41-8002
attr configname experiments_hard_game_mode1
attr datetime 20230311-19:41:41
attr experiment experiments_hard_game_mode1
attr inifile omnetpp.ini
attr iterationvars "$0=8.5, $1=4, $2=0"
attr iterationvarsf 8.5,4,0-
attr measurement "$0=8.5, $1=4, $2=0"
attr network Network
attr processid 8002
attr repetition 0
attr replication #0
attr resultdir results
attr runnumber 660
attr seedset 0
param *.boss.arrival_mean 20
param *.boss.service_mean 8.5
param *.minion.arrival_mean 10
param *.minion.service_mean 4
param *.player.recover_rate_x 0
param **.minion.arrival_distribution 0
param **.minion.service_distribution 0
param **.boss.arrival_distribution 0
param **.boss.service_distribution 0

vector 0 Network.player boss_defeated_stat:vector ETV
attr source signal_boss_defeated
vector 1 Network.player boss_jobs_queue_number_stat:vector ETV
attr source signal_boss_jobs_queue_number
vector 2 Network.player boss_response_time_stat:vector ETV
attr source signal_boss_response_time
vector 3 Network.player minion_jobs_number_stat:vector ETV
attr source signal_minion_jobs_number
vector 4 Network.player minion_jobs_queue_number_stat:vector ETV
attr source signal_minion_jobs_queue_number
vector 5 Network.player minion_waiting_time_stat:vector ETV
attr source signal_minion_waiting_time
vector 6 Network.player minion_defeated_stat:vector ETV
attr source signal_minion_defeated
vector 7 Network.player minion_response_time_stat:vector ETV
attr source signal_minion_response_time
vector 8 Network.player boss_jobs_number_stat:vector ETV
attr source signal_boss_jobs_number
vector 9 Network.player boss_waiting_time_stat:vector ETV
attr source signal_boss_waiting_time
vector 10 Network.player minion_recovered_stat:vector ETV
attr source signal_minion_recovered
vector 11 Network.player minion_throughput:vector ETV
attr source signal_minion_throughput
vector 12 Network.player boss_throughput:vector ETV
attr source signal_boss_throughput
0	2008 2832 168 1100 351.329602031201 2490.342202532944 106 22 127 7897 687569
1	4840 5378 168 1100 351.329602031201 2490.342202532944 211 0 3 96 168
2	10218 4105 168 1100 351.329602031201 2490.342202532944 106 0.206330108711 42.144117707353 1056.463424597 17742.999386946
3	14323 5338 170 1103 356.599406890352 2491.497376120721 207 1 25 1065 12471
4	19661 10703 170 1104 356.599406890352 2491.577697722976 414 0 24 1716 21096
5	30364 9450 170 1103 356.599406890352 2491.497376120721 255 0 227.48723716427 7464.9317527214 711735.01572578
6	39814 5694 171 1104 359.871436135872 2491.577697722976 207 35 241 28566 4681236
7	45508 8148 171 1104 359.871436135872 2491.577697722976 207 0.046951254873 229.61501778209 6790.1762728649 622600.09687908
8	53656 2680 173 1098 365.058342191057 2480.218280446483 105 1 4 153 285
9	56336 3109 173 1099 365.058342191057 2483.11304916236 105 0 32.983521847842 273.46419213318 4528.2210818698
10	59445 1330 189 1081 404.73333087535 2434.432498188945 48 8 55 1512 56840
11	60775 20 1105 1105 2500 2500 1 0.0964 0.0964 0.0964 0.00929296
12	60795 20 1105 1105 2500 2500 1 0.0508 0.0508 0.0508 0.00258064

