file 59530 1678560071                                           
version 2
run experiments_hard_game_mode1-518-20230311-19:41:11-7285
attr configname experiments_hard_game_mode1
attr datetime 20230311-19:41:11
attr experiment experiments_hard_game_mode1
attr inifile omnetpp.ini
attr iterationvars "$0=8, $1=6, $2=100"
attr iterationvarsf 8,6,100-
attr measurement "$0=8, $1=6, $2=100"
attr network Network
attr processid 7285
attr repetition 8
attr replication #8
attr resultdir results
attr runnumber 518
attr seedset 8
param *.boss.arrival_mean 20
param *.boss.service_mean 8
param *.minion.arrival_mean 10
param *.minion.service_mean 6
param *.player.recover_rate_x 100
param **.minion.arrival_distribution 0
param **.minion.service_distribution 0
param **.boss.arrival_distribution 0
param **.boss.service_distribution 0

vector 0 Network.player minion_jobs_number_stat:vector ETV
attr source signal_minion_jobs_number
vector 1 Network.player minion_jobs_queue_number_stat:vector ETV
attr source signal_minion_jobs_queue_number
vector 2 Network.player boss_defeated_stat:vector ETV
attr source signal_boss_defeated
vector 3 Network.player boss_jobs_queue_number_stat:vector ETV
attr source signal_boss_jobs_queue_number
vector 4 Network.player boss_response_time_stat:vector ETV
attr source signal_boss_response_time
vector 5 Network.player boss_waiting_time_stat:vector ETV
attr source signal_boss_waiting_time
vector 6 Network.player minion_waiting_time_stat:vector ETV
attr source signal_minion_waiting_time
vector 7 Network.player minion_defeated_stat:vector ETV
attr source signal_minion_defeated
vector 8 Network.player minion_response_time_stat:vector ETV
attr source signal_minion_response_time
vector 9 Network.player boss_jobs_number_stat:vector ETV
attr source signal_boss_jobs_number
vector 10 Network.player minion_recovered_stat:vector ETV
attr source signal_minion_recovered
vector 11 Network.player minion_throughput:vector ETV
attr source signal_minion_throughput
vector 12 Network.player boss_throughput:vector ETV
attr source signal_boss_throughput
0	2008 5876 158 1080 355.039202252463 2499.949391704458 220 11 55 6056 195890
1	7884 10750 158 1080 355.039202252463 2499.949391704458 403 10 54 10414 321006
2	18634 2724 159 1076 355.979007948504 2495.520696773692 101 22 122 7272 609434
3	21358 5173 159 1078 355.979007948504 2498.862924785266 201 0 5 199 595
4	26531 3964 159 1076 355.979007948504 2495.520696773692 101 0.263204734365 58.107426067862 1770.849829456 54228.460986437
5	30495 3214 159 1078 355.979007948504 2498.862924785266 101 0 46.795961604214 850.04555156263 23788.934728908
6	33709 9449 160 1076 356.354081954338 2495.520696773692 239 65.815416502335 397.30078992996 45243.737217002 9629823.9527266
7	43158 4977 161 1064 357.856196434875 2460.592540047378 183 20 202 20313 2765435
8	48135 7232 161 1064 357.856196434875 2460.592540047378 183 75.031873644577 375.48426757261 34973.168538417 7367545.7542048
9	55367 2573 168 1078 375.391315048882 2498.862924785266 100 1 6 199 595
10	57940 1549 168 1078 375.391315048882 2498.862924785266 56 12 67 2212 102004
11	59489 20 1081 1081 2500 2500 1 0.0808 0.0808 0.0808 0.00652864
12	59509 20 1081 1081 2500 2500 1 0.0488 0.0488 0.0488 0.00238144

