version 2
run experiments_hard_game_mode1-300-20230311-19:40:26-6166
attr configname experiments_hard_game_mode1
attr datetime 20230311-19:40:26
attr experiment experiments_hard_game_mode1
attr inifile omnetpp.ini
attr iterationvars "$0=8, $1=3, $2=0"
attr iterationvarsf 8,3,0-
attr measurement "$0=8, $1=3, $2=0"
attr network Network
attr processid 6166
attr repetition 0
attr replication #0
attr resultdir results
attr runnumber 300
attr seedset 0
param *.boss.arrival_mean 20
param *.boss.service_mean 8
param *.minion.arrival_mean 10
param *.minion.service_mean 3
param *.player.recover_rate_x 0
param **.minion.arrival_distribution 0
param **.minion.service_distribution 0
param **.boss.arrival_distribution 0
param **.boss.service_distribution 0

vector 0 Network.player boss_defeated_stat:vector ETV
attr source signal_boss_defeated
vector 1 Network.player boss_jobs_queue_number_stat:vector ETV
attr source signal_boss_jobs_queue_number
vector 2 Network.player boss_response_time_stat:vector ETV
attr source signal_boss_response_time
vector 3 Network.player minion_jobs_number_stat:vector ETV
attr source signal_minion_jobs_number
vector 4 Network.player minion_jobs_queue_number_stat:vector ETV
attr source signal_minion_jobs_queue_number
vector 5 Network.player minion_waiting_time_stat:vector ETV
attr source signal_minion_waiting_time
vector 6 Network.player minion_defeated_stat:vector ETV
attr source signal_minion_defeated
vector 7 Network.player minion_response_time_stat:vector ETV
attr source signal_minion_response_time
vector 8 Network.player boss_jobs_number_stat:vector ETV
attr source signal_boss_jobs_number
vector 9 Network.player boss_waiting_time_stat:vector ETV
attr source signal_boss_waiting_time
vector 10 Network.player minion_recovered_stat:vector ETV
attr source signal_minion_recovered
vector 11 Network.player minion_throughput:vector ETV
attr source signal_minion_throughput
vector 12 Network.player boss_throughput:vector ETV
attr source signal_boss_throughput
0	168	351.251058618828	22
0	174	369.941053115817	23
0	181	392.866024555466	24
0	182	401.245060900776	25
0	191	406.675785908269	26
0	195	421.75815231361	27
0	201	440.31770543035	28
0	206	449.923227543949	29
0	210	471.770814762208	30
0	221	504.265787218766	31
0	226	523.82833243096	32
0	237	541.771481455049	33
0	247	568.993124596052	34
0	252	577.560357350581	35
0	263	610.564694303378	36
0	268	621.364794051383	37
0	273	626.977781113573	38
0	274	631.268312566275	39
0	309	700.844643985327	40
0	319	711.148343068317	41
0	324	718.455961504342	42
0	335	727.906816557317	43
0	340	734.973920113389	44
0	347	739.618952454184	45
0	348	742.190739924065	46
0	351	743.555791460352	47
0	358	748.405791827161	48
0	359	754.699285879736	49
0	367	771.053470307862	50
0	373	790.002202978268	51
0	386	808.172263196217	52
0	387	811.098721408194	53
0	388	813.48149969578	54
0	391	815.489296679229	55
0	415	854.024418251969	56
0	416	857.952226508268	57
0	421	868.478217867521	58
0	434	890.517296370187	59
0	435	890.683935945138	60
0	442	920.520023655647	61
0	443	921.751924276503	62
0	448	930.679221133748	63
0	449	933.827191427965	64
0	456	952.477875251648	65
0	469	965.71876514624	66
0	472	980.672255327749	67
0	484	1000.029762892449	68
0	500	1013.828562360534	69
0	512	1036.210163623546	70
0	516	1042.345536319209	71
0	528	1064.831327570645	72
0	534	1100.599020364347	73
0	560	1198.383399443039	74
0	574	1209.885383080031	75
0	579	1219.887353120786	76
0	582	1223.477233430872	77
0	583	1223.66434519481	78
0	596	1238.829547781877	79
0	621	1278.074377917225	80
0	639	1346.005984959823	81
0	653	1362.697996248853	82
0	659	1375.005951262226	83
0	662	1386.037560347208	84
0	672	1421.409991994864	85
0	690	1526.438417361712	86
0	693	1530.032680745658	87
0	700	1536.666712972611	88
0	710	1556.490244785546	89
0	720	1566.064851922724	90
0	728	1584.498777635324	91
0	735	1610.56124168152	92
0	744	1620.407846824293	93
0	754	1638.464924071084	94
0	765	1654.715966750078	95
0	775	1678.003113740314	96
0	778	1682.611353709205	97
0	782	1690.163473857012	98
0	808	1752.735364139233	99
0	819	1780.520178956701	100
0	826	1797.448572413859	101
0	840	1840.700435141456	102
0	841	1842.499382588901	103
0	863	1890.669614727526	104
0	872	1905.040344387625	105
0	889	1948.599353514473	106
0	906	1972.672761609539	107
0	921	1995.85818383326	108
0	928	2002.134009006008	109
0	931	2006.857296193368	110
0	934	2010.454842071288	111
0	948	2033.451471318197	112
0	955	2045.369804980091	113
0	960	2052.63370941268	114
0	961	2063.620615171309	115
0	977	2096.946384212989	116
0	1005	2203.286642347645	117
0	1022	2263.776101443339	118
0	1040	2330.429081360263	119
0	1044	2338.106245620532	120
0	1058	2371.021278755822	121
0	1070	2406.347488909316	122
0	1075	2418.73629449539	123
0	1083	2439.808144773622	124
0	1089	2466.714767240688	125
0	1099	2482.724654749171	126
0	1100	2489.528563803838	127
1	168	351.251058618828	0
1	173	365.058342191057	0
1	174	369.941053115817	0
1	176	388.037052425803	0
1	180	390.927857908176	1
1	181	392.866024555466	1
1	182	401.245060900776	0
1	190	404.73333087535	0
1	191	406.675785908269	0
1	194	419.146910101711	0
1	195	421.75815231361	0
1	200	436.823234710174	0
1	201	440.31770543035	0
1	203	440.900837049397	0
1	206	449.923227543949	0
1	209	466.342603331937	0
1	210	471.770814762208	0
1	218	497.116149187221	0
1	220	503.09769978815	1
1	221	504.265787218766	1
1	226	523.82833243096	0
1	236	541.577288411556	0
1	237	541.771481455049	0
1	242	557.379584999622	0
1	247	568.993124596052	0
1	249	571.013320665705	0
1	252	577.560357350581	0
1	254	581.474923170251	0
1	263	610.564694303378	0
1	267	618.964030904645	0
1	268	621.364794051383	0
1	270	622.85963881137	0
1	272	624.51956532149	1
1	273	626.977781113573	1
1	274	631.268312566275	0
1	308	694.407150928009	0
1	309	700.844643985327	0
1	316	708.481046712107	0
1	319	711.148343068317	0
1	321	715.529536791828	0
1	323	716.879841144914	1
1	324	718.455961504342	1
1	332	723.6697040014	1
1	335	727.906816557317	1
1	339	734.846307524025	1
1	340	734.973920113389	1
1	344	737.31664614593	1
1	346	739.346914019748	2
1	347	739.618952454184	2
1	348	742.190739924065	1
1	350	743.358100075954	1
1	351	743.555791460352	1
1	355	746.078159748484	1
1	358	748.405791827161	1
1	359	754.699285879736	0
1	364	759.713988500873	0
1	367	771.053470307862	0
1	372	777.877727033664	0
1	373	790.002202978268	0
1	379	794.561121372008	0
1	381	799.685099640979	1
1	383	804.701437837468	2
1	385	806.963595367265	3
1	386	808.172263196217	3
1	387	811.098721408194	2
1	388	813.48149969578	1
1	391	815.489296679229	0
1	408	836.140137449287	0
1	410	841.117217619398	1
1	415	854.024418251969	1
1	416	857.952226508268	0
1	418	858.339450889291	0
1	420	866.949764860109	1
1	421	868.478217867521	1
1	423	870.623974825057	1
1	427	883.238222931355	2
1	434	890.517296370187	2
1	435	890.683935945138	1
1	437	892.398818790866	1
1	439	896.905318042219	2
1	441	909.552892526914	3
1	442	920.520023655647	3
1	443	921.751924276503	2
1	447	930.008526162325	2
1	448	930.679221133748	2
1	449	933.827191427965	1
1	455	951.250248410845	1
1	456	952.477875251648	1
1	466	964.447198103986	1
1	469	965.71876514624	1
1	472	980.672255327749	0
1	481	995.956600520193	0
1	484	1000.029762892449	0
1	499	1010.030117456946	0
1	500	1013.828562360534	0
1	511	1031.787232155939	0
1	512	1036.210163623546	0
1	515	1041.57153689313	0
1	516	1042.345536319209	0
1	527	1060.559683230173	0
1	528	1064.831327570645	0
1	533	1092.122097599442	0
1	534	1100.599020364347	0
1	557	1186.006490948789	0
1	560	1198.383399443039	0
1	565	1203.356701488495	0
1	569	1205.901663236199	1
1	573	1209.443534644607	2
1	574	1209.885383080031	2
1	576	1212.660171838827	2
1	579	1219.887353120786	2
1	582	1223.477233430872	1
1	583	1223.66434519481	0
1	595	1236.78984715634	0
1	596	1238.829547781877	0
1	620	1275.038720804297	0
1	621	1278.074377917225	0
1	638	1341.831971966471	0
1	639	1346.005984959823	0
1	650	1356.079627233473	0
1	653	1362.697996248853	0
1	656	1369.942905406479	0
1	658	1374.84225275845	1
1	659	1375.005951262226	1
1	662	1386.037560347208	0
1	671	1418.900678856088	0
1	672	1421.409991994864	0
1	689	1518.913265032233	0
1	690	1526.438417361712	0
1	692	1527.272532464144	0
1	693	1530.032680745658	0
1	695	1534.84794874575	0
1	700	1536.666712972611	0
1	709	1551.594958035781	0
1	710	1556.490244785546	0
1	713	1557.582850544547	0
1	720	1566.064851922724	0
1	723	1568.739307218153	0
1	728	1584.498777635324	0
1	734	1601.86730711915	0
1	735	1610.56124168152	0
1	739	1613.347843900331	0
1	744	1620.407846824293	0
1	747	1622.076911568479	0
1	754	1638.464924071084	0
1	764	1652.049086036555	0
1	765	1654.715966750078	0
1	770	1664.665401336451	0
1	775	1678.003113740314	0
1	777	1680.005761790246	0
1	778	1682.611353709205	0
1	781	1686.414640465257	0
1	782	1690.163473857012	0
1	803	1747.885153759755	0
1	808	1752.735364139233	0
1	818	1779.894755724619	0
1	819	1780.520178956701	0
1	825	1795.609136824645	0
1	826	1797.448572413859	0
1	837	1829.264198008331	0
1	839	1830.977423873753	1
1	840	1840.700435141456	1
1	841	1842.499382588901	0
1	860	1890.142463571974	0
1	863	1890.669614727526	0
1	869	1899.267394109141	0
1	872	1905.040344387625	0
1	880	1933.886473698141	0
1	889	1948.599353514473	0
1	905	1971.942596377363	0
1	906	1972.672761609539	0
1	914	1986.420461942477	0
1	921	1995.85818383326	0
1	923	1996.847244160215	0
1	927	2001.842081440919	1
1	928	2002.134009006008	1
1	930	2002.393665442616	1
1	931	2006.857296193368	1
1	934	2010.454842071288	0
1	947	2029.851865139414	0
1	948	2033.451471318197	0
1	950	2035.530374205771	0
1	955	2045.369804980091	0
1	957	2046.826782324502	0
1	959	2048.216878838541	1
1	960	2052.63370941268	1
1	961	2063.620615171309	0
1	974	2092.056321117119	0
1	977	2096.946384212989	0
1	1004	2193.888924218505	0
1	1005	2203.286642347645	0
1	1019	2250.55891489116	0
1	1022	2263.776101443339	0
1	1037	2321.080740139735	0
1	1040	2330.429081360263	0
1	1043	2335.064538159043	0
1	1044	2338.106245620532	0
1	1057	2367.279148164219	0
1	1058	2371.021278755822	0
1	1065	2391.495205482738	0
1	1070	2406.347488909316	0
1	1074	2409.912083040808	0
1	1075	2418.73629449539	0
1	1082	2434.432498188945	0
1	1083	2439.808144773622	0
1	1088	2463.3924778558	0
1	1089	2466.714767240688	0
1	1094	2476.510344138141	0
1	1098	2480.218280446483	1
1	1099	2482.724654749171	1
1	1100	2489.528563803838	0
2	168	351.251058618828	1.25669459797
2	174	369.941053115817	4.88271092476
2	181	392.866024555466	4.828972129663
2	182	401.245060900776	10.3172029926
2	191	406.675785908269	1.942455032919
2	195	421.75815231361	2.611242211899
2	201	440.31770543035	3.494470720176
2	206	449.923227543949	9.022390494552
2	210	471.770814762208	5.428211430271
2	221	504.265787218766	7.149638031545
2	226	523.82833243096	20.73063264281
2	237	541.771481455049	0.194193043493
2	247	568.993124596052	11.61353959643
2	252	577.560357350581	6.547036684876
2	263	610.564694303378	29.089771133127
2	268	621.364794051383	2.400763146738
2	273	626.977781113573	4.118142302203
2	274	631.268312566275	6.748747244785
2	309	700.844643985327	6.437493057318
2	319	711.148343068317	2.66729635621
2	324	718.455961504342	2.926424712514
2	335	727.906816557317	11.026975412403
2	340	734.973920113389	11.304216111989
2	347	739.618952454184	4.772644930159
2	348	742.190739924065	4.874093778135
2	351	743.555791460352	4.208877440604
2	358	748.405791827161	5.047691751207
2	359	754.699285879736	8.621126131252
2	367	771.053470307862	11.339481806989
2	373	790.002202978268	12.124475944604
2	386	808.172263196217	13.611141824209
2	387	811.098721408194	11.413621767215
2	388	813.48149969578	8.780061858312
2	391	815.489296679229	8.525701311964
2	415	854.024418251969	17.884280802682
2	416	857.952226508268	16.83500888887
2	421	868.478217867521	10.13876697823
2	434	890.517296370187	23.567531510078
2	435	890.683935945138	20.059961120081
2	442	920.520023655647	37.281800724292
2	443	921.751924276503	29.353105485637
2	448	930.679221133748	33.773903091529
2	449	933.827191427965	24.274298901051
2	456	952.477875251648	22.469349089323
2	469	965.71876514624	14.468516735395
2	472	980.672255327749	16.225057223763
2	484	1000.029762892449	4.073162372256
2	500	1013.828562360534	3.798444903588
2	512	1036.210163623546	4.422931467607
2	516	1042.345536319209	0.773999426079
2	528	1064.831327570645	4.271644340472
2	534	1100.599020364347	8.476922764905
2	560	1198.383399443039	12.37690849425
2	574	1209.885383080031	6.528681591536
2	579	1219.887353120786	13.985689884587
2	582	1223.477233430872	14.033698786265
2	583	1223.66434519481	11.004173355983
2	596	1238.829547781877	2.039700625537
2	621	1278.074377917225	3.035657112928
2	639	1346.005984959823	4.174012993352
2	653	1362.697996248853	6.61836901538
2	659	1375.005951262226	5.063045855747
2	662	1386.037560347208	11.195307588758
2	672	1421.409991994864	2.509313138776
2	690	1526.438417361712	7.525152329479
2	693	1530.032680745658	2.760148281514
2	700	1536.666712972611	1.818764226861
2	710	1556.490244785546	4.895286749765
2	720	1566.064851922724	8.482001378177
2	728	1584.498777635324	15.759470417171
2	735	1610.56124168152	8.69393456237
2	744	1620.407846824293	7.060002923962
2	754	1638.464924071084	16.388012502605
2	765	1654.715966750078	2.666880713523
2	775	1678.003113740314	13.337712403863
2	778	1682.611353709205	2.605591918959
2	782	1690.163473857012	3.748833391755
2	808	1752.735364139233	4.850210379478
2	819	1780.520178956701	0.625423232082
2	826	1797.448572413859	1.839435589214
2	840	1840.700435141456	11.436237133125
2	841	1842.499382588901	11.521958715148
2	863	1890.669614727526	0.527151155552
2	872	1905.040344387625	5.772950278484
2	889	1948.599353514473	14.712879816332
2	906	1972.672761609539	0.730165232176
2	921	1995.85818383326	9.437721890783
2	928	2002.134009006008	5.286764845793
2	931	2006.857296193368	5.015214752449
2	934	2010.454842071288	8.061176628672
2	948	2033.451471318197	3.599606178783
2	955	2045.369804980091	9.83943077432
2	960	2052.63370941268	5.806927088178
2	961	2063.620615171309	15.403736332768
2	977	2096.946384212989	4.89006309587
2	1005	2203.286642347645	9.39771812914
2	1022	2263.776101443339	13.217186552179
2	1040	2330.429081360263	9.348341220528
2	1044	2338.106245620532	3.041707461489
2	1058	2371.021278755822	3.742130591603
2	1070	2406.347488909316	14.852283426578
2	1075	2418.73629449539	8.824211454582
2	1083	2439.808144773622	5.375646584677
2	1089	2466.714767240688	3.322289384888
2	1099	2482.724654749171	6.21431061103
2	1100	2489.528563803838	9.310283357355
3	170	356.599406890352	1
3	178	388.101106177111	1
3	185	403.158948763485	1
3	188	404.671257300135	1
3	197	425.074399879554	1
3	205	445.483322038671	1
3	212	483.935540730089	1
3	215	490.35263245687	1
3	223	506.405028027485	1
3	225	522.545048776411	2
3	228	528.734343372678	3
3	231	536.083987584576	3
3	239	551.249347324478	1
3	244	562.60873674158	1
3	246	563.867480835961	2
3	251	576.619757858197	3
3	256	586.834076601689	4
3	258	595.55728855211	5
3	260	597.10458535711	6
3	262	604.812931941783	7
3	276	633.757136721654	6
3	284	647.970783522591	1
3	287	655.34905644015	1
3	290	656.468518046476	1
3	293	661.824175248755	1
3	296	668.241122269066	1
3	298	671.313925790591	2
3	302	673.375958610896	1
3	305	688.258506868413	1
3	311	701.611408714652	1
3	314	707.702232946483	1
3	318	710.142717853848	2
3	326	718.54606490997	3
3	328	719.998845182892	4
3	330	720.188530874903	5
3	334	724.10623898167	6
3	337	733.720048372328	7
3	342	735.341413266788	8
3	353	744.811380038538	9
3	357	747.325799359286	10
3	362	756.921279132968	10
3	366	761.806849626048	11
3	375	790.585999838825	9
3	390	813.875133580967	8
3	394	825.326523127968	8
3	403	831.303983896152	2
3	406	835.759168846664	2
3	412	845.254114681631	3
3	414	850.999438749043	4
3	425	874.262949365986	5
3	429	886.224027360557	6
3	431	887.269639618309	7
3	433	887.890792522973	8
3	445	922.892929367519	9
3	451	933.882054043028	10
3	453	944.470395357904	11
3	458	955.576369814776	12
3	460	957.450630474955	13
3	462	959.812697535782	14
3	464	964.246737821988	15
3	468	965.627024706273	16
3	471	979.517451604183	17
3	475	983.30707124701	17
3	479	992.667686844724	16
3	483	997.18870744697	17
3	487	1001.119833020011	17
3	493	1009.564110955288	14
3	497	1009.955942519419	13
3	503	1015.729185627484	13
3	508	1025.78789567915	11
3	530	1070.332864140911	1
3	536	1102.262330561447	1
3	538	1103.338681643008	2
3	542	1113.91694577653	1
3	545	1116.259960964286	1
3	548	1126.340153418487	1
3	550	1128.099288872743	2
3	554	1181.700292375175	1
3	559	1192.287719526116	1
3	563	1201.006878062373	1
3	567	1203.927683395045	2
3	571	1209.278330165878	3
3	578	1215.55774597579	4
3	581	1221.995555991815	5
3	587	1224.798326076605	4
3	590	1234.566966817312	4
3	592	1236.298241378774	5
3	598	1240.423253677999	5
3	600	1241.592807775924	6
3	608	1252.824490791257	1
3	611	1263.505212762752	1
3	614	1267.320771196494	1
3	616	1268.807893889015	2
3	623	1283.87424722174	1
3	625	1286.063053186813	2
3	629	1315.934952105333	1
3	632	1320.535091682736	1
3	635	1331.397785491519	1
3	641	1348.601102068685	1
3	643	1348.737747852994	2
3	645	1349.759196668243	3
3	652	1359.510216009806	1
3	661	1377.70840520265	1
3	664	1388.906548860189	2
3	666	1389.916896613279	3
3	674	1425.652780336723	1
3	677	1463.143094932568	1
3	680	1484.19630794049	1
3	683	1490.519673904448	1
3	686	1497.64550983778	1
3	697	1535.26478268282	1
3	699	1535.838051947058	2
3	704	1545.122836916072	1
3	707	1551.122305782482	1
3	715	1564.564758504005	1
3	717	1564.766659785467	2
3	719	1565.16642277605	3
3	725	1570.99520666472	3
3	727	1574.319309074357	4
3	737	1613.23501030281	1
3	741	1614.515577955922	2
3	743	1618.96977257512	3
3	749	1622.481533468933	3
3	751	1629.037996312569	4
3	753	1630.301882676822	5
3	758	1641.970617942308	4
3	760	1645.797627430926	5
3	772	1667.039999400943	1
3	774	1672.388843158512	2
3	785	1697.427960989364	1
3	787	1698.090935004186	2
3	789	1700.534889485004	3
3	794	1712.326784755656	1
3	797	1720.655219916318	1
3	800	1729.016195236021	1
3	805	1749.048600461093	1
3	807	1752.132748862071	2
3	811	1759.245228234243	2
3	815	1766.652817738713	1
3	821	1791.508641308481	1
3	823	1792.495144392664	2
3	830	1817.898189472251	1
3	833	1826.477145882993	1
3	835	1827.344850706389	2
3	845	1853.837409993153	1
3	848	1857.090814148443	1
3	851	1860.926416289429	1
3	853	1861.02042379607	2
3	857	1872.028882896978	1
3	862	1890.502159406996	1
3	866	1891.915466542604	1
3	871	1902.333273084399	1
3	875	1914.932611185489	1
3	878	1933.34543590036	1
3	882	1936.761977570621	2
3	884	1939.837154808245	3
3	886	1941.860659193917	4
3	888	1946.932660426483	5
3	891	1955.763950846076	6
3	897	1963.81192484409	3
3	899	1964.015049432046	4
3	902	1965.817571951894	4
3	911	1983.474982676025	1
3	916	1988.09229163647	1
3	918	1988.139357041393	2
3	920	1989.722772103698	3
3	925	2001.049113523423	4
3	933	2009.479943844907	5
3	936	2012.627160453453	6
3	944	2024.792246987819	1
3	952	2038.079825725322	1
3	954	2041.483293107674	2
3	965	2074.234724884822	1
3	968	2079.913766419625	1
3	971	2082.773976144706	1
3	976	2096.88422023765	1
3	980	2105.46814991594	1
3	983	2110.511587981818	1
3	986	2119.477496689677	1
3	989	2142.114832448286	1
3	992	2150.60704056393	1
3	995	2160.793627864118	1
3	997	2163.317827793029	2
3	1001	2185.53289677777	1
3	1007	2216.055713346613	1
3	1009	2227.451792981942	2
3	1011	2233.378033256464	3
3	1016	2239.341827199759	1
3	1021	2258.076425998331	1
3	1025	2296.506491830768	1
3	1028	2308.528877503233	1
3	1030	2309.764143976854	2
3	1032	2313.294345309596	3
3	1039	2327.862530895238	1
3	1046	2344.671752940697	1
3	1049	2349.978977906862	1
3	1052	2355.029165384409	1
3	1055	2366.281985552846	1
3	1061	2387.576979513526	1
3	1063	2390.451084274226	2
3	1067	2399.15644253749	3
3	1069	2402.913830961558	4
3	1079	2424.26213546139	1
3	1085	2457.905839991901	1
3	1091	2469.699669328347	1
3	1096	2478.578283432714	1
3	1103	2491.497376120721	1
4	170	356.599406890352	0
4	171	359.053428824492	0
4	178	388.101106177111	0
4	183	402.935096594801	0
4	185	403.158948763485	0
4	186	403.612767516501	0
4	188	404.671257300135	0
4	192	415.010648166904	0
4	197	425.074399879554	0
4	198	425.736719530208	0
4	205	445.483322038671	0
4	207	454.443725790927	0
4	212	483.935540730089	0
4	213	488.775043803867	0
4	215	490.35263245687	0
4	216	494.128664090396	0
4	223	506.405028027485	0
4	225	522.545048776411	1
4	228	528.734343372678	2
4	229	534.179013692818	2
4	231	536.083987584576	2
4	232	539.048977770354	2
4	233	540.177093637598	1
4	234	540.469273354972	0
4	239	551.249347324478	0
4	240	554.78545783211	0
4	244	562.60873674158	0
4	246	563.867480835961	1
4	251	576.619757858197	2
4	256	586.834076601689	3
4	258	595.55728855211	4
4	260	597.10458535711	5
4	262	604.812931941783	6
4	264	610.73488134913	6
4	265	616.742772780358	5
4	276	633.757136721654	5
4	277	636.569166222051	5
4	278	636.835804807824	4
4	279	642.14468403969	3
4	280	642.280710864611	2
4	281	647.536033712266	1
4	282	647.655547349732	0
4	284	647.970783522591	0
4	285	648.927476168036	0
4	287	655.34905644015	0
4	288	655.907432307025	0
4	290	656.468518046476	0
4	291	656.651729900966	0
4	293	661.824175248755	0
4	294	668.138884202646	0
4	296	668.241122269066	0
4	298	671.313925790591	1
4	299	671.571914361867	1
4	300	671.882490418334	0
4	302	673.375958610896	0
4	303	676.073267855133	0
4	305	688.258506868413	0
4	306	689.898422944674	0
4	311	701.611408714652	0
4	312	704.952471597952	0
4	314	707.702232946483	0
4	318	710.142717853848	1
4	326	718.54606490997	2
4	328	719.998845182892	3
4	330	720.188530874903	4
4	334	724.10623898167	5
4	337	733.720048372328	6
4	342	735.341413266788	7
4	353	744.811380038538	8
4	357	747.325799359286	9
4	360	756.29128881792	9
4	362	756.921279132968	9
4	366	761.806849626048	10
4	368	773.338810375527	10
4	369	773.999070909675	9
4	370	777.530840682432	8
4	375	790.585999838825	8
4	376	791.139471401484	8
4	377	791.599345014555	7
4	390	813.875133580967	7
4	392	820.077221155292	7
4	394	825.326523127968	7
4	395	825.475852342288	7
4	396	826.395521937558	6
4	397	827.991357400924	5
4	398	828.670377499111	4
4	399	828.725750233109	3
4	400	829.24385048062	2
4	401	829.348156880806	1
4	403	831.303983896152	1
4	404	833.508772212876	1
4	406	835.759168846664	1
4	412	845.254114681631	2
4	414	850.999438749043	3
4	425	874.262949365986	4
4	429	886.224027360557	5
4	431	887.269639618309	6
4	433	887.890792522973	7
4	445	922.892929367519	8
4	451	933.882054043028	9
4	453	944.470395357904	10
4	458	955.576369814776	11
4	460	957.450630474955	12
4	462	959.812697535782	13
4	464	964.246737821988	14
4	468	965.627024706273	15
4	471	979.517451604183	16
4	473	980.975627736117	16
4	475	983.30707124701	16
4	476	984.217671306154	16
4	477	988.354622589583	15
4	479	992.667686844724	15
4	483	997.18870744697	16
4	485	1001.093345924567	16
4	487	1001.119833020011	16
4	488	1002.080708663752	16
4	489	1003.85320887187	15
4	490	1008.524874486755	14
4	491	1009.278441053351	13
4	493	1009.564110955288	13
4	494	1009.605295292626	13
4	495	1009.833879221802	12
4	497	1009.955942519419	12
4	501	1015.728890034204	12
4	503	1015.729185627484	12
4	504	1022.906271883776	12
4	505	1023.209621349846	11
4	506	1024.252402304387	10
4	508	1025.78789567915	10
4	509	1031.26300570414	10
4	513	1036.591927219496	9
4	517	1042.763421037101	8
4	518	1044.995475674782	7
4	519	1045.054146539949	6
4	520	1045.316128838117	5
4	521	1046.901933685926	4
4	522	1050.309339449299	3
4	523	1057.771075633461	2
4	524	1058.264934845412	1
4	525	1058.788054865205	0
4	530	1070.332864140911	0
4	531	1071.046220221506	0
4	536	1102.262330561447	0
4	538	1103.338681643008	1
4	539	1109.501150735797	1
4	540	1110.427037160821	0
4	542	1113.91694577653	0
4	543	1114.982388869745	0
4	545	1116.259960964286	0
4	546	1118.289262809899	0
4	548	1126.340153418487	0
4	550	1128.099288872743	1
4	551	1128.974170969398	1
4	552	1129.138688250571	0
4	554	1181.700292375175	0
4	555	1184.203816573805	0
4	559	1192.287719526116	0
4	561	1200.944175571991	0
4	563	1201.006878062373	0
4	567	1203.927683395045	1
4	571	1209.278330165878	2
4	578	1215.55774597579	3
4	581	1221.995555991815	4
4	584	1224.169796144342	4
4	585	1224.645828879417	3
4	587	1224.798326076605	3
4	588	1234.053272138122	3
4	590	1234.566966817312	3
4	592	1236.298241378774	4
4	593	1236.722989360132	4
4	598	1240.423253677999	4
4	600	1241.592807775924	5
4	601	1242.439050783078	5
4	602	1243.227103873815	4
4	603	1243.550976964865	3
4	604	1244.391405918073	2
4	605	1246.678566476914	1
4	606	1248.282159577066	0
4	608	1252.824490791257	0
4	609	1261.807977922005	0
4	611	1263.505212762752	0
4	612	1267.061648978989	0
4	614	1267.320771196494	0
4	616	1268.807893889015	1
4	617	1269.358856667568	1
4	618	1270.963081021227	0
4	623	1283.87424722174	0
4	625	1286.063053186813	1
4	626	1286.207752508242	1
4	627	1286.361485422891	0
4	629	1315.934952105333	0
4	630	1320.285660658447	0
4	632	1320.535091682736	0
4	633	1322.838034165804	0
4	635	1331.397785491519	0
4	636	1331.537003550856	0
4	641	1348.601102068685	0
4	643	1348.737747852994	1
4	645	1349.759196668243	2
4	646	1351.871201493239	2
4	647	1352.323551979579	1
4	648	1354.493685289447	0
4	652	1359.510216009806	0
4	654	1367.414474355259	0
4	661	1377.70840520265	0
4	664	1388.906548860189	1
4	666	1389.916896613279	2
4	667	1394.716803583978	2
4	668	1394.807566919118	1
4	669	1397.457259553483	0
4	674	1425.652780336723	0
4	675	1432.092743317383	0
4	677	1463.143094932568	0
4	678	1470.154683952923	0
4	680	1484.19630794049	0
4	681	1486.531039097965	0
4	683	1490.519673904448	0
4	684	1490.963346305259	0
4	686	1497.64550983778	0
4	687	1499.428023836436	0
4	697	1535.26478268282	0
4	699	1535.838051947058	1
4	701	1537.116658319809	1
4	702	1543.7973069777	0
4	704	1545.122836916072	0
4	705	1550.064120596824	0
4	707	1551.122305782482	0
4	711	1557.440033994479	0
4	715	1564.564758504005	0
4	717	1564.766659785467	1
4	719	1565.16642277605	2
4	721	1567.585735393588	2
4	725	1570.99520666472	2
4	727	1574.319309074357	3
4	729	1585.041021120579	3
4	730	1586.206779485679	2
4	731	1589.376015526392	1
4	732	1597.248876676791	0
4	737	1613.23501030281	0
4	741	1614.515577955922	1
4	743	1618.96977257512	2
4	745	1621.639791413113	2
4	749	1622.481533468933	2
4	751	1629.037996312569	3
4	753	1630.301882676822	4
4	755	1641.003879026742	4
4	756	1641.848813881044	3
4	758	1641.970617942308	3
4	760	1645.797627430926	4
4	761	1646.017458057918	4
4	762	1649.064436416062	3
4	766	1655.12107248132	2
4	767	1661.565675296211	1
4	768	1662.46488515821	0
4	772	1667.039999400943	0
4	774	1672.388843158512	1
4	779	1685.543237879189	1
4	783	1690.804952718765	0
4	785	1697.427960989364	0
4	787	1698.090935004186	1
4	789	1700.534889485004	2
4	790	1700.558198228271	2
4	791	1704.728411928397	1
4	792	1706.03899641185	0
4	794	1712.326784755656	0
4	795	1713.614053216929	0
4	797	1720.655219916318	0
4	798	1724.977256872751	0
4	800	1729.016195236021	0
4	801	1729.960031158182	0
4	805	1749.048600461093	0
4	807	1752.132748862071	1
4	809	1754.058011762972	1
4	811	1759.245228234243	1
4	812	1760.844824448096	1
4	813	1765.037355730785	0
4	815	1766.652817738713	0
4	816	1768.329144910398	0
4	821	1791.508641308481	0
4	823	1792.495144392664	1
4	827	1807.492115226634	1
4	828	1809.786145005749	0
4	830	1817.898189472251	0
4	831	1817.933402913406	0
4	833	1826.477145882993	0
4	835	1827.344850706389	1
4	842	1844.567499946875	1
4	843	1845.04739769607	0
4	845	1853.837409993153	0
4	846	1856.753579293203	0
4	848	1857.090814148443	0
4	849	1857.320783526697	0
4	851	1860.926416289429	0
4	853	1861.02042379607	1
4	854	1861.292058195879	1
4	855	1865.930764147541	0
4	857	1872.028882896978	0
4	858	1880.985590764772	0
4	862	1890.502159406996	0
4	864	1890.868249934313	0
4	866	1891.915466542604	0
4	867	1893.708498309483	0
4	871	1902.333273084399	0
4	873	1906.357303171506	0
4	875	1914.932611185489	0
4	876	1917.523632080313	0
4	878	1933.34543590036	0
4	882	1936.761977570621	1
4	884	1939.837154808245	2
4	886	1941.860659193917	3
4	888	1946.932660426483	4
4	891	1955.763950846076	5
4	892	1956.591830620407	5
4	893	1958.16526989695	4
4	894	1959.598425628765	3
4	895	1960.41002343909	2
4	897	1963.81192484409	2
4	899	1964.015049432046	3
4	900	1964.72809721537	3
4	902	1965.817571951894	3
4	903	1971.738990760793	3
4	907	1975.230453130666	2
4	908	1976.306314352519	1
4	909	1980.532613405593	0
4	911	1983.474982676025	0
4	912	1983.483606032169	0
4	916	1988.09229163647	0
4	918	1988.139357041393	1
4	920	1989.722772103698	2
4	925	2001.049113523423	3
4	933	2009.479943844907	4
4	936	2012.627160453453	5
4	937	2013.335138271208	5
4	938	2013.833053471739	4
4	939	2017.288963463785	3
4	940	2018.475410826354	2
4	941	2021.068170734634	1
4	942	2023.314518965207	0
4	944	2024.792246987819	0
4	945	2024.819393426159	0
4	952	2038.079825725322	0
4	954	2041.483293107674	1
4	962	2067.324349613595	1
4	963	2072.380519337083	0
4	965	2074.234724884822	0
4	966	2075.560815415572	0
4	968	2079.913766419625	0
4	969	2081.822030630054	0
4	971	2082.773976144706	0
4	972	2089.9493775962	0
4	976	2096.88422023765	0
4	978	2101.285696783249	0
4	980	2105.46814991594	0
4	981	2108.397547212325	0
4	983	2110.511587981818	0
4	984	2112.401500597392	0
4	986	2119.477496689677	0
4	987	2119.525339887532	0
4	989	2142.114832448286	0
4	990	2143.054862213872	0
4	992	2150.60704056393	0
4	993	2158.560798578768	0
4	995	2160.793627864118	0
4	997	2163.317827793029	1
4	998	2166.139517304962	1
4	999	2169.661758693931	0
4	1001	2185.53289677777	0
4	1002	2187.937265819808	0
4	1007	2216.055713346613	0
4	1009	2227.451792981942	1
4	1011	2233.378033256464	2
4	1012	2233.824722543209	2
4	1013	2234.042697519518	1
4	1014	2234.610157881286	0
4	1016	2239.341827199759	0
4	1017	2241.260504499382	0
4	1021	2258.076425998331	0
4	1023	2264.218595144208	0
4	1025	2296.506491830768	0
4	1026	2300.579785459305	0
4	1028	2308.528877503233	0
4	1030	2309.764143976854	1
4	1032	2313.294345309596	2
4	1033	2316.620006432679	2
4	1034	2317.259423014606	1
4	1035	2320.839690605596	0
4	1039	2327.862530895238	0
4	1041	2332.30168873313	0
4	1046	2344.671752940697	0
4	1047	2344.876590020452	0
4	1049	2349.978977906862	0
4	1050	2350.764486055004	0
4	1052	2355.029165384409	0
4	1053	2359.254331977236	0
4	1055	2366.281985552846	0
4	1059	2372.153455586982	0
4	1061	2387.576979513526	0
4	1063	2390.451084274226	1
4	1067	2399.15644253749	2
4	1069	2402.913830961558	3
4	1071	2407.049224026369	3
4	1072	2407.336759827014	2
4	1076	2418.887978063994	1
4	1077	2424.005460707765	0
4	1079	2424.26213546139	0
4	1080	2427.991573488538	0
4	1085	2457.905839991901	0
4	1086	2460.10064265823	0
4	1091	2469.699669328347	0
4	1092	2470.097764989175	0
4	1096	2478.578283432714	0
4	1101	2490.095798886943	0
4	1103	2491.497376120721	0
4	1104	2491.557617322412	0
5	170	356.599406890352	0
5	182	401.245060900776	13.143954723665
5	185	403.158948763485	0
5	188	404.671257300135	0
5	191	406.675785908269	1.942455032919
5	197	425.074399879554	0
5	206	449.923227543949	4.439905505278
5	212	483.935540730089	0
5	215	490.35263245687	0
5	226	523.82833243096	17.423304403475
5	229	534.179013692818	11.633964916407
5	232	539.048977770354	10.314634397676
5	233	540.177093637598	4.093106053022
5	239	551.249347324478	0
5	247	568.993124596052	6.384387854472
5	252	577.560357350581	13.69287651462
5	263	610.564694303378	39.551373637673
5	264	610.73488134913	34.115123490933
5	265	616.742772780358	35.267849610107
5	268	621.364794051383	34.530717449694
5	274	631.268312566275	35.711024014165
5	277	636.569166222051	39.464580864941
5	278	636.835804807824	32.022872866041
5	279	642.14468403969	23.180653135045
5	280	642.280710864611	19.421072053241
5	281	647.536033712266	13.778896990612
5	284	647.970783522591	0
5	287	655.34905644015	0
5	290	656.468518046476	0
5	293	661.824175248755	0
5	296	668.241122269066	0
5	299	671.571914361867	0.257988571276
5	302	673.375958610896	0
5	305	688.258506868413	0
5	311	701.611408714652	0
5	314	707.702232946483	0
5	319	711.148343068317	2.66729635621
5	359	754.699285879736	44.556568025888
5	360	756.29128881792	40.761752026092
5	367	771.053470307862	52.507405397892
5	368	773.338810375527	53.339965192635
5	369	773.999070909675	53.810540034772
5	370	777.530840682432	53.424601700762
5	373	790.002202978268	56.28215460594
5	376	791.139471401484	55.798058134696
5	377	791.599345014555	46.787964976017
5	391	815.489296679229	68.163497319943
5	392	820.077221155292	63.155942022324
5	395	825.475852342288	65.761863841415
5	396	826.395521937558	64.58867231151
5	397	827.991357400924	50.11363036726
5	398	828.670377499111	38.084377660286
5	399	828.725750233109	34.164628861101
5	400	829.24385048062	15.368716899653
5	401	829.348156880806	4.021633752838
5	404	833.508772212876	2.204788316724
5	416	857.952226508268	22.193057661604
5	472	980.672255327749	144.53211787846
5	473	980.975627736117	135.72151305449
5	476	984.217671306154	133.21823255711
5	477	988.354622589583	130.01517170029
5	484	1000.029762892449	125.76681352646
5	485	1001.093345924567	114.86931856401
5	488	1002.080708663752	114.81106904544
5	489	1003.85320887187	115.9624163489
5	490	1008.524874486755	85.631945119236
5	491	1009.278441053351	75.396387010323
5	494	1009.605295292626	65.134899934722
5	495	1009.833879221802	54.257509407026
5	500	1013.828562360534	56.377931885579
5	501	1015.728890034204	55.916192498422
5	504	1022.906271883776	58.659534061788
5	505	1023.209621349846	57.582596643573
5	506	1024.252402304387	44.734950700204
5	509	1031.26300570414	47.95593445713
5	512	1036.210163623546	43.542476778822
5	513	1036.591927219496	40.635326699303
5	516	1042.345536319209	45.156828872239
5	517	1042.763421037101	41.64358801709
5	518	1044.995475674782	35.431364719494
5	519	1045.054146539949	35.09820402053
5	520	1045.316128838117	35.286011381171
5	521	1046.901933685926	31.172748058442
5	522	1050.309339449299	24.521443770149
5	523	1057.771075633461	25.983843477522
5	524	1058.264934845412	16.693397952282
5	530	1070.332864140911	0
5	536	1102.262330561447	0
5	539	1109.501150735797	6.162469092789
5	542	1113.91694577653	0
5	545	1116.259960964286	0
5	548	1126.340153418487	0
5	551	1128.974170969398	0.874882096655
5	554	1181.700292375175	0
5	560	1198.383399443039	6.095679916923
5	563	1201.006878062373	0
5	583	1223.66434519481	20.307643706315
5	584	1224.169796144342	20.242112749297
5	585	1224.645828879417	15.367498713539
5	588	1234.053272138122	18.495526162332
5	593	1236.722989360132	14.727433368317
5	596	1238.829547781877	14.031221705272
5	601	1242.439050783078	7.872083965766
5	602	1243.227103873815	6.928862495041
5	603	1243.550976964865	6.761129808525
5	604	1244.391405918073	3.968152240074
5	605	1246.678566476914	5.08575870099
5	608	1252.824490791257	0
5	611	1263.505212762752	0
5	614	1267.320771196494	0
5	617	1269.358856667568	0.550962778553
5	623	1283.87424722174	0
5	626	1286.207752508242	0.144699321429
5	629	1315.934952105333	0
5	632	1320.535091682736	0
5	635	1331.397785491519	0
5	641	1348.601102068685	0
5	646	1351.871201493239	3.133453640245
5	647	1352.323551979579	2.564355311336
5	653	1362.697996248853	3.187780239047
5	662	1386.037560347208	8.329155144558
5	667	1394.716803583978	5.810254723789
5	668	1394.807566919118	4.890670305839
5	674	1425.652780336723	0
5	677	1463.143094932568	0
5	680	1484.19630794049	0
5	683	1490.519673904448	0
5	686	1497.64550983778	0
5	700	1536.666712972611	1.401930289791
5	701	1537.116658319809	1.278606372751
5	704	1545.122836916072	0
5	707	1551.122305782482	0
5	710	1556.490244785546	4.895286749765
5	720	1566.064851922724	1.500093418719
5	721	1567.585735393588	2.819075608121
5	728	1584.498777635324	19.332354859274
5	729	1585.041021120579	16.301713902426
5	730	1586.206779485679	15.211572820959
5	731	1589.376015526392	15.056706452035
5	737	1613.23501030281	0
5	744	1620.407846824293	7.060002923962
5	745	1621.639791413113	7.124213457191
5	754	1638.464924071084	19.495151495964
5	755	1641.003879026742	18.926967458263
5	756	1641.848813881044	19.367280412111
5	761	1646.017458057918	16.979461745349
5	762	1649.064436416062	18.76255373924
5	765	1654.715966750078	12.74534880777
5	766	1655.12107248132	9.323445050394
5	767	1661.565675296211	9.516589259656
5	775	1678.003113740314	10.963114339371
5	778	1682.611353709205	10.222510550693
5	779	1685.543237879189	5.537476088943
5	782	1690.163473857012	3.748833391755
5	785	1697.427960989364	0
5	790	1700.558198228271	2.467263224085
5	791	1704.728411928397	4.193522443393
5	794	1712.326784755656	0
5	797	1720.655219916318	0
5	800	1729.016195236021	0
5	808	1752.735364139233	3.68676367814
5	809	1754.058011762972	1.925262900901
5	812	1760.844824448096	1.599596213853
5	815	1766.652817738713	0
5	821	1791.508641308481	0
5	826	1797.448572413859	4.953428021195
5	827	1807.492115226634	11.882978401989
5	830	1817.898189472251	0
5	833	1826.477145882993	0
5	841	1842.499382588901	15.154531882512
5	842	1844.567499946875	15.303301938544
5	845	1853.837409993153	0
5	848	1857.090814148443	0
5	851	1860.926416289429	0
5	854	1861.292058195879	0.271634399809
5	857	1872.028882896978	0
5	863	1890.669614727526	0.16745532053
5	866	1891.915466542604	0
5	872	1905.040344387625	2.707071303226
5	875	1914.932611185489	0
5	878	1933.34543590036	0
5	889	1948.599353514473	14.712879816332
5	892	1956.591830620407	19.829853049786
5	893	1958.16526989695	18.328115088705
5	894	1959.598425628765	17.737766434848
5	895	1960.41002343909	13.477363012607
5	900	1964.72809721537	8.964146369294
5	903	1971.738990760793	7.927065916703
5	906	1972.672761609539	8.657712177493
5	907	1975.230453130666	9.412881178772
5	908	1976.306314352519	4.363717975156
5	911	1983.474982676025	0
5	921	1995.85818383326	7.76589219679
5	934	2010.454842071288	22.315485029895
5	937	2013.335138271208	23.61236616751
5	938	2013.833053471739	16.985809311524
5	939	2017.288963463785	16.239849940362
5	940	2018.475410826354	8.995466981447
5	941	2021.068170734634	8.441010281181
5	944	2024.792246987819	0
5	955	2045.369804980091	7.289979254769
5	961	2063.620615171309	22.137322063635
5	962	2067.324349613595	20.497567289093
5	965	2074.234724884822	0
5	968	2079.913766419625	0
5	971	2082.773976144706	0
5	977	2096.946384212989	0.062163975339
5	980	2105.46814991594	0
5	983	2110.511587981818	0
5	986	2119.477496689677	0
5	989	2142.114832448286	0
5	992	2150.60704056393	0
5	995	2160.793627864118	0
5	998	2166.139517304962	2.821689511933
5	1001	2185.53289677777	0
5	1007	2216.055713346613	0
5	1012	2233.824722543209	6.372929561267
5	1013	2234.042697519518	0.664664263054
5	1016	2239.341827199759	0
5	1022	2263.776101443339	5.699675445008
5	1025	2296.506491830768	0
5	1028	2308.528877503233	0
5	1033	2316.620006432679	6.855862455825
5	1034	2317.259423014606	3.96507770501
5	1040	2330.429081360263	2.566550465025
5	1046	2344.671752940697	0
5	1049	2349.978977906862	0
5	1052	2355.029165384409	0
5	1055	2366.281985552846	0
5	1058	2371.021278755822	3.742130591603
5	1061	2387.576979513526	0
5	1070	2406.347488909316	15.89640463509
5	1071	2407.049224026369	15.554018543631
5	1072	2407.336759827014	8.180317289524
5	1075	2418.73629449539	15.822463533832
5	1076	2418.887978063994	8.975895023186
5	1079	2424.26213546139	0
5	1085	2457.905839991901	0
5	1091	2469.699669328347	0
5	1100	2489.528563803838	10.950280371124
5	1103	2491.497376120721	0
6	171	359.053428824492	35
6	183	402.935096594801	36
6	186	403.612767516501	37
6	192	415.010648166904	38
6	198	425.736719530208	39
6	207	454.443725790927	40
6	213	488.775043803867	41
6	216	494.128664090396	42
6	229	534.179013692818	43
6	232	539.048977770354	44
6	233	540.177093637598	45
6	234	540.469273354972	46
6	240	554.78545783211	47
6	264	610.73488134913	48
6	265	616.742772780358	49
6	277	636.569166222051	50
6	278	636.835804807824	51
6	279	642.14468403969	52
6	280	642.280710864611	53
6	281	647.536033712266	54
6	282	647.655547349732	55
6	285	648.927476168036	56
6	288	655.907432307025	57
6	291	656.651729900966	58
6	294	668.138884202646	59
6	299	671.571914361867	60
6	300	671.882490418334	61
6	303	676.073267855133	62
6	306	689.898422944674	63
6	312	704.952471597952	64
6	360	756.29128881792	65
6	368	773.338810375527	66
6	369	773.999070909675	67
6	370	777.530840682432	68
6	376	791.139471401484	69
6	377	791.599345014555	70
6	392	820.077221155292	71
6	395	825.475852342288	72
6	396	826.395521937558	73
6	397	827.991357400924	74
6	398	828.670377499111	75
6	399	828.725750233109	76
6	400	829.24385048062	77
6	401	829.348156880806	78
6	404	833.508772212876	79
6	473	980.975627736117	80
6	476	984.217671306154	81
6	477	988.354622589583	82
6	485	1001.093345924567	83
6	488	1002.080708663752	84
6	489	1003.85320887187	85
6	490	1008.524874486755	86
6	491	1009.278441053351	87
6	494	1009.605295292626	88
6	495	1009.833879221802	89
6	501	1015.728890034204	90
6	504	1022.906271883776	91
6	505	1023.209621349846	92
6	506	1024.252402304387	93
6	509	1031.26300570414	94
6	513	1036.591927219496	95
6	517	1042.763421037101	96
6	518	1044.995475674782	97
6	519	1045.054146539949	98
6	520	1045.316128838117	99
6	521	1046.901933685926	100
6	522	1050.309339449299	101
6	523	1057.771075633461	102
6	524	1058.264934845412	103
6	525	1058.788054865205	104
6	531	1071.046220221506	105
6	539	1109.501150735797	106
6	540	1110.427037160821	107
6	543	1114.982388869745	108
6	546	1118.289262809899	109
6	551	1128.974170969398	110
6	552	1129.138688250571	111
6	555	1184.203816573805	112
6	561	1200.944175571991	113
6	584	1224.169796144342	114
6	585	1224.645828879417	115
6	588	1234.053272138122	116
6	593	1236.722989360132	117
6	601	1242.439050783078	118
6	602	1243.227103873815	119
6	603	1243.550976964865	120
6	604	1244.391405918073	121
6	605	1246.678566476914	122
6	606	1248.282159577066	123
6	609	1261.807977922005	124
6	612	1267.061648978989	125
6	617	1269.358856667568	126
6	618	1270.963081021227	127
6	626	1286.207752508242	128
6	627	1286.361485422891	129
6	630	1320.285660658447	130
6	633	1322.838034165804	131
6	636	1331.537003550856	132
6	646	1351.871201493239	133
6	647	1352.323551979579	134
6	648	1354.493685289447	135
6	654	1367.414474355259	136
6	667	1394.716803583978	137
6	668	1394.807566919118	138
6	669	1397.457259553483	139
6	675	1432.092743317383	140
6	678	1470.154683952923	141
6	681	1486.531039097965	142
6	684	1490.963346305259	143
6	687	1499.428023836436	144
6	701	1537.116658319809	145
6	702	1543.7973069777	146
6	705	1550.064120596824	147
6	711	1557.440033994479	148
6	721	1567.585735393588	149
6	729	1585.041021120579	150
6	730	1586.206779485679	151
6	731	1589.376015526392	152
6	732	1597.248876676791	153
6	745	1621.639791413113	154
6	755	1641.003879026742	155
6	756	1641.848813881044	156
6	761	1646.017458057918	157
6	762	1649.064436416062	158
6	766	1655.12107248132	159
6	767	1661.565675296211	160
6	768	1662.46488515821	161
6	779	1685.543237879189	162
6	783	1690.804952718765	163
6	790	1700.558198228271	164
6	791	1704.728411928397	165
6	792	1706.03899641185	166
6	795	1713.614053216929	167
6	798	1724.977256872751	168
6	801	1729.960031158182	169
6	809	1754.058011762972	170
6	812	1760.844824448096	171
6	813	1765.037355730785	172
6	816	1768.329144910398	173
6	827	1807.492115226634	174
6	828	1809.786145005749	175
6	831	1817.933402913406	176
6	842	1844.567499946875	177
6	843	1845.04739769607	178
6	846	1856.753579293203	179
6	849	1857.320783526697	180
6	854	1861.292058195879	181
6	855	1865.930764147541	182
6	858	1880.985590764772	183
6	864	1890.868249934313	184
6	867	1893.708498309483	185
6	873	1906.357303171506	186
6	876	1917.523632080313	187
6	892	1956.591830620407	188
6	893	1958.16526989695	189
6	894	1959.598425628765	190
6	895	1960.41002343909	191
6	900	1964.72809721537	192
6	903	1971.738990760793	193
6	907	1975.230453130666	194
6	908	1976.306314352519	195
6	909	1980.532613405593	196
6	912	1983.483606032169	197
6	937	2013.335138271208	198
6	938	2013.833053471739	199
6	939	2017.288963463785	200
6	940	2018.475410826354	201
6	941	2021.068170734634	202
6	942	2023.314518965207	203
6	945	2024.819393426159	204
6	962	2067.324349613595	205
6	963	2072.380519337083	206
6	966	2075.560815415572	207
6	969	2081.822030630054	208
6	972	2089.9493775962	209
6	978	2101.285696783249	210
6	981	2108.397547212325	211
6	984	2112.401500597392	212
6	987	2119.525339887532	213
6	990	2143.054862213872	214
6	993	2158.560798578768	215
6	998	2166.139517304962	216
6	999	2169.661758693931	217
6	1002	2187.937265819808	218
6	1012	2233.824722543209	219
6	1013	2234.042697519518	220
6	1014	2234.610157881286	221
6	1017	2241.260504499382	222
6	1023	2264.218595144208	223
6	1026	2300.579785459305	224
6	1033	2316.620006432679	225
6	1034	2317.259423014606	226
6	1035	2320.839690605596	227
6	1041	2332.30168873313	228
6	1047	2344.876590020452	229
6	1050	2350.764486055004	230
6	1053	2359.254331977236	231
6	1059	2372.153455586982	232
6	1071	2407.049224026369	233
6	1072	2407.336759827014	234
6	1076	2418.887978063994	235
6	1077	2424.005460707765	236
6	1080	2427.991573488538	237
6	1086	2460.10064265823	238
6	1092	2470.097764989175	239
6	1101	2490.095798886943	240
6	1104	2491.557617322412	241
7	171	359.053428824492	2.45402193414
7	183	402.935096594801	14.83399041769
7	186	403.612767516501	0.453818753016
7	192	415.010648166904	10.277317291554
7	198	425.736719530208	0.662319650654
7	207	454.443725790927	8.960403752256
7	213	488.775043803867	4.839503073778
7	216	494.128664090396	3.776031633526
7	229	534.179013692818	27.773985665333
7	232	539.048977770354	16.503928993943
7	233	540.177093637598	11.44275026492
7	234	540.469273354972	4.385285770396
7	240	554.78545783211	3.536110507632
7	264	610.73488134913	39.721560683425
7	265	616.742772780358	40.123014922161
7	277	636.569166222051	41.011877669941
7	278	636.835804807824	39.731219450714
7	279	642.14468403969	37.331752097907
7	280	642.280710864611	23.316679959966
7	281	647.536033712266	24.676394900896
7	282	647.655547349732	13.898410628078
7	285	648.927476168036	0.956692645445
7	288	655.907432307025	0.558375866875
7	291	656.651729900966	0.18321185449
7	294	668.138884202646	6.314708953891
7	299	671.571914361867	3.330792092801
7	300	671.882490418334	0.568564627743
7	303	676.073267855133	2.697309244237
7	306	689.898422944674	1.639916076261
7	312	704.952471597952	3.3410628833
7	360	756.29128881792	46.148570964072
7	368	773.338810375527	54.792745465557
7	369	773.999070909675	54.000225726783
7	370	777.530840682432	57.342309807529
7	376	791.139471401484	57.419423029156
7	377	791.599345014555	56.257931747767
7	392	820.077221155292	72.751421796006
7	395	825.475852342288	68.55457320932
7	396	826.395521937558	66.681533436685
7	397	827.991357400924	66.184507774876
7	398	828.670377499111	50.792650465447
7	399	828.725750233109	38.139750394284
7	400	829.24385048062	34.682729108612
7	401	829.348156880806	15.473023299839
7	404	833.508772212876	8.182249084908
7	473	980.975627736117	144.83549028683
7	476	984.217671306154	138.96355662452
7	477	988.354622589583	137.35518384054
7	485	1001.093345924567	126.83039655858
7	488	1002.080708663752	115.8566813032
7	489	1003.85320887187	116.58356925356
7	490	1008.524874486755	120.63408196378
7	491	1009.278441053351	86.385511685832
7	494	1009.605295292626	75.723241249598
7	495	1009.833879221802	65.363483863898
7	501	1015.728890034204	58.278259559249
7	504	1022.906271883776	63.093574347994
7	505	1023.209621349846	58.962883527858
7	506	1024.252402304387	58.625377598114
7	509	1031.26300570414	51.745554099957
7	513	1036.591927219496	43.924240374772
7	517	1042.763421037101	45.574713590131
7	518	1044.995475674782	43.875642654771
7	519	1045.054146539949	35.490035584661
7	520	1045.316128838117	35.360186318698
7	521	1046.901933685926	36.87181622898
7	522	1050.309339449299	34.580153821815
7	523	1057.771075633461	31.983179954311
7	524	1058.264934845412	26.477702689473
7	525	1058.788054865205	17.216517972075
7	531	1071.046220221506	0.713356080595
7	539	1109.501150735797	7.23882017435
7	540	1110.427037160821	7.088355517813
7	543	1114.982388869745	1.065443093215
7	546	1118.289262809899	2.029301845613
7	551	1128.974170969398	2.634017550911
7	552	1129.138688250571	1.039399377828
7	555	1184.203816573805	2.50352419863
7	561	1200.944175571991	8.656456045875
7	584	1224.169796144342	20.813094655847
7	585	1224.645828879417	20.718145484372
7	588	1234.053272138122	24.774941972244
7	593	1236.722989360132	21.165243384342
7	601	1242.439050783078	17.640724706473
7	602	1243.227103873815	8.660137056503
7	603	1243.550976964865	7.252735586091
7	604	1244.391405918073	7.601558761733
7	605	1246.678566476914	6.255312798915
7	606	1248.282159577066	6.689351801142
7	609	1261.807977922005	8.983487130748
7	612	1267.061648978989	3.556436216237
7	617	1269.358856667568	2.038085471074
7	618	1270.963081021227	2.155187132212
7	626	1286.207752508242	2.333505286502
7	627	1286.361485422891	0.298432236078
7	630	1320.285660658447	4.350708553114
7	633	1322.838034165804	2.302942483068
7	636	1331.537003550856	0.139218059337
7	646	1351.871201493239	3.270099424554
7	647	1352.323551979579	3.585804126585
7	648	1354.493685289447	4.734488621204
7	654	1367.414474355259	7.904258345453
7	667	1394.716803583978	17.008398381328
7	668	1394.807566919118	5.901018058929
7	669	1397.457259553483	7.540362940204
7	675	1432.092743317383	6.43996298066
7	678	1470.154683952923	7.011589020355
7	681	1486.531039097965	2.334731157475
7	684	1490.963346305259	0.443672400811
7	687	1499.428023836436	1.782513998656
7	701	1537.116658319809	1.851875636989
7	702	1543.7973069777	7.959255030642
7	705	1550.064120596824	4.941283680752
7	711	1557.440033994479	5.845075958698
7	721	1567.585735393588	3.020976889583
7	729	1585.041021120579	19.874598344529
7	730	1586.206779485679	17.467472267526
7	731	1589.376015526392	18.380808861672
7	732	1597.248876676791	22.929567602434
7	745	1621.639791413113	8.291947512782
7	755	1641.003879026742	22.034106451622
7	756	1641.848813881044	19.771902312565
7	761	1646.017458057918	23.535924588985
7	762	1649.064436416062	20.026440103493
7	766	1655.12107248132	13.150454539012
7	767	1661.565675296211	15.768047865285
7	768	1662.46488515821	10.415799121655
7	779	1685.543237879189	13.154394720677
7	783	1690.804952718765	4.390312253508
7	790	1700.558198228271	3.130237238907
7	791	1704.728411928397	6.637476924211
7	792	1706.03899641185	5.504106926846
7	795	1713.614053216929	1.287268461273
7	798	1724.977256872751	4.322036956433
7	801	1729.960031158182	0.943835922161
7	809	1754.058011762972	5.009411301879
7	812	1760.844824448096	8.712075586025
7	813	1765.037355730785	5.792127496542
7	816	1768.329144910398	1.676327171685
7	827	1807.492115226634	14.99697083397
7	828	1809.786145005749	14.177008181104
7	831	1817.933402913406	0.035213441155
7	842	1844.567499946875	17.222649240486
7	843	1845.04739769607	15.783199687739
7	846	1856.753579293203	2.91616930005
7	849	1857.320783526697	0.229969378254
7	854	1861.292058195879	0.36564190645
7	855	1865.930764147541	4.910340351471
7	858	1880.985590764772	8.956707867794
7	864	1890.868249934313	0.366090527317
7	867	1893.708498309483	1.793031766879
7	873	1906.357303171506	4.024030087107
7	876	1917.523632080313	2.591020894824
7	892	1956.591830620407	22.705356922266
7	893	1958.16526989695	21.403292326329
7	894	1959.598425628765	19.76127082052
7	895	1960.41002343909	18.549364245173
7	900	1964.72809721537	17.795436788887
7	903	1971.738990760793	15.975039914717
7	907	1975.230453130666	11.21540369862
7	908	1976.306314352519	10.488742400625
7	909	1980.532613405593	8.59001702823
7	912	1983.483606032169	0.008623356144
7	937	2013.335138271208	25.195781229815
7	938	2013.833053471739	24.110281368041
7	939	2017.288963463785	20.44171930357
7	940	2018.475410826354	17.426297302931
7	941	2021.068170734634	11.588226889727
7	942	2023.314518965207	10.687358511754
7	945	2024.819393426159	0.02714643834
7	962	2067.324349613595	25.841056505921
7	963	2072.380519337083	25.553737012581
7	966	2075.560815415572	1.32609053075
7	969	2081.822030630054	1.908264210429
7	972	2089.9493775962	7.175401451494
7	978	2101.285696783249	4.401476545599
7	981	2108.397547212325	2.929397296385
7	984	2112.401500597392	1.889912615574
7	987	2119.525339887532	0.047843197855
7	990	2143.054862213872	0.940029765586
7	993	2158.560798578768	7.953758014838
7	998	2166.139517304962	5.345889440844
7	999	2169.661758693931	6.343930900902
7	1002	2187.937265819808	2.404369042038
7	1012	2233.824722543209	17.769009196596
7	1013	2234.042697519518	6.590904537576
7	1014	2234.610157881286	1.232124624822
7	1017	2241.260504499382	1.918677299623
7	1023	2264.218595144208	6.142169145877
7	1026	2300.579785459305	4.073293628537
7	1033	2316.620006432679	8.091128929446
7	1034	2317.259423014606	7.495279037752
7	1035	2320.839690605596	7.545345296
7	1041	2332.30168873313	4.439157837892
7	1047	2344.876590020452	0.204837079755
7	1050	2350.764486055004	0.785508148142
7	1053	2359.254331977236	4.225166592827
7	1059	2372.153455586982	4.874307422763
7	1071	2407.049224026369	16.598139752143
7	1072	2407.336759827014	15.841554344276
7	1076	2418.887978063994	15.974147102436
7	1077	2424.005460707765	14.093377666957
7	1080	2427.991573488538	3.729438027148
7	1086	2460.10064265823	2.194802666329
7	1092	2470.097764989175	0.398095660828
7	1101	2490.095798886943	11.517515454229
7	1104	2491.557617322412	0.060241201691
8	173	365.058342191057	1
8	176	388.037052425803	1
8	180	390.927857908176	2
8	190	404.73333087535	1
8	194	419.146910101711	1
8	200	436.823234710174	1
8	203	440.900837049397	1
8	209	466.342603331937	1
8	218	497.116149187221	1
8	220	503.09769978815	2
8	236	541.577288411556	1
8	242	557.379584999622	1
8	249	571.013320665705	1
8	254	581.474923170251	1
8	267	618.964030904645	1
8	270	622.85963881137	1
8	272	624.51956532149	2
8	308	694.407150928009	1
8	316	708.481046712107	1
8	321	715.529536791828	1
8	323	716.879841144914	2
8	332	723.6697040014	2
8	339	734.846307524025	2
8	344	737.31664614593	2
8	346	739.346914019748	3
8	350	743.358100075954	2
8	355	746.078159748484	2
8	364	759.713988500873	1
8	372	777.877727033664	1
8	379	794.561121372008	1
8	381	799.685099640979	2
8	383	804.701437837468	3
8	385	806.963595367265	4
8	408	836.140137449287	1
8	410	841.117217619398	2
8	418	858.339450889291	1
8	420	866.949764860109	2
8	423	870.623974825057	2
8	427	883.238222931355	3
8	437	892.398818790866	2
8	439	896.905318042219	3
8	441	909.552892526914	4
8	447	930.008526162325	3
8	455	951.250248410845	2
8	466	964.447198103986	2
8	481	995.956600520193	1
8	499	1010.030117456946	1
8	511	1031.787232155939	1
8	515	1041.57153689313	1
8	527	1060.559683230173	1
8	533	1092.122097599442	1
8	557	1186.006490948789	1
8	565	1203.356701488495	1
8	569	1205.901663236199	2
8	573	1209.443534644607	3
8	576	1212.660171838827	3
8	595	1236.78984715634	1
8	620	1275.038720804297	1
8	638	1341.831971966471	1
8	650	1356.079627233473	1
8	656	1369.942905406479	1
8	658	1374.84225275845	2
8	671	1418.900678856088	1
8	689	1518.913265032233	1
8	692	1527.272532464144	1
8	695	1534.84794874575	1
8	709	1551.594958035781	1
8	713	1557.582850544547	1
8	723	1568.739307218153	1
8	734	1601.86730711915	1
8	739	1613.347843900331	1
8	747	1622.076911568479	1
8	764	1652.049086036555	1
8	770	1664.665401336451	1
8	777	1680.005761790246	1
8	781	1686.414640465257	1
8	803	1747.885153759755	1
8	818	1779.894755724619	1
8	825	1795.609136824645	1
8	837	1829.264198008331	1
8	839	1830.977423873753	2
8	860	1890.142463571974	1
8	869	1899.267394109141	1
8	880	1933.886473698141	1
8	905	1971.942596377363	1
8	914	1986.420461942477	1
8	923	1996.847244160215	1
8	927	2001.842081440919	2
8	930	2002.393665442616	2
8	947	2029.851865139414	1
8	950	2035.530374205771	1
8	957	2046.826782324502	1
8	959	2048.216878838541	2
8	974	2092.056321117119	1
8	1004	2193.888924218505	1
8	1019	2250.55891489116	1
8	1037	2321.080740139735	1
8	1043	2335.064538159043	1
8	1057	2367.279148164219	1
8	1065	2391.495205482738	1
8	1074	2409.912083040808	1
8	1082	2434.432498188945	1
8	1088	2463.3924778558	1
8	1094	2476.510344138141	1
8	1098	2480.218280446483	2
9	173	365.058342191057	0
9	176	388.037052425803	0
9	181	392.866024555466	1.93816664729
9	190	404.73333087535	0
9	194	419.146910101711	0
9	200	436.823234710174	0
9	203	440.900837049397	0
9	209	466.342603331937	0
9	218	497.116149187221	0
9	221	504.265787218766	1.168087430616
9	236	541.577288411556	0
9	242	557.379584999622	0
9	249	571.013320665705	0
9	254	581.474923170251	0
9	267	618.964030904645	0
9	270	622.85963881137	0
9	273	626.977781113573	2.458215792083
9	308	694.407150928009	0
9	316	708.481046712107	0
9	321	715.529536791828	0
9	324	718.455961504342	1.576120359428
9	335	727.906816557317	4.237112555917
9	340	734.973920113389	0.127612589364
9	347	739.618952454184	2.302306308254
9	348	742.190739924065	2.843825904317
9	351	743.555791460352	0.197691384398
9	358	748.405791827161	2.327632078677
9	364	759.713988500873	0
9	372	777.877727033664	0
9	379	794.561121372008	0
9	386	808.172263196217	8.487163555238
9	387	811.098721408194	6.397283570726
9	388	813.48149969578	6.517904328515
9	408	836.140137449287	0
9	415	854.024418251969	12.907200632571
9	418	858.339450889291	0
9	421	868.478217867521	1.528453007412
9	434	890.517296370187	19.89332154513
9	435	890.683935945138	7.445713013783
9	442	920.520023655647	28.121204864781
9	443	921.751924276503	24.846606234284
9	448	930.679221133748	21.126328606834
9	449	933.827191427965	3.81866526564
9	456	952.477875251648	1.227626840803
9	469	965.71876514624	1.271567042254
9	481	995.956600520193	0
9	499	1010.030117456946	0
9	511	1031.787232155939	0
9	515	1041.57153689313	0
9	527	1060.559683230173	0
9	533	1092.122097599442	0
9	557	1186.006490948789	0
9	565	1203.356701488495	0
9	574	1209.885383080031	3.983719843832
9	579	1219.887353120786	10.443818476179
9	582	1223.477233430872	10.817061592045
9	595	1236.78984715634	0
9	620	1275.038720804297	0
9	638	1341.831971966471	0
9	650	1356.079627233473	0
9	656	1369.942905406479	0
9	659	1375.005951262226	0.163698503776
9	671	1418.900678856088	0
9	689	1518.913265032233	0
9	692	1527.272532464144	0
9	695	1534.84794874575	0
9	709	1551.594958035781	0
9	713	1557.582850544547	0
9	723	1568.739307218153	0
9	734	1601.86730711915	0
9	739	1613.347843900331	0
9	747	1622.076911568479	0
9	764	1652.049086036555	0
9	770	1664.665401336451	0
9	777	1680.005761790246	0
9	781	1686.414640465257	0
9	803	1747.885153759755	0
9	818	1779.894755724619	0
9	825	1795.609136824645	0
9	837	1829.264198008331	0
9	840	1840.700435141456	9.723011267703
9	860	1890.142463571974	0
9	869	1899.267394109141	0
9	880	1933.886473698141	0
9	905	1971.942596377363	0
9	914	1986.420461942477	0
9	923	1996.847244160215	0
9	928	2002.134009006008	0.291927565089
9	931	2006.857296193368	4.463630750752
9	947	2029.851865139414	0
9	950	2035.530374205771	0
9	957	2046.826782324502	0
9	960	2052.63370941268	4.416830574139
9	974	2092.056321117119	0
9	1004	2193.888924218505	0
9	1019	2250.55891489116	0
9	1037	2321.080740139735	0
9	1043	2335.064538159043	0
9	1057	2367.279148164219	0
9	1065	2391.495205482738	0
9	1074	2409.912083040808	0
9	1082	2434.432498188945	0
9	1088	2463.3924778558	0
9	1094	2476.510344138141	0
9	1099	2482.724654749171	2.506374302688
10	190	404.73333087535	7
10	249	571.013320665705	8
10	254	581.474923170251	9
10	267	618.964030904645	10
10	270	622.85963881137	11
10	316	708.481046712107	12
10	321	715.529536791828	13
10	364	759.713988500873	14
10	372	777.877727033664	15
10	379	794.561121372008	16
10	408	836.140137449287	17
10	418	858.339450889291	18
10	481	995.956600520193	19
10	499	1010.030117456946	20
10	511	1031.787232155939	21
10	515	1041.57153689313	22
10	565	1203.356701488495	23
10	595	1236.78984715634	24
10	709	1551.594958035781	25
10	723	1568.739307218153	26
10	739	1613.347843900331	27
10	747	1622.076911568479	28
10	764	1652.049086036555	29
10	777	1680.005761790246	30
10	781	1686.414640465257	31
10	825	1795.609136824645	32
10	837	1829.264198008331	33
10	880	1933.886473698141	34
10	905	1971.942596377363	35
10	923	1996.847244160215	36
10	957	2046.826782324502	37
10	1057	2367.279148164219	38
10	1065	2391.495205482738	39
10	1074	2409.912083040808	40
11	1105	2500	0.0964
12	1105	2500	0.0508

