version 2
run experiments_hard_game_mode1-1501-20230311-19:44:54-12576
attr configname experiments_hard_game_mode1
attr datetime 20230311-19:44:54
attr experiment experiments_hard_game_mode1
attr inifile omnetpp.ini
attr iterationvars "$0=10, $1=3, $2=0"
attr iterationvarsf 10,3,0-
attr measurement "$0=10, $1=3, $2=0"
attr network Network
attr processid 12576
attr repetition 1
attr replication #1
attr resultdir results
attr runnumber 1501
attr seedset 1
param *.boss.arrival_mean 20
param *.boss.service_mean 10
param *.minion.arrival_mean 10
param *.minion.service_mean 3
param *.player.recover_rate_x 0
param **.minion.arrival_distribution 0
param **.minion.service_distribution 0
param **.boss.arrival_distribution 0
param **.boss.service_distribution 0

vector 0 Network.player boss_defeated_stat:vector ETV
attr source signal_boss_defeated
vector 1 Network.player boss_jobs_queue_number_stat:vector ETV
attr source signal_boss_jobs_queue_number
vector 2 Network.player boss_response_time_stat:vector ETV
attr source signal_boss_response_time
vector 3 Network.player minion_jobs_number_stat:vector ETV
attr source signal_minion_jobs_number
vector 4 Network.player minion_jobs_queue_number_stat:vector ETV
attr source signal_minion_jobs_queue_number
vector 5 Network.player minion_waiting_time_stat:vector ETV
attr source signal_minion_waiting_time
vector 6 Network.player minion_defeated_stat:vector ETV
attr source signal_minion_defeated
vector 7 Network.player minion_response_time_stat:vector ETV
attr source signal_minion_response_time
vector 8 Network.player boss_jobs_number_stat:vector ETV
attr source signal_boss_jobs_number
vector 9 Network.player minion_recovered_stat:vector ETV
attr source signal_minion_recovered
vector 10 Network.player boss_waiting_time_stat:vector ETV
attr source signal_boss_waiting_time
vector 11 Network.player minion_throughput:vector ETV
attr source signal_minion_throughput
vector 12 Network.player boss_throughput:vector ETV
attr source signal_boss_throughput
0	132	350.050914618341	18
0	145	376.304377369425	19
0	163	411.761355023125	20
0	174	427.158985033829	21
0	182	464.230111009813	22
0	194	486.829970918353	23
0	195	490.847280527691	24
0	199	499.82527921581	25
0	202	505.504881977678	26
0	213	518.491407317477	27
0	218	532.41095719066	28
0	222	545.323821063245	29
0	230	578.853019727254	30
0	270	684.287372238643	31
0	281	721.209363962106	32
0	288	746.047016959845	33
0	293	760.70500143091	34
0	307	773.137454573252	35
0	333	816.341214638159	36
0	352	858.374871021238	37
0	358	867.01610131647	38
0	381	898.940324853383	39
0	398	924.838277457415	40
0	403	934.014917247166	41
0	408	937.414373255361	42
0	428	989.817549478953	43
0	439	1008.875429587279	44
0	440	1011.493011551974	45
0	441	1013.405255393337	46
0	457	1038.894728332283	47
0	473	1065.753147160999	48
0	487	1098.791017535818	49
0	502	1126.537620262126	50
0	503	1127.966737852433	51
0	504	1133.923781468426	52
0	507	1141.334822536745	53
0	508	1146.190456068985	54
0	529	1200.777290827494	55
0	534	1205.200790094899	56
0	541	1216.257559234682	57
0	542	1218.406283006224	58
0	543	1224.712756473745	59
0	558	1248.069328043372	60
0	566	1274.568360152843	61
0	572	1291.198895252978	62
0	614	1394.380873556968	63
0	622	1412.923513637678	64
0	623	1417.581792257848	65
0	646	1470.512686868949	66
0	647	1477.002098207588	67
0	665	1493.774781701066	68
0	672	1512.317573186048	69
0	680	1536.465273426621	70
0	699	1576.694705815011	71
0	707	1596.385776891971	72
0	731	1660.512545996602	73
0	747	1720.278614052922	74
0	748	1724.047313032692	75
0	756	1733.724116730272	76
0	765	1746.096494370955	77
0	766	1747.636351659812	78
0	771	1758.428943714613	79
0	777	1783.429927032261	80
0	789	1816.036774818017	81
0	796	1827.758030500551	82
0	804	1849.940165124071	83
0	810	1861.985107568504	84
0	821	1879.404488003351	85
0	829	1896.776020255442	86
0	865	1988.979105282137	87
0	879	2018.822027590576	88
0	884	2024.967106327318	89
0	897	2063.50928846712	90
0	903	2079.896818168882	91
0	913	2098.966472272995	92
0	920	2123.599660551998	93
0	939	2166.710116442927	94
0	946	2190.399851221376	95
0	955	2206.177790246279	96
0	956	2208.167808753161	97
0	961	2212.37316627217	98
0	966	2225.887029378719	99
0	973	2231.583006861863	100
0	983	2262.441913142429	101
0	992	2277.47844915517	102
0	995	2283.037613060752	103
0	1006	2302.118193936643	104
0	1009	2312.179797706559	105
0	1012	2322.879238966684	106
0	1013	2330.279660579648	107
0	1022	2348.245311205081	108
0	1027	2358.758949959792	109
0	1039	2377.623214925686	110
0	1052	2398.982731614833	111
0	1061	2415.705450969541	112
0	1062	2416.673449700574	113
0	1069	2424.757610659048	114
0	1074	2439.368745175547	115
0	1079	2458.654405620047	116
0	1093	2488.051857369016	117
1	132	350.050914618341	0
1	142	369.375255317272	0
1	145	376.304377369425	0
1	158	404.258574086135	0
1	163	411.761355023125	0
1	171	415.788676091801	0
1	174	427.158985033829	0
1	179	443.919676013075	0
1	182	464.230111009813	0
1	185	470.546870107225	0
1	193	480.431995840156	1
1	194	486.829970918353	1
1	195	490.847280527691	0
1	198	495.029730108993	0
1	199	499.82527921581	0
1	201	500.513567475372	0
1	202	505.504881977678	0
1	212	517.809300423735	0
1	213	518.491407317477	0
1	215	521.192237302952	0
1	218	532.41095719066	0
1	221	541.925002229654	0
1	222	545.323821063245	0
1	227	567.695925539455	0
1	230	578.853019727254	0
1	269	660.252978140038	0
1	270	684.287372238643	0
1	278	709.366630100926	0
1	281	721.209363962106	0
1	287	743.646848964604	0
1	288	746.047016959845	0
1	290	756.458935907148	0
1	293	760.70500143091	0
1	298	767.120392425216	0
1	307	773.137454573252	0
1	320	789.815789590426	0
1	333	816.341214638159	0
1	345	831.608480159845	0
1	352	858.374871021238	0
1	357	863.970073409175	0
1	358	867.01610131647	0
1	380	898.688180290939	0
1	381	898.940324853383	0
1	391	910.944778126664	0
1	393	912.065066633432	1
1	398	924.838277457415	1
1	403	934.014917247166	0
1	405	934.472084532428	0
1	408	937.414373255361	0
1	423	959.834294333765	0
1	425	963.034023953894	1
1	428	989.817549478953	1
1	430	995.44102465029	1
1	436	1004.276199296497	2
1	439	1008.875429587279	2
1	440	1011.493011551974	1
1	441	1013.405255393337	0
1	450	1030.943152599568	0
1	457	1038.894728332283	0
1	470	1050.110245986447	0
1	473	1065.753147160999	0
1	482	1074.807943387107	0
1	486	1086.494175780376	1
1	487	1098.791017535818	1
1	489	1102.06552599861	1
1	495	1119.223715317434	2
1	499	1121.890324746436	3
1	501	1123.663479696237	4
1	502	1126.537620262126	4
1	503	1127.966737852433	3
1	504	1133.923781468426	2
1	507	1141.334822536745	1
1	508	1146.190456068985	0
1	524	1186.897939430832	0
1	526	1191.951539220539	1
1	529	1200.777290827494	1
1	531	1202.276890746692	1
1	534	1205.200790094899	1
1	536	1207.192094069512	1
1	540	1212.083298246598	2
1	541	1216.257559234682	2
1	542	1218.406283006224	1
1	543	1224.712756473745	0
1	557	1247.010455122903	0
1	558	1248.069328043372	0
1	565	1272.276126545475	0
1	566	1274.568360152843	0
1	569	1284.608791838486	0
1	572	1291.198895252978	0
1	613	1387.632399260903	0
1	614	1394.380873556968	0
1	617	1403.412013724196	0
1	621	1409.315926484005	1
1	622	1412.923513637678	1
1	623	1417.581792257848	0
1	637	1440.302525160037	0
1	643	1462.555294735073	1
1	646	1470.512686868949	1
1	647	1477.002098207588	0
1	662	1489.486066902343	0
1	665	1493.774781701066	0
1	671	1507.762238717833	0
1	672	1512.317573186048	0
1	677	1533.228522866138	0
1	680	1536.465273426621	0
1	692	1558.498177338543	0
1	699	1576.694705815011	0
1	704	1590.470735222049	0
1	707	1596.385776891971	0
1	728	1645.874418155944	0
1	731	1660.512545996602	0
1	740	1688.598277283569	0
1	742	1697.269698461538	1
1	747	1720.278614052922	1
1	748	1724.047313032692	0
1	753	1731.744765826945	0
1	756	1733.724116730272	0
1	760	1737.595552176882	0
1	764	1744.899527686484	1
1	765	1746.096494370955	1
1	766	1747.636351659812	0
1	770	1755.198627303625	0
1	771	1758.428943714613	0
1	776	1782.557906561692	0
1	777	1783.429927032261	0
1	784	1810.00658113624	0
1	789	1816.036774818017	0
1	793	1819.834207241802	0
1	796	1827.758030500551	0
1	803	1845.586409673488	0
1	804	1849.940165124071	0
1	809	1858.271437782732	0
1	810	1861.985107568504	0
1	812	1868.692586631094	0
1	821	1879.404488003351	0
1	828	1893.453134115984	0
1	829	1896.776020255442	0
1	864	1984.3531764257	0
1	865	1988.979105282137	0
1	872	1993.439770634155	0
1	878	2005.414674315447	1
1	879	2018.822027590576	1
1	884	2024.967106327318	0
1	892	2057.829292268349	0
1	897	2063.50928846712	0
1	900	2067.19127090892	0
1	903	2079.896818168882	0
1	912	2093.540604683601	0
1	913	2098.966472272995	0
1	917	2118.272495163052	0
1	920	2123.599660551998	0
1	922	2123.862463980623	0
1	924	2125.583614538701	1
1	930	2148.351335550223	2
1	934	2158.513685384924	3
1	936	2159.742235841395	4
1	939	2166.710116442927	4
1	943	2189.21250810744	4
1	946	2190.399851221376	4
1	955	2206.177790246279	3
1	956	2208.167808753161	2
1	961	2212.37316627217	1
1	966	2225.887029378719	0
1	970	2228.011412246586	0
1	973	2231.583006861863	0
1	980	2256.953625658148	0
1	983	2262.441913142429	0
1	987	2270.467559923692	0
1	991	2277.145134657383	1
1	992	2277.47844915517	1
1	995	2283.037613060752	0
1	1001	2292.356304954715	0
1	1003	2296.559424856657	1
1	1005	2299.848805152245	2
1	1006	2302.118193936643	2
1	1009	2312.179797706559	1
1	1011	2312.593632662147	1
1	1012	2322.879238966684	1
1	1013	2330.279660579648	0
1	1021	2345.24593224152	0
1	1022	2348.245311205081	0
1	1026	2353.399464487008	0
1	1027	2358.758949959792	0
1	1038	2372.427930054302	0
1	1039	2377.623214925686	0
1	1051	2398.96845263205	0
1	1052	2398.982731614833	0
1	1056	2404.701489116181	0
1	1058	2408.893875339512	1
1	1061	2415.705450969541	1
1	1062	2416.673449700574	0
1	1064	2418.968326914021	0
1	1069	2424.757610659048	0
1	1071	2427.010862944216	0
1	1074	2439.368745175547	0
1	1078	2443.433928593672	0
1	1079	2458.654405620047	0
1	1092	2480.621220096792	0
1	1093	2488.051857369016	0
1	1096	2496.852317827315	0
2	132	350.050914618341	0.16038287603
2	145	376.304377369425	6.929122052153
2	163	411.761355023125	7.50278093699
2	174	427.158985033829	11.370308942028
2	182	464.230111009813	20.310434996738
2	194	486.829970918353	16.283100811128
2	195	490.847280527691	10.415284687535
2	199	499.82527921581	4.795549106817
2	202	505.504881977678	4.991314502306
2	213	518.491407317477	0.682106893742
2	218	532.41095719066	11.218719887708
2	222	545.323821063245	3.398818833591
2	230	578.853019727254	11.157094187799
2	270	684.287372238643	24.034394098605
2	281	721.209363962106	11.84273386118
2	288	746.047016959845	2.400167995241
2	293	760.70500143091	4.246065523762
2	307	773.137454573252	6.017062148036
2	333	816.341214638159	26.525425047733
2	352	858.374871021238	26.766390861393
2	358	867.01610131647	3.046027907295
2	381	898.940324853383	0.252144562444
2	398	924.838277457415	13.893499330751
2	403	934.014917247166	21.949850613734
2	408	937.414373255361	2.942288722933
2	428	989.817549478953	29.983255145188
2	439	1008.875429587279	45.841405633385
2	440	1011.493011551974	16.051986901684
2	441	1013.405255393337	9.12905609684
2	457	1038.894728332283	7.951575732715
2	473	1065.753147160999	15.642901174552
2	487	1098.791017535818	23.983074148711
2	502	1126.537620262126	40.04344448175
2	503	1127.966737852433	25.901211853823
2	504	1133.923781468426	14.700066150992
2	507	1141.334822536745	19.444497790309
2	508	1146.190456068985	22.526976372748
2	529	1200.777290827494	13.879351396662
2	534	1205.200790094899	13.24925087436
2	541	1216.257559234682	13.98066848799
2	542	1218.406283006224	11.214188936712
2	543	1224.712756473745	12.629458227147
2	558	1248.069328043372	1.058872920469
2	566	1274.568360152843	2.292233607368
2	572	1291.198895252978	6.590103414492
2	614	1394.380873556968	6.748474296065
2	622	1412.923513637678	9.511499913482
2	623	1417.581792257848	8.265865773843
2	646	1470.512686868949	30.210161708912
2	647	1477.002098207588	14.446803472515
2	665	1493.774781701066	4.288714798723
2	672	1512.317573186048	4.555334468215
2	680	1536.465273426621	3.236750560483
2	699	1576.694705815011	18.196528476468
2	707	1596.385776891971	5.915041669922
2	731	1660.512545996602	14.638127840658
2	747	1720.278614052922	31.680336769353
2	748	1724.047313032692	26.777614571154
2	756	1733.724116730272	1.979350903327
2	765	1746.096494370955	8.500942194073
2	766	1747.636351659812	2.736823973328
2	771	1758.428943714613	3.230316410988
2	777	1783.429927032261	0.872020470569
2	789	1816.036774818017	6.030193681777
2	796	1827.758030500551	7.923823258749
2	804	1849.940165124071	4.353755450583
2	810	1861.985107568504	3.713669785772
2	821	1879.404488003351	10.711901372257
2	829	1896.776020255442	3.322886139458
2	865	1988.979105282137	4.625928856437
2	879	2018.822027590576	25.382256956421
2	884	2024.967106327318	19.552432011871
2	897	2063.50928846712	5.679996198771
2	903	2079.896818168882	12.705547259962
2	913	2098.966472272995	5.425867589394
2	920	2123.599660551998	5.327165388946
2	939	2166.710116442927	42.847652462304
2	946	2190.399851221376	64.816236682675
2	955	2206.177790246279	57.826454696056
2	956	2208.167808753161	49.654123368237
2	961	2212.37316627217	52.630930430775
2	966	2225.887029378719	36.674521271279
2	973	2231.583006861863	3.571594615277
2	983	2262.441913142429	5.488287484281
2	992	2277.47844915517	7.010889231478
2	995	2283.037613060752	5.892478403369
2	1006	2302.118193936643	9.761888981928
2	1009	2312.179797706559	15.620372849902
2	1012	2322.879238966684	23.030433814439
2	1013	2330.279660579648	17.686027917501
2	1022	2348.245311205081	2.999378963561
2	1027	2358.758949959792	5.359485472784
2	1039	2377.623214925686	5.195284871384
2	1052	2398.982731614833	0.014278982783
2	1061	2415.705450969541	11.00396185336
2	1062	2416.673449700574	7.779574361062
2	1069	2424.757610659048	5.789283745027
2	1074	2439.368745175547	12.357882231331
2	1079	2458.654405620047	15.220477026375
2	1093	2488.051857369016	7.430637272224
3	134	354.557151855681	1
3	137	363.823894831212	1
3	139	365.613274632813	2
3	144	370.585233872072	2
3	147	379.681710898725	3
3	152	396.392065199602	1
3	154	396.482332329256	2
3	160	405.963380670505	1
3	162	410.850292778012	2
3	167	413.949212177533	1
3	169	414.400860177836	2
3	173	424.726697612854	3
3	181	456.111867721576	1
3	187	472.775236854993	1
3	189	478.504847620427	2
3	191	478.696928021011	3
3	205	508.451775855767	2
3	207	508.857708167273	3
3	217	524.28980936815	1
3	224	553.294729384193	1
3	229	573.415496850299	1
3	232	579.327708019238	2
3	235	581.229214307217	2
3	239	587.051509254189	1
3	241	587.830568865482	2
3	243	588.51024789307	3
3	247	597.69174064835	2
3	250	599.625904239714	2
3	253	601.464798297421	2
3	257	621.555207288251	1
3	260	634.774522045433	1
3	263	653.323311617842	1
3	266	658.573298451177	1
3	272	684.49641219479	1
3	274	692.002243623595	2
3	280	712.428054766382	1
3	284	740.165402144317	1
3	292	758.199070333875	1
3	296	765.574160589746	1
3	300	768.598356354349	2
3	302	769.743416064392	3
3	304	770.107547801784	4
3	306	771.829954097869	5
3	309	774.42754541804	6
3	313	782.306578941402	5
3	315	784.678757195726	6
3	322	792.11062420985	4
3	324	794.103925195273	5
3	326	804.254275049714	6
3	328	808.053947914704	7
3	330	813.187159306011	8
3	332	815.945202965973	9
3	340	826.437857566554	5
3	343	831.143790537557	5
3	347	836.200513181557	6
3	349	846.215295774186	7
3	351	855.994726423543	8
3	354	858.518294259223	9
3	360	873.102858222541	9
3	362	874.596576772936	10
3	364	876.56858066659	11
3	371	885.172340007252	7
3	374	889.881592834636	7
3	377	894.21520461275	7
3	384	901.197466405341	6
3	387	907.503892790405	6
3	395	919.108782958971	5
3	397	923.552397120488	6
3	400	926.478400633381	7
3	402	927.346722870158	8
3	407	935.437711264658	9
3	410	938.35340222437	10
3	415	948.159850924412	8
3	417	948.645510515757	9
3	427	971.23130375891	6
3	432	997.739497752726	7
3	434	1002.247055797812	8
3	438	1004.940780636881	9
3	443	1015.089663101238	10
3	452	1031.744717209477	6
3	454	1033.869800367338	7
3	456	1035.218628114189	8
3	463	1042.10607936867	5
3	465	1042.89333419035	6
3	468	1044.907710098221	6
3	472	1056.478227078671	7
3	484	1081.535408919244	1
3	491	1110.924019657824	2
3	493	1116.577226252923	3
3	497	1120.370427437659	4
3	506	1138.101066537554	5
3	512	1158.997769375823	4
3	516	1164.389614103138	3
3	520	1176.368381827385	2
3	528	1199.872236254162	1
3	533	1204.278596782078	2
3	538	1209.467598345595	3
3	547	1232.961859612421	2
3	551	1236.984180589291	1
3	553	1241.706954241873	2
3	560	1250.196517913514	1
3	563	1268.951555771959	1
3	571	1287.623521008735	1
3	575	1300.845123160787	1
3	578	1320.578965987141	1
3	581	1332.584785782388	1
3	584	1341.640472899657	1
3	587	1352.712257866263	1
3	589	1353.596872460635	2
3	592	1354.430462899995	2
3	596	1363.525267817574	1
3	598	1363.98202022208	2
3	602	1366.79840673552	1
3	604	1367.798799028257	2
3	608	1380.988650301259	1
3	611	1383.440373029984	1
3	619	1405.945167179226	1
3	626	1422.396675441742	1
3	629	1429.627255756317	1
3	631	1430.685088772856	2
3	635	1439.937483048556	1
3	639	1440.601567088654	2
3	641	1441.274379830186	3
3	645	1470.089611214683	4
3	650	1477.856523929648	4
3	653	1479.634303538207	4
3	655	1481.017581247421	5
3	664	1489.97936585555	1
3	667	1499.513136980461	2
3	674	1529.541644465283	1
3	679	1534.061715485615	1
3	682	1538.630925993558	2
3	686	1553.230681240834	1
3	688	1553.449239273142	2
3	690	1553.946754001386	3
3	694	1561.300505661371	4
3	696	1562.463800429604	5
3	698	1566.131236080638	6
3	701	1577.652101419888	7
3	706	1595.558615324041	7
3	712	1602.787541439405	5
3	718	1629.290346216222	2
3	722	1637.768291493497	1
3	725	1639.148682106153	1
3	730	1657.708909622613	1
3	734	1675.495492245268	1
3	737	1682.1846757928	1
3	744	1697.637724245331	1
3	746	1714.252640392117	2
3	751	1725.952996459446	2
3	755	1733.091468649534	3
3	762	1743.602300963212	2
3	773	1769.737070293725	1
3	779	1797.429649869354	1
3	782	1808.423608925901	1
3	786	1811.117469180127	2
3	788	1812.727691339913	3
3	791	1819.29507133408	4
3	795	1823.829339928366	5
3	806	1850.05842958545	1
3	814	1870.140801328938	1
3	816	1872.093750590139	2
3	818	1876.405968623866	3
3	820	1878.066848027262	4
3	823	1880.162037838015	5
3	833	1914.482613606068	1
3	835	1920.880977758516	2
3	837	1924.746660298332	3
3	840	1929.7353207484	3
3	845	1951.433106009163	1
3	848	1961.080825932835	1
3	851	1968.963691792235	1
3	854	1974.704298001108	1
3	857	1979.34222648922	1
3	860	1982.36574677823	1
3	862	1983.838293113229	2
3	867	1989.156610482477	3
3	869	1990.350194517302	4
3	874	1995.780825651345	4
3	876	1996.531113902884	5
3	881	2019.802131646665	6
3	883	2021.949410744452	7
3	894	2060.879589853667	2
3	896	2060.908898717302	3
3	902	2070.679099586889	3
3	908	2091.617982071237	1
3	910	2092.486468161446	2
3	919	2120.154046587702	1
3	926	2133.359064701743	2
3	928	2140.34363870594	3
3	932	2151.696984518615	4
3	938	2165.460219418262	5
3	941	2182.948533678196	6
3	945	2189.646182425831	7
3	948	2193.914878067786	8
3	950	2193.954164107906	9
3	952	2194.561011312908	10
3	954	2200.766102351387	11
3	958	2210.22901050779	12
3	960	2211.800957408794	13
3	963	2213.125016198576	14
3	965	2216.818198176185	15
3	972	2231.069777978458	14
3	977	2245.062037414236	13
3	982	2260.881398963393	13
3	989	2274.961049532209	12
3	994	2280.214129127697	13
3	1008	2305.165130442435	10
3	1016	2333.953071763477	10
3	1029	2360.789919575655	6
3	1033	2362.698859064813	5
3	1035	2363.643523370556	6
3	1045	2392.218169230268	2
3	1048	2394.39108518217	2
3	1054	2400.655127529596	2
3	1060	2408.898363050178	3
3	1066	2423.295046423066	4
3	1068	2423.399860528197	5
3	1073	2437.376253249859	6
3	1076	2439.988562019943	7
3	1088	2479.732826589049	1
3	1090	2480.108407740282	2
4	134	354.557151855681	0
4	135	355.074181883663	0
4	137	363.823894831212	0
4	139	365.613274632813	1
4	140	368.160405466445	1
4	144	370.585233872072	1
4	147	379.681710898725	2
4	148	381.448744386734	2
4	149	381.801383665237	1
4	150	382.762356772904	0
4	152	396.392065199602	0
4	154	396.482332329256	1
4	155	397.077116763855	1
4	156	398.681626672798	0
4	160	405.963380670505	0
4	162	410.850292778012	1
4	164	412.141772719917	1
4	165	413.195044132065	0
4	167	413.949212177533	0
4	169	414.400860177836	1
4	173	424.726697612854	2
4	175	430.131930135848	2
4	176	434.601286404979	1
4	177	436.826252870274	0
4	181	456.111867721576	0
4	183	466.831454426691	0
4	187	472.775236854993	0
4	189	478.504847620427	1
4	191	478.696928021011	2
4	196	492.879905256777	2
4	203	506.103398354253	1
4	205	508.451775855767	1
4	207	508.857708167273	2
4	208	509.363972409904	2
4	209	510.290971967141	1
4	210	510.33503625053	0
4	217	524.28980936815	0
4	219	533.416057718336	0
4	224	553.294729384193	0
4	225	553.588768888472	0
4	229	573.415496850299	0
4	232	579.327708019238	1
4	233	579.730453191457	1
4	235	581.229214307217	1
4	236	584.986124457061	1
4	237	586.176669213938	0
4	239	587.051509254189	0
4	241	587.830568865482	1
4	243	588.51024789307	2
4	244	592.429658439849	2
4	245	592.896689003643	1
4	247	597.69174064835	1
4	248	599.585000139554	1
4	250	599.625904239714	1
4	251	600.128173484618	1
4	253	601.464798297421	1
4	254	609.639394863742	1
4	255	619.606320239784	0
4	257	621.555207288251	0
4	258	624.027279550036	0
4	260	634.774522045433	0
4	261	644.448202030185	0
4	263	653.323311617842	0
4	264	653.608053085113	0
4	266	658.573298451177	0
4	267	659.199595613746	0
4	272	684.49641219479	0
4	274	692.002243623595	1
4	275	701.052492156429	1
4	276	701.126312677752	0
4	280	712.428054766382	0
4	282	723.156190630286	0
4	284	740.165402144317	0
4	285	740.851964919916	0
4	292	758.199070333875	0
4	294	764.16974571044	0
4	296	765.574160589746	0
4	300	768.598356354349	1
4	302	769.743416064392	2
4	304	770.107547801784	3
4	306	771.829954097869	4
4	309	774.42754541804	5
4	310	775.20157767625	5
4	311	780.763285311774	4
4	313	782.306578941402	4
4	315	784.678757195726	5
4	316	785.299056473272	5
4	317	788.171370061566	4
4	318	788.240970497127	3
4	322	792.11062420985	3
4	324	794.103925195273	4
4	326	804.254275049714	5
4	328	808.053947914704	6
4	330	813.187159306011	7
4	332	815.945202965973	8
4	334	818.927068776862	8
4	335	820.304436463994	7
4	336	821.214371120682	6
4	337	821.219301680588	5
4	338	824.741875762091	4
4	340	826.437857566554	4
4	341	826.915619690787	4
4	343	831.143790537557	4
4	347	836.200513181557	5
4	349	846.215295774186	6
4	351	855.994726423543	7
4	354	858.518294259223	8
4	355	861.438118328139	8
4	360	873.102858222541	8
4	362	874.596576772936	9
4	364	876.56858066659	10
4	365	879.742770900635	10
4	366	879.760025609163	9
4	367	880.148358887858	8
4	368	881.04801799357	7
4	369	884.872916450218	6
4	371	885.172340007252	6
4	372	889.738919249121	6
4	374	889.881592834636	6
4	375	893.038290376938	6
4	377	894.21520461275	6
4	378	898.302987314718	6
4	382	899.608875901244	5
4	384	901.197466405341	5
4	385	907.290985860213	5
4	387	907.503892790405	5
4	388	910.869737619666	5
4	389	910.876387630354	4
4	395	919.108782958971	4
4	397	923.552397120488	5
4	400	926.478400633381	6
4	402	927.346722870158	7
4	407	935.437711264658	8
4	410	938.35340222437	9
4	411	939.316113470469	9
4	412	941.916625822021	8
4	413	944.418155364115	7
4	415	948.159850924412	7
4	417	948.645510515757	8
4	418	956.383043967449	8
4	419	956.583088485679	7
4	420	958.110294021228	6
4	421	958.695588573598	5
4	427	971.23130375891	5
4	432	997.739497752726	6
4	434	1002.247055797812	7
4	438	1004.940780636881	8
4	443	1015.089663101238	9
4	444	1018.446969409337	9
4	445	1019.700465067921	8
4	446	1022.072457324761	7
4	447	1024.887319384527	6
4	448	1029.038084875424	5
4	452	1031.744717209477	5
4	454	1033.869800367338	6
4	456	1035.218628114189	7
4	458	1039.547237879786	7
4	459	1041.537601561245	6
4	460	1041.926385197049	5
4	461	1042.015016320101	4
4	463	1042.10607936867	4
4	465	1042.89333419035	5
4	466	1044.530137562878	5
4	468	1044.907710098221	5
4	472	1056.478227078671	6
4	474	1066.024647226637	6
4	475	1067.14210182267	5
4	476	1067.496607766934	4
4	477	1069.425776032094	3
4	478	1070.293806846137	2
4	479	1072.899047199946	1
4	480	1073.091739878973	0
4	484	1081.535408919244	0
4	491	1110.924019657824	1
4	493	1116.577226252923	2
4	497	1120.370427437659	3
4	506	1138.101066537554	4
4	509	1156.240426274712	4
4	510	1157.206601317627	3
4	512	1158.997769375823	3
4	513	1160.203711753546	3
4	514	1160.972216939987	2
4	516	1164.389614103138	2
4	517	1166.061458946435	2
4	518	1174.658389871652	1
4	520	1176.368381827385	1
4	521	1177.163088977143	1
4	522	1178.584038034922	0
4	528	1199.872236254162	0
4	533	1204.278596782078	1
4	538	1209.467598345595	2
4	544	1227.739259373041	2
4	545	1229.192310060825	1
4	547	1232.961859612421	1
4	548	1234.204692886604	1
4	549	1235.283309853826	0
4	551	1236.984180589291	0
4	553	1241.706954241873	1
4	554	1244.823053392257	1
4	555	1245.474280570835	0
4	560	1250.196517913514	0
4	561	1257.50921675723	0
4	563	1268.951555771959	0
4	567	1275.242785516591	0
4	571	1287.623521008735	0
4	573	1296.424560030811	0
4	575	1300.845123160787	0
4	576	1308.709449734849	0
4	578	1320.578965987141	0
4	579	1320.875785279758	0
4	581	1332.584785782388	0
4	582	1336.043035479799	0
4	584	1341.640472899657	0
4	585	1342.984252689441	0
4	587	1352.712257866263	0
4	589	1353.596872460635	1
4	590	1354.368272317248	1
4	592	1354.430462899995	1
4	593	1354.476736757009	1
4	594	1356.983298837001	0
4	596	1363.525267817574	0
4	598	1363.98202022208	1
4	599	1365.896610971373	1
4	600	1366.622746249823	0
4	602	1366.79840673552	0
4	604	1367.798799028257	1
4	605	1371.569412226595	1
4	606	1372.081887909202	0
4	608	1380.988650301259	0
4	609	1381.146141209621	0
4	611	1383.440373029984	0
4	615	1395.60911641224	0
4	619	1405.945167179226	0
4	624	1418.209025075264	0
4	626	1422.396675441742	0
4	627	1427.990735098952	0
4	629	1429.627255756317	0
4	631	1430.685088772856	1
4	632	1430.991904611225	1
4	633	1434.087700242969	0
4	635	1439.937483048556	0
4	639	1440.601567088654	1
4	641	1441.274379830186	2
4	645	1470.089611214683	3
4	648	1477.477352272317	3
4	650	1477.856523929648	3
4	651	1477.909797493512	3
4	653	1479.634303538207	3
4	655	1481.017581247421	4
4	656	1482.665313765747	4
4	657	1483.248699426127	3
4	658	1484.550732732057	2
4	659	1485.70272987814	1
4	660	1488.758345514669	0
4	664	1489.97936585555	0
4	667	1499.513136980461	1
4	668	1503.148794558736	1
4	669	1505.18898432979	0
4	674	1529.541644465283	0
4	675	1530.312463693415	0
4	679	1534.061715485615	0
4	682	1538.630925993558	1
4	683	1539.092878018535	1
4	684	1545.733532438038	0
4	686	1553.230681240834	0
4	688	1553.449239273142	1
4	690	1553.946754001386	2
4	694	1561.300505661371	3
4	696	1562.463800429604	4
4	698	1566.131236080638	5
4	701	1577.652101419888	6
4	702	1584.785802040003	6
4	706	1595.558615324041	6
4	708	1599.523683418836	6
4	709	1599.790521436884	5
4	710	1600.145833115647	4
4	712	1602.787541439405	4
4	713	1605.149965728462	4
4	714	1610.715117326754	3
4	715	1613.652857272458	2
4	716	1629.224605268284	1
4	718	1629.290346216222	1
4	719	1630.49867818235	1
4	720	1631.803621673448	0
4	722	1637.768291493497	0
4	723	1638.087131887554	0
4	725	1639.148682106153	0
4	726	1641.133978224449	0
4	730	1657.708909622613	0
4	732	1661.963194380769	0
4	734	1675.495492245268	0
4	735	1679.561392562331	0
4	737	1682.1846757928	0
4	738	1684.326898454833	0
4	744	1697.637724245331	0
4	746	1714.252640392117	1
4	749	1725.446659563043	1
4	751	1725.952996459446	1
4	755	1733.091468649534	2
4	757	1733.831487956606	2
4	758	1737.273903007359	1
4	762	1743.602300963212	1
4	767	1748.708020485801	1
4	768	1749.20499126519	0
4	773	1769.737070293725	0
4	774	1769.774409939286	0
4	779	1797.429649869354	0
4	780	1798.594132769583	0
4	782	1808.423608925901	0
4	786	1811.117469180127	1
4	788	1812.727691339913	2
4	791	1819.29507133408	3
4	795	1823.829339928366	4
4	797	1828.133046613393	4
4	798	1828.486394502018	3
4	799	1829.82377900211	2
4	800	1830.335438645598	1
4	801	1832.287650885548	0
4	806	1850.05842958545	0
4	807	1853.646427134351	0
4	814	1870.140801328938	0
4	816	1872.093750590139	1
4	818	1876.405968623866	2
4	820	1878.066848027262	3
4	823	1880.162037838015	4
4	824	1885.095448602737	4
4	825	1889.809582798337	3
4	826	1891.978781568446	2
4	830	1898.551085320931	1
4	831	1898.84942593685	0
4	833	1914.482613606068	0
4	835	1920.880977758516	1
4	837	1924.746660298332	2
4	838	1925.07802089989	2
4	840	1929.7353207484	2
4	841	1929.913489440912	2
4	842	1932.057910780868	1
4	843	1932.119717242583	0
4	845	1951.433106009163	0
4	846	1953.43027968635	0
4	848	1961.080825932835	0
4	849	1963.63106165371	0
4	851	1968.963691792235	0
4	852	1969.128368098891	0
4	854	1974.704298001108	0
4	855	1976.294239840821	0
4	857	1979.34222648922	0
4	858	1980.190639982384	0
4	860	1982.36574677823	0
4	862	1983.838293113229	1
4	867	1989.156610482477	2
4	869	1990.350194517302	3
4	870	1993.209963223647	3
4	874	1995.780825651345	3
4	876	1996.531113902884	4
4	881	2019.802131646665	5
4	883	2021.949410744452	6
4	885	2029.816517009646	6
4	886	2032.779045518255	5
4	887	2043.188407993386	4
4	888	2043.35482592813	3
4	889	2047.490108621364	2
4	890	2048.12404176732	1
4	894	2060.879589853667	1
4	896	2060.908898717302	2
4	898	2066.99760008605	2
4	902	2070.679099586889	2
4	904	2082.571149805315	2
4	905	2084.184212776769	1
4	906	2087.825697136635	0
4	908	2091.617982071237	0
4	910	2092.486468161446	1
4	914	2100.177089832375	1
4	915	2100.372409681136	0
4	919	2120.154046587702	0
4	926	2133.359064701743	1
4	928	2140.34363870594	2
4	932	2151.696984518615	3
4	938	2165.460219418262	4
4	941	2182.948533678196	5
4	945	2189.646182425831	6
4	948	2193.914878067786	7
4	950	2193.954164107906	8
4	952	2194.561011312908	9
4	954	2200.766102351387	10
4	958	2210.22901050779	11
4	960	2211.800957408794	12
4	963	2213.125016198576	13
4	965	2216.818198176185	14
4	967	2226.359177756138	14
4	968	2227.697960301841	13
4	972	2231.069777978458	13
4	974	2239.215852060552	13
4	975	2243.784461565277	12
4	977	2245.062037414236	12
4	978	2252.997802093014	12
4	982	2260.881398963393	12
4	984	2264.013066924161	12
4	985	2264.840606768447	11
4	989	2274.961049532209	11
4	994	2280.214129127697	12
4	996	2288.82992599904	12
4	997	2290.03249289538	11
4	998	2290.494102754703	10
4	999	2290.753190997167	9
4	1008	2305.165130442435	9
4	1014	2332.526673934098	9
4	1016	2333.953071763477	9
4	1017	2334.77086276978	9
4	1018	2342.904481934619	8
4	1019	2344.268334495185	7
4	1023	2349.483551291991	6
4	1024	2353.259664353964	5
4	1029	2360.789919575655	5
4	1030	2361.435772876407	5
4	1031	2361.846847198224	4
4	1033	2362.698859064813	4
4	1035	2363.643523370556	5
4	1036	2371.917603427017	5
4	1040	2384.187753838809	4
4	1041	2384.579166645098	3
4	1042	2388.9873165096	2
4	1043	2391.776283268343	1
4	1045	2392.218169230268	1
4	1046	2393.53224762567	1
4	1048	2394.39108518217	1
4	1049	2397.802356711596	1
4	1054	2400.655127529596	1
4	1060	2408.898363050178	2
4	1066	2423.295046423066	3
4	1068	2423.399860528197	4
4	1073	2437.376253249859	5
4	1076	2439.988562019943	6
4	1080	2460.073658843853	6
4	1081	2463.701145892805	5
4	1082	2464.608664835986	4
4	1083	2467.801356244843	3
4	1084	2472.175776425463	2
4	1085	2474.900230809088	1
4	1086	2477.880216644276	0
4	1088	2479.732826589049	0
4	1090	2480.108407740282	1
4	1094	2489.271322237389	1
5	134	354.557151855681	0
5	137	363.823894831212	0
5	140	368.160405466445	2.547130833632
5	145	376.304377369425	6.929122052153
5	148	381.448744386734	10.863510514662
5	149	381.801383665237	2.119672766512
5	152	396.392065199602	0
5	155	397.077116763855	0.594784434599
5	163	411.761355023125	5.79797435262
5	164	412.141772719917	1.291479941905
5	167	413.949212177533	0
5	174	427.158985033829	12.758124855993
5	175	430.131930135848	14.343254044047
5	176	434.601286404979	9.874588792125
5	182	464.230111009813	8.118243288237
5	195	490.847280527691	18.072043672698
5	196	492.879905256777	14.37505763635
5	199	499.82527921581	21.128351194799
5	202	505.504881977678	10.475151868685
5	203	506.103398354253	5.589830878881
5	208	509.363972409904	0.912196554137
5	209	510.290971967141	1.433263799868
5	218	532.41095719066	8.12114782251
5	224	553.294729384193	0
5	230	578.853019727254	5.437522876955
5	233	579.730453191457	0.402745172219
5	236	584.986124457061	3.756910149844
5	239	587.051509254189	0
5	244	592.429658439849	4.599089574367
5	245	592.896689003643	4.386441110573
5	248	599.585000139554	1.893259491204
5	251	600.128173484618	0.502269244904
5	254	609.639394863742	8.174596566321
5	257	621.555207288251	0
5	260	634.774522045433	0
5	263	653.323311617842	0
5	266	658.573298451177	0
5	272	684.49641219479	0
5	275	701.052492156429	9.050248532834
5	281	721.209363962106	8.781309195724
5	284	740.165402144317	0
5	293	760.70500143091	2.505931097035
5	296	765.574160589746	0
5	307	773.137454573252	6.017062148036
5	310	775.20157767625	6.603221321901
5	311	780.763285311774	11.019869247382
5	316	785.299056473272	15.191508671488
5	317	788.171370061566	16.341415963697
5	318	788.240970497127	13.813425079087
5	333	816.341214638159	34.034635696757
5	334	818.927068776862	34.248311581136
5	335	820.304436463994	30.488646873568
5	336	821.214371120682	29.103746910832
5	337	821.219301680588	27.115376485315
5	338	824.741875762091	20.487600712377
5	341	826.915619690787	18.861671776083
5	352	858.374871021238	45.187711715227
5	355	861.438118328139	45.492915362166
5	358	867.01610131647	40.578243749916
5	365	879.742770900635	48.598980363078
5	366	879.760025609163	48.151545449318
5	367	880.148358887858	43.947845706301
5	368	881.04801799357	34.832722219384
5	369	884.872916450218	28.878190026675
5	372	889.738919249121	31.220624989898
5	375	893.038290376938	29.068216967763
5	378	898.302987314718	25.200129092177
5	381	898.940324853383	24.343748080447
5	382	899.608875901244	23.040295234654
5	385	907.290985860213	22.118645852961
5	388	910.869737619666	20.98814478503
5	389	910.876387630354	16.661183017604
5	403	934.014917247166	35.326736956227
5	408	937.414373255361	36.21690685002
5	411	939.316113470469	31.812220680064
5	412	941.916625822021	30.971847695357
5	413	944.418155364115	25.309372405144
5	418	956.383043967449	32.830646846961
5	419	956.583088485679	30.104687852298
5	420	958.110294021228	30.76357115107
5	421	958.695588573598	24.22350404117
5	441	1013.405255393337	77.967544128679
5	444	1018.446969409337	80.093567184967
5	445	1019.700465067921	71.540614143509
5	446	1022.072457324761	73.426946809004
5	447	1024.887319384527	65.053025050762
5	448	1029.038084875424	57.806781116514
5	457	1038.894728332283	41.155230579557
5	458	1039.547237879786	37.300182081974
5	459	1041.537601561245	36.596820924364
5	460	1041.926385197049	26.836722095811
5	461	1042.015016320101	11.071863720533
5	466	1044.530137562878	12.785420353401
5	473	1065.753147160999	31.883346793661
5	474	1066.024647226637	30.806019112448
5	475	1067.14210182267	25.036022454
5	476	1067.496607766934	24.603273576584
5	477	1069.425776032094	24.518065933873
5	478	1070.293806846137	20.18356085969
5	479	1072.899047199946	16.420820121275
5	508	1146.190456068985	64.655047149741
5	509	1156.240426274712	45.316406616888
5	510	1157.206601317627	40.629375064704
5	513	1160.203711753546	39.833284315887
5	514	1160.972216939987	22.871150402433
5	517	1166.061458946435	7.063689570612
5	518	1174.658389871652	10.268775768514
5	521	1177.163088977143	0.794707149758
5	543	1224.712756473745	24.840520219583
5	544	1227.739259373041	23.460662590963
5	545	1229.192310060825	19.72471171523
5	548	1234.204692886604	1.242833274183
5	551	1236.984180589291	0
5	554	1244.823053392257	3.116099150384
5	560	1250.196517913514	0
5	563	1268.951555771959	0
5	566	1274.568360152843	2.292233607368
5	572	1291.198895252978	3.575374244243
5	575	1300.845123160787	0
5	578	1320.578965987141	0
5	581	1332.584785782388	0
5	584	1341.640472899657	0
5	587	1352.712257866263	0
5	590	1354.368272317248	0.771399856613
5	593	1354.476736757009	0.046273857014
5	596	1363.525267817574	0
5	599	1365.896610971373	1.914590749293
5	602	1366.79840673552	0
5	605	1371.569412226595	3.770613198338
5	608	1380.988650301259	0
5	611	1383.440373029984	0
5	614	1394.380873556968	6.748474296065
5	623	1417.581792257848	11.636625078622
5	626	1422.396675441742	0
5	629	1429.627255756317	0
5	632	1430.991904611225	0.306815838369
5	635	1439.937483048556	0
5	647	1477.002098207588	36.699573047551
5	648	1477.477352272317	36.875785183663
5	651	1477.909797493512	36.635417663326
5	656	1482.665313765747	12.575702551064
5	657	1483.248699426127	5.392175496479
5	658	1484.550732732057	4.91642919385
5	659	1485.70272987814	4.685148630719
5	665	1493.774781701066	3.795415845516
5	668	1503.148794558736	3.635657578275
5	674	1529.541644465283	0
5	680	1536.465273426621	2.403557941006
5	683	1539.092878018535	0.461952024977
5	686	1553.230681240834	0
5	699	1576.694705815011	23.245466541869
5	702	1584.785802040003	30.839048038617
5	707	1596.385776891971	37.887599553428
5	708	1599.523683418836	38.223177757465
5	709	1599.790521436884	37.32672100728
5	710	1600.145833115647	34.014597035009
5	713	1605.149965728462	27.497864308574
5	714	1610.715117326754	20.244382104705
5	715	1613.652857272458	18.094241948417
5	716	1629.224605268284	26.437063828879
5	719	1630.49867818235	1.208331966128
5	722	1637.768291493497	0
5	725	1639.148682106153	0
5	731	1660.512545996602	2.803636373989
5	734	1675.495492245268	0
5	737	1682.1846757928	0
5	748	1724.047313032692	26.409588787361
5	749	1725.446659563043	11.194019170926
5	756	1733.724116730272	7.771120270826
5	757	1733.831487956606	2.086722129661
5	758	1737.273903007359	4.182434357825
5	766	1747.636351659812	10.04079948293
5	767	1748.708020485801	5.105719522589
5	773	1769.737070293725	0
5	779	1797.429649869354	0
5	782	1808.423608925901	0
5	789	1816.036774818017	6.030193681777
5	796	1827.758030500551	16.640561320424
5	797	1828.133046613393	15.40535527348
5	798	1828.486394502018	9.191323167938
5	799	1829.82377900211	9.989571760308
5	800	1830.335438645598	6.506098717232
5	806	1850.05842958545	0
5	821	1879.404488003351	9.263686674413
5	824	1885.095448602737	13.001698012598
5	825	1889.809582798337	13.403614174471
5	826	1891.978781568446	13.911933541184
5	829	1896.776020255442	16.613982417427
5	830	1898.551085320931	5.097951204947
5	833	1914.482613606068	0
5	838	1925.07802089989	4.197043141374
5	841	1929.913489440912	5.16682914258
5	842	1932.057910780868	2.322590032468
5	845	1951.433106009163	0
5	848	1961.080825932835	0
5	851	1968.963691792235	0
5	854	1974.704298001108	0
5	857	1979.34222648922	0
5	860	1982.36574677823	0
5	865	1988.979105282137	5.140812168908
5	870	1993.209963223647	8.856786797947
5	884	2024.967106327318	35.810495844841
5	885	2029.816517009646	39.466322492344
5	886	2032.779045518255	39.3392748841
5	887	2043.188407993386	47.407582342041
5	888	2043.35482592813	46.823712025246
5	889	2047.490108621364	27.687976974699
5	890	2048.12404176732	26.174631022868
5	897	2063.50928846712	5.679996198771
5	898	2066.99760008605	6.118010232383
5	903	2079.896818168882	18.98791945158
5	904	2082.571149805315	15.379878896395
5	905	2084.184212776769	13.50511318988
5	908	2091.617982071237	0
5	913	2098.966472272995	6.480004111549
5	914	2100.177089832375	6.636485148774
5	920	2123.599660551998	3.445613964296
5	966	2225.887029378719	102.0245653981
5	967	2226.359177756138	93.000113054395
5	968	2227.697960301841	87.354321595901
5	973	2231.583006861863	79.886022343248
5	974	2239.215852060552	73.75563264229
5	975	2243.784461565277	60.835927887081
5	978	2252.997802093014	63.351619667183
5	983	2262.441913142429	68.527035074643
5	984	2264.013066924161	70.058902816255
5	985	2264.840606768447	70.279595455539
5	995	2283.037613060752	82.271510709365
5	996	2288.82992599904	78.60091549125
5	997	2290.03249289538	78.231535486586
5	998	2290.494102754703	77.369086556127
5	999	2290.753190997167	73.934992820982
5	1013	2330.279660579648	102.26824833306
5	1014	2332.526673934098	101.45689595564
5	1017	2334.77086276978	89.708825355544
5	1018	2342.904481934619	85.950856276471
5	1019	2344.268334495185	83.386935531792
5	1022	2348.245311205081	77.777751281389
5	1023	2349.483551291991	74.522501759782
5	1024	2353.259664353964	73.045535226267
5	1027	2358.758949959792	66.402645005077
5	1030	2361.435772876407	56.270642433972
5	1031	2361.846847198224	27.893775434747
5	1036	2371.917603427017	26.671671185497
5	1039	2377.623214925686	24.223750438678
5	1040	2384.187753838809	23.397834263154
5	1041	2384.579166645098	21.880307580285
5	1042	2388.9873165096	25.343793139044
5	1043	2391.776283268343	19.348353214041
5	1046	2393.53224762567	1.314078395402
5	1049	2397.802356711596	3.411271529426
5	1052	2398.982731614833	0.014278982783
5	1062	2416.673449700574	16.018322170978
5	1069	2424.757610659048	20.056121542867
5	1074	2439.368745175547	30.470382125369
5	1079	2458.654405620047	39.686078706026
5	1080	2460.073658843853	36.778612420787
5	1081	2463.701145892805	40.301285364608
5	1082	2464.608664835986	37.59780189177
5	1083	2467.801356244843	30.425102994984
5	1084	2472.175776425463	32.18721440552
5	1085	2474.900230809088	31.466302215416
5	1088	2479.732826589049	0
5	1093	2488.051857369016	7.943449628734
5	1094	2489.271322237389	8.650102140597
6	135	355.074181883663	27
6	140	368.160405466445	28
6	148	381.448744386734	29
6	149	381.801383665237	30
6	150	382.762356772904	31
6	155	397.077116763855	32
6	156	398.681626672798	33
6	164	412.141772719917	34
6	165	413.195044132065	35
6	175	430.131930135848	36
6	176	434.601286404979	37
6	177	436.826252870274	38
6	183	466.831454426691	39
6	196	492.879905256777	40
6	203	506.103398354253	41
6	208	509.363972409904	42
6	209	510.290971967141	43
6	210	510.33503625053	44
6	219	533.416057718336	45
6	225	553.588768888472	46
6	233	579.730453191457	47
6	236	584.986124457061	48
6	237	586.176669213938	49
6	244	592.429658439849	50
6	245	592.896689003643	51
6	248	599.585000139554	52
6	251	600.128173484618	53
6	254	609.639394863742	54
6	255	619.606320239784	55
6	258	624.027279550036	56
6	261	644.448202030185	57
6	264	653.608053085113	58
6	267	659.199595613746	59
6	275	701.052492156429	60
6	276	701.126312677752	61
6	282	723.156190630286	62
6	285	740.851964919916	63
6	294	764.16974571044	64
6	310	775.20157767625	65
6	311	780.763285311774	66
6	316	785.299056473272	67
6	317	788.171370061566	68
6	318	788.240970497127	69
6	334	818.927068776862	70
6	335	820.304436463994	71
6	336	821.214371120682	72
6	337	821.219301680588	73
6	338	824.741875762091	74
6	341	826.915619690787	75
6	355	861.438118328139	76
6	365	879.742770900635	77
6	366	879.760025609163	78
6	367	880.148358887858	79
6	368	881.04801799357	80
6	369	884.872916450218	81
6	372	889.738919249121	82
6	375	893.038290376938	83
6	378	898.302987314718	84
6	382	899.608875901244	85
6	385	907.290985860213	86
6	388	910.869737619666	87
6	389	910.876387630354	88
6	411	939.316113470469	89
6	412	941.916625822021	90
6	413	944.418155364115	91
6	418	956.383043967449	92
6	419	956.583088485679	93
6	420	958.110294021228	94
6	421	958.695588573598	95
6	444	1018.446969409337	96
6	445	1019.700465067921	97
6	446	1022.072457324761	98
6	447	1024.887319384527	99
6	448	1029.038084875424	100
6	458	1039.547237879786	101
6	459	1041.537601561245	102
6	460	1041.926385197049	103
6	461	1042.015016320101	104
6	466	1044.530137562878	105
6	474	1066.024647226637	106
6	475	1067.14210182267	107
6	476	1067.496607766934	108
6	477	1069.425776032094	109
6	478	1070.293806846137	110
6	479	1072.899047199946	111
6	480	1073.091739878973	112
6	509	1156.240426274712	113
6	510	1157.206601317627	114
6	513	1160.203711753546	115
6	514	1160.972216939987	116
6	517	1166.061458946435	117
6	518	1174.658389871652	118
6	521	1177.163088977143	119
6	522	1178.584038034922	120
6	544	1227.739259373041	121
6	545	1229.192310060825	122
6	548	1234.204692886604	123
6	549	1235.283309853826	124
6	554	1244.823053392257	125
6	555	1245.474280570835	126
6	561	1257.50921675723	127
6	567	1275.242785516591	128
6	573	1296.424560030811	129
6	576	1308.709449734849	130
6	579	1320.875785279758	131
6	582	1336.043035479799	132
6	585	1342.984252689441	133
6	590	1354.368272317248	134
6	593	1354.476736757009	135
6	594	1356.983298837001	136
6	599	1365.896610971373	137
6	600	1366.622746249823	138
6	605	1371.569412226595	139
6	606	1372.081887909202	140
6	609	1381.146141209621	141
6	615	1395.60911641224	142
6	624	1418.209025075264	143
6	627	1427.990735098952	144
6	632	1430.991904611225	145
6	633	1434.087700242969	146
6	648	1477.477352272317	147
6	651	1477.909797493512	148
6	656	1482.665313765747	149
6	657	1483.248699426127	150
6	658	1484.550732732057	151
6	659	1485.70272987814	152
6	660	1488.758345514669	153
6	668	1503.148794558736	154
6	669	1505.18898432979	155
6	675	1530.312463693415	156
6	683	1539.092878018535	157
6	684	1545.733532438038	158
6	702	1584.785802040003	159
6	708	1599.523683418836	160
6	709	1599.790521436884	161
6	710	1600.145833115647	162
6	713	1605.149965728462	163
6	714	1610.715117326754	164
6	715	1613.652857272458	165
6	716	1629.224605268284	166
6	719	1630.49867818235	167
6	720	1631.803621673448	168
6	723	1638.087131887554	169
6	726	1641.133978224449	170
6	732	1661.963194380769	171
6	735	1679.561392562331	172
6	738	1684.326898454833	173
6	749	1725.446659563043	174
6	757	1733.831487956606	175
6	758	1737.273903007359	176
6	767	1748.708020485801	177
6	768	1749.20499126519	178
6	774	1769.774409939286	179
6	780	1798.594132769583	180
6	797	1828.133046613393	181
6	798	1828.486394502018	182
6	799	1829.82377900211	183
6	800	1830.335438645598	184
6	801	1832.287650885548	185
6	807	1853.646427134351	186
6	824	1885.095448602737	187
6	825	1889.809582798337	188
6	826	1891.978781568446	189
6	830	1898.551085320931	190
6	831	1898.84942593685	191
6	838	1925.07802089989	192
6	841	1929.913489440912	193
6	842	1932.057910780868	194
6	843	1932.119717242583	195
6	846	1953.43027968635	196
6	849	1963.63106165371	197
6	852	1969.128368098891	198
6	855	1976.294239840821	199
6	858	1980.190639982384	200
6	870	1993.209963223647	201
6	885	2029.816517009646	202
6	886	2032.779045518255	203
6	887	2043.188407993386	204
6	888	2043.35482592813	205
6	889	2047.490108621364	206
6	890	2048.12404176732	207
6	898	2066.99760008605	208
6	904	2082.571149805315	209
6	905	2084.184212776769	210
6	906	2087.825697136635	211
6	914	2100.177089832375	212
6	915	2100.372409681136	213
6	967	2226.359177756138	214
6	968	2227.697960301841	215
6	974	2239.215852060552	216
6	975	2243.784461565277	217
6	978	2252.997802093014	218
6	984	2264.013066924161	219
6	985	2264.840606768447	220
6	996	2288.82992599904	221
6	997	2290.03249289538	222
6	998	2290.494102754703	223
6	999	2290.753190997167	224
6	1014	2332.526673934098	225
6	1017	2334.77086276978	226
6	1018	2342.904481934619	227
6	1019	2344.268334495185	228
6	1023	2349.483551291991	229
6	1024	2353.259664353964	230
6	1030	2361.435772876407	231
6	1031	2361.846847198224	232
6	1036	2371.917603427017	233
6	1040	2384.187753838809	234
6	1041	2384.579166645098	235
6	1042	2388.9873165096	236
6	1043	2391.776283268343	237
6	1046	2393.53224762567	238
6	1049	2397.802356711596	239
6	1080	2460.073658843853	240
6	1081	2463.701145892805	241
6	1082	2464.608664835986	242
6	1083	2467.801356244843	243
6	1084	2472.175776425463	244
6	1085	2474.900230809088	245
6	1086	2477.880216644276	246
6	1094	2489.271322237389	247
7	135	355.074181883663	0.517030027982
7	140	368.160405466445	4.336510635233
7	148	381.448744386734	12.073489069462
7	149	381.801383665237	11.216149793165
7	150	382.762356772904	3.080645874179
7	155	397.077116763855	0.685051564253
7	156	398.681626672798	2.199294343542
7	164	412.141772719917	6.178392049412
7	165	413.195044132065	2.344751354053
7	175	430.131930135848	15.731069958012
7	176	434.601286404979	18.812610313178
7	177	436.826252870274	12.09955525742
7	183	466.831454426691	10.719586705115
7	196	492.879905256777	20.104668401784
7	203	506.103398354253	11.07366824526
7	208	509.363972409904	8.850404934532
7	209	510.290971967141	1.839196111374
7	210	510.33503625053	1.477328083257
7	219	533.416057718336	9.126248350186
7	225	553.588768888472	0.294039504279
7	233	579.730453191457	6.314956341158
7	236	584.986124457061	5.658416437823
7	237	586.176669213938	4.947454906721
7	244	592.429658439849	5.37814918566
7	245	592.896689003643	5.066120138161
7	248	599.585000139554	11.074752246484
7	251	600.128173484618	2.436432836268
7	254	609.639394863742	10.013490624028
7	255	619.606320239784	18.141521942363
7	258	624.027279550036	2.472072261785
7	261	644.448202030185	9.673679984752
7	264	653.608053085113	0.284741467271
7	267	659.199595613746	0.626297162569
7	275	701.052492156429	16.556079961639
7	276	701.126312677752	9.124069054157
7	282	723.156190630286	10.728135863904
7	285	740.851964919916	0.686562775599
7	294	764.16974571044	5.970675376565
7	310	775.20157767625	8.081185251034
7	311	780.763285311774	12.164928957425
7	316	785.299056473272	15.55564040888
7	317	788.171370061566	18.063822259782
7	318	788.240970497127	16.411016399258
7	334	818.927068776862	36.62048983546
7	335	820.304436463994	35.625679268268
7	336	821.214371120682	31.398581530256
7	337	821.219301680588	29.108677470738
7	338	824.741875762091	30.637950566818
7	341	826.915619690787	22.661344641073
7	355	861.438118328139	48.250959022128
7	365	879.742770900635	53.304913334081
7	366	879.760025609163	48.616235071606
7	367	880.148358887858	48.539878728013
7	368	881.04801799357	44.847504812013
7	369	884.872916450218	38.657620676032
7	372	889.738919249121	33.744192825578
7	375	893.038290376938	34.519996117715
7	378	898.302987314718	34.332913905543
7	382	899.608875901244	25.012299128308
7	385	907.290985860213	30.722405193623
7	388	910.869737619666	25.697397612414
7	389	910.876387630354	20.994794795718
7	411	939.316113470469	38.118647065128
7	412	941.916625822021	34.412733031616
7	413	944.418155364115	33.473377237451
7	418	956.383043967449	37.274261008478
7	419	956.583088485679	33.030691365191
7	420	958.110294021228	31.631893387847
7	421	958.695588573598	31.34886570344
7	444	1018.446969409337	83.009258144679
7	445	1019.700465067921	81.347062843551
7	446	1022.072457324761	73.912606400349
7	447	1024.887319384527	76.24180886877
7	448	1029.038084875424	69.203790541659
7	458	1039.547237879786	41.80774012706
7	459	1041.537601561245	39.290545763433
7	460	1041.926385197049	36.985604560168
7	461	1042.015016320101	26.925353218863
7	466	1044.530137562878	13.58698496331
7	474	1066.024647226637	32.154846859299
7	475	1067.14210182267	31.923473708481
7	476	1067.496607766934	25.390528398264
7	477	1069.425776032094	26.532441841744
7	478	1070.293806846137	25.386096747916
7	479	1072.899047199946	22.788801213499
7	480	1073.091739878973	16.613512800302
7	509	1156.240426274712	74.705017355468
7	510	1157.206601317627	46.282581659803
7	513	1160.203711753546	43.626485500623
7	514	1160.972216939987	40.601789502328
7	517	1166.061458946435	27.960392408881
7	518	1174.658389871652	15.660620495829
7	521	1177.163088977143	12.773474874005
7	522	1178.584038034922	2.215656207537
7	544	1227.739259373041	27.867023118879
7	545	1229.192310060825	24.913713278747
7	548	1234.204692886604	24.737094541009
7	549	1235.283309853826	2.321450241405
7	554	1244.823053392257	7.838872802966
7	555	1245.474280570835	3.767326328962
7	561	1257.50921675723	7.312698843716
7	567	1275.242785516591	2.966658971116
7	573	1296.424560030811	8.801039022076
7	576	1308.709449734849	7.864326574062
7	579	1320.875785279758	0.296819292617
7	582	1336.043035479799	3.458249697411
7	585	1342.984252689441	1.343779789784
7	590	1354.368272317248	1.656014450985
7	593	1354.476736757009	0.879864296374
7	594	1356.983298837001	2.552835937006
7	599	1365.896610971373	2.371343153799
7	600	1366.622746249823	2.640726027743
7	605	1371.569412226595	4.771005491075
7	606	1372.081887909202	4.283088880945
7	609	1381.146141209621	0.157490908362
7	615	1395.60911641224	7.976717151337
7	624	1418.209025075264	12.263857896038
7	627	1427.990735098952	5.59405965721
7	632	1430.991904611225	1.364648854908
7	633	1434.087700242969	3.402611470113
7	648	1477.477352272317	37.17482711228
7	651	1477.909797493512	37.308230404858
7	656	1482.665313765747	41.390933935561
7	657	1483.248699426127	13.159088211444
7	658	1484.550732732057	6.694208802409
7	659	1485.70272987814	6.068426339933
7	660	1488.758345514669	7.740764267248
7	668	1503.148794558736	13.169428703186
7	669	1505.18898432979	5.675847349329
7	675	1530.312463693415	0.770819228132
7	683	1539.092878018535	5.03116253292
7	684	1545.733532438038	7.10260644448
7	702	1584.785802040003	31.336562766861
7	708	1599.523683418836	41.025506080293
7	709	1599.790521436884	38.490015775513
7	710	1600.145833115647	37.682032686043
7	713	1605.149965728462	39.018729647824
7	714	1610.715117326754	33.063015906866
7	715	1613.652857272458	23.182122050409
7	716	1629.224605268284	33.665989944243
7	719	1630.49867818235	27.711136742945
7	720	1631.803621673448	2.513275457226
7	723	1638.087131887554	0.318840394057
7	726	1641.133978224449	1.985296118296
7	732	1661.963194380769	4.254284758156
7	735	1679.561392562331	4.065900317063
7	738	1684.326898454833	2.142222662033
7	749	1725.446659563043	27.808935317712
7	757	1733.831487956606	7.87849149716
7	758	1737.273903007359	5.529137180414
7	767	1748.708020485801	11.112468308919
7	768	1749.20499126519	5.602690301978
7	774	1769.774409939286	0.037339645561
7	780	1798.594132769583	1.164482900229
7	797	1828.133046613393	17.015577433266
7	798	1828.486394502018	15.758703162105
7	799	1829.82377900211	10.52870766803
7	800	1830.335438645598	10.501231403796
7	801	1832.287650885548	8.458310957182
7	807	1853.646427134351	3.587997548901
7	824	1885.095448602737	14.954647273799
7	825	1889.809582798337	17.715832208198
7	826	1891.978781568446	15.57281294458
7	830	1898.551085320931	18.389047482916
7	831	1898.84942593685	5.396291820866
7	838	1925.07802089989	10.595407293822
7	841	1929.913489440912	9.032511682396
7	842	1932.057910780868	7.311250482536
7	843	1932.119717242583	2.384396494183
7	846	1953.43027968635	1.997173677187
7	849	1963.63106165371	2.550235720875
7	852	1969.128368098891	0.164676306656
7	855	1976.294239840821	1.589941839713
7	858	1980.190639982384	0.848413493164
7	870	1993.209963223647	9.371670110418
7	885	2029.816517009646	40.659906527169
7	886	2032.779045518255	42.428851000953
7	887	2043.188407993386	49.748637359231
7	888	2043.35482592813	47.574000276785
7	889	2047.490108621364	50.95899471848
7	890	2048.12404176732	28.321910120655
7	898	2066.99760008605	9.168307817701
7	904	2082.571149805315	21.662251088013
7	905	2084.184212776769	16.992941867849
7	906	2087.825697136635	17.146597549746
7	914	2100.177089832375	7.690621670929
7	915	2100.372409681136	6.831804997535
7	967	2226.359177756138	102.49671377552
7	968	2227.697960301841	94.338895600098
7	974	2239.215852060552	87.518867541937
7	975	2243.784461565277	78.324242147015
7	978	2252.997802093014	70.049268414818
7	984	2264.013066924161	70.098188856375
7	985	2264.840606768447	70.886442660541
7	996	2288.82992599904	88.063823647653
7	997	2290.03249289538	79.80348238759
7	998	2290.494102754703	78.693145345909
7	999	2290.753190997167	77.628174798591
7	1014	2332.526673934098	104.51526168751
7	1017	2334.77086276978	103.70108479132
7	1018	2342.904481934619	97.842444520383
7	1019	2344.268334495185	87.314708837037
7	1023	2349.483551291991	79.015991368299
7	1024	2353.259664353964	78.298614821755
7	1030	2361.435772876407	69.079467921692
7	1031	2361.846847198224	56.681716755789
7	1036	2371.917603427017	37.96453166354
7	1040	2384.187753838809	30.788289351801
7	1041	2384.579166645098	23.789247069443
7	1042	2388.9873165096	26.288457444787
7	1043	2391.776283268343	28.132759897787
7	1046	2393.53224762567	21.104317571368
7	1049	2397.802356711596	5.584187481328
7	1080	2460.073658843853	41.105331929832
7	1081	2463.701145892805	40.406099469739
7	1082	2464.608664835986	41.208804307789
7	1083	2467.801356244843	40.790493300627
7	1084	2472.175776425463	34.799523175604
7	1085	2474.900230809088	34.911668789145
7	1086	2477.880216644276	34.446288050604
7	1094	2489.271322237389	9.162914497107
8	142	369.375255317272	1
8	158	404.258574086135	1
8	171	415.788676091801	1
8	179	443.919676013075	1
8	185	470.546870107225	1
8	193	480.431995840156	2
8	198	495.029730108993	1
8	201	500.513567475372	1
8	212	517.809300423735	1
8	215	521.192237302952	1
8	221	541.925002229654	1
8	227	567.695925539455	1
8	269	660.252978140038	1
8	278	709.366630100926	1
8	287	743.646848964604	1
8	290	756.458935907148	1
8	298	767.120392425216	1
8	320	789.815789590426	1
8	345	831.608480159845	1
8	357	863.970073409175	1
8	380	898.688180290939	1
8	391	910.944778126664	1
8	393	912.065066633432	2
8	405	934.472084532428	1
8	423	959.834294333765	1
8	425	963.034023953894	2
8	430	995.44102465029	2
8	436	1004.276199296497	3
8	450	1030.943152599568	1
8	470	1050.110245986447	1
8	482	1074.807943387107	1
8	486	1086.494175780376	2
8	489	1102.06552599861	2
8	495	1119.223715317434	3
8	499	1121.890324746436	4
8	501	1123.663479696237	5
8	524	1186.897939430832	1
8	526	1191.951539220539	2
8	531	1202.276890746692	2
8	536	1207.192094069512	2
8	540	1212.083298246598	3
8	557	1247.010455122903	1
8	565	1272.276126545475	1
8	569	1284.608791838486	1
8	613	1387.632399260903	1
8	617	1403.412013724196	1
8	621	1409.315926484005	2
8	637	1440.302525160037	1
8	643	1462.555294735073	2
8	662	1489.486066902343	1
8	671	1507.762238717833	1
8	677	1533.228522866138	1
8	692	1558.498177338543	1
8	704	1590.470735222049	1
8	728	1645.874418155944	1
8	740	1688.598277283569	1
8	742	1697.269698461538	2
8	753	1731.744765826945	1
8	760	1737.595552176882	1
8	764	1744.899527686484	2
8	770	1755.198627303625	1
8	776	1782.557906561692	1
8	784	1810.00658113624	1
8	793	1819.834207241802	1
8	803	1845.586409673488	1
8	809	1858.271437782732	1
8	812	1868.692586631094	1
8	828	1893.453134115984	1
8	864	1984.3531764257	1
8	872	1993.439770634155	1
8	878	2005.414674315447	2
8	892	2057.829292268349	1
8	900	2067.19127090892	1
8	912	2093.540604683601	1
8	917	2118.272495163052	1
8	922	2123.862463980623	1
8	924	2125.583614538701	2
8	930	2148.351335550223	3
8	934	2158.513685384924	4
8	936	2159.742235841395	5
8	943	2189.21250810744	5
8	970	2228.011412246586	1
8	980	2256.953625658148	1
8	987	2270.467559923692	1
8	991	2277.145134657383	2
8	1001	2292.356304954715	1
8	1003	2296.559424856657	2
8	1005	2299.848805152245	3
8	1011	2312.593632662147	2
8	1021	2345.24593224152	1
8	1026	2353.399464487008	1
8	1038	2372.427930054302	1
8	1051	2398.96845263205	1
8	1056	2404.701489116181	1
8	1058	2408.893875339512	2
8	1064	2418.968326914021	1
8	1071	2427.010862944216	1
8	1078	2443.433928593672	1
8	1092	2480.621220096792	1
8	1096	2496.852317827315	1
9	142	369.375255317272	9
9	171	415.788676091801	10
9	198	495.029730108993	11
9	201	500.513567475372	12
9	298	767.120392425216	13
9	320	789.815789590426	14
9	345	831.608480159845	15
9	357	863.970073409175	16
9	380	898.688180290939	17
9	391	910.944778126664	18
9	405	934.472084532428	19
9	423	959.834294333765	20
9	450	1030.943152599568	21
9	470	1050.110245986447	22
9	565	1272.276126545475	23
9	613	1387.632399260903	24
9	637	1440.302525160037	25
9	692	1558.498177338543	26
9	704	1590.470735222049	27
9	753	1731.744765826945	28
9	760	1737.595552176882	29
9	784	1810.00658113624	30
9	793	1819.834207241802	31
9	828	1893.453134115984	32
9	864	1984.3531764257	33
9	872	1993.439770634155	34
9	892	2057.829292268349	35
9	900	2067.19127090892	36
9	912	2093.540604683601	37
9	922	2123.862463980623	38
9	970	2228.011412246586	39
9	980	2256.953625658148	40
9	987	2270.467559923692	41
9	1001	2292.356304954715	42
9	1021	2345.24593224152	43
9	1026	2353.399464487008	44
9	1038	2372.427930054302	45
9	1051	2398.96845263205	46
9	1056	2404.701489116181	47
9	1064	2418.968326914021	48
9	1071	2427.010862944216	49
9	1078	2443.433928593672	50
9	1092	2480.621220096792	51
9	1096	2496.852317827315	52
10	142	369.375255317272	0
10	158	404.258574086135	0
10	171	415.788676091801	0
10	179	443.919676013075	0
10	185	470.546870107225	0
10	194	486.829970918353	6.397975078197
10	198	495.029730108993	0
10	201	500.513567475372	0
10	212	517.809300423735	0
10	215	521.192237302952	0
10	221	541.925002229654	0
10	227	567.695925539455	0
10	269	660.252978140038	0
10	278	709.366630100926	0
10	287	743.646848964604	0
10	290	756.458935907148	0
10	298	767.120392425216	0
10	320	789.815789590426	0
10	345	831.608480159845	0
10	357	863.970073409175	0
10	380	898.688180290939	0
10	391	910.944778126664	0
10	398	924.838277457415	12.773210823983
10	405	934.472084532428	0
10	423	959.834294333765	0
10	428	989.817549478953	26.783525525059
10	439	1008.875429587279	13.434404936989
10	440	1011.493011551974	7.216812255477
10	450	1030.943152599568	0
10	470	1050.110245986447	0
10	482	1074.807943387107	0
10	487	1098.791017535818	12.296841755442
10	502	1126.537620262126	24.472094263516
10	503	1127.966737852433	8.743022534999
10	504	1133.923781468426	12.03345672199
10	507	1141.334822536745	17.671342840508
10	524	1186.897939430832	0
10	529	1200.777290827494	8.825751606955
10	534	1205.200790094899	2.923899348207
10	541	1216.257559234682	9.06546516517
10	542	1218.406283006224	6.322984759626
10	557	1247.010455122903	0
10	565	1272.276126545475	0
10	569	1284.608791838486	0
10	613	1387.632399260903	0
10	617	1403.412013724196	0
10	622	1412.923513637678	3.607587153673
10	637	1440.302525160037	0
10	646	1470.512686868949	7.957392133876
10	662	1489.486066902343	0
10	671	1507.762238717833	0
10	677	1533.228522866138	0
10	692	1558.498177338543	0
10	704	1590.470735222049	0
10	728	1645.874418155944	0
10	740	1688.598277283569	0
10	747	1720.278614052922	23.008915591384
10	753	1731.744765826945	0
10	760	1737.595552176882	0
10	765	1746.096494370955	1.196966684471
10	770	1755.198627303625	0
10	776	1782.557906561692	0
10	784	1810.00658113624	0
10	793	1819.834207241802	0
10	803	1845.586409673488	0
10	809	1858.271437782732	0
10	812	1868.692586631094	0
10	828	1893.453134115984	0
10	864	1984.3531764257	0
10	872	1993.439770634155	0
10	879	2018.822027590576	13.407353275129
10	892	2057.829292268349	0
10	900	2067.19127090892	0
10	912	2093.540604683601	0
10	917	2118.272495163052	0
10	922	2123.862463980623	0
10	939	2166.710116442927	41.126501904226
10	946	2190.399851221376	42.048515671153
10	955	2206.177790246279	47.664104861355
10	956	2208.167808753161	48.425572911766
10	961	2212.37316627217	23.16065816473
10	970	2228.011412246586	0
10	980	2256.953625658148	0
10	987	2270.467559923692	0
10	992	2277.47844915517	0.333314497787
10	1001	2292.356304954715	0
10	1006	2302.118193936643	5.558769079986
10	1009	2312.179797706559	12.330992554314
10	1012	2322.879238966684	10.285606304537
10	1021	2345.24593224152	0
10	1026	2353.399464487008	0
10	1038	2372.427930054302	0
10	1051	2398.96845263205	0
10	1056	2404.701489116181	0
10	1061	2415.705450969541	6.811575630029
10	1064	2418.968326914021	0
10	1071	2427.010862944216	0
10	1078	2443.433928593672	0
10	1092	2480.621220096792	0
10	1096	2496.852317827315	0
11	1097	2500	0.0988
12	1097	2500	0.0468

