file 58328 1678560277                                           
version 2
run experiments_hard_game_mode1-1436-20230311-19:44:37-12234
attr configname experiments_hard_game_mode1
attr datetime 20230311-19:44:37
attr experiment experiments_hard_game_mode1
attr inifile omnetpp.ini
attr iterationvars "$0=9.5, $1=6, $2=100"
attr iterationvarsf 9.5,6,100-
attr measurement "$0=9.5, $1=6, $2=100"
attr network Network
attr processid 12234
attr repetition 26
attr replication #26
attr resultdir results
attr runnumber 1436
attr seedset 26
param *.boss.arrival_mean 20
param *.boss.service_mean 9.5
param *.minion.arrival_mean 10
param *.minion.service_mean 6
param *.player.recover_rate_x 100
param **.minion.arrival_distribution 0
param **.minion.service_distribution 0
param **.boss.arrival_distribution 0
param **.boss.service_distribution 0

vector 0 Network.player minion_jobs_number_stat:vector ETV
attr source signal_minion_jobs_number
vector 1 Network.player minion_jobs_queue_number_stat:vector ETV
attr source signal_minion_jobs_queue_number
vector 2 Network.player minion_defeated_stat:vector ETV
attr source signal_minion_defeated
vector 3 Network.player minion_response_time_stat:vector ETV
attr source signal_minion_response_time
vector 4 Network.player minion_waiting_time_stat:vector ETV
attr source signal_minion_waiting_time
vector 5 Network.player boss_jobs_number_stat:vector ETV
attr source signal_boss_jobs_number
vector 6 Network.player boss_jobs_queue_number_stat:vector ETV
attr source signal_boss_jobs_queue_number
vector 7 Network.player minion_recovered_stat:vector ETV
attr source signal_minion_recovered
vector 8 Network.player boss_waiting_time_stat:vector ETV
attr source signal_boss_waiting_time
vector 9 Network.player boss_defeated_stat:vector ETV
attr source signal_boss_defeated
vector 10 Network.player boss_response_time_stat:vector ETV
attr source signal_boss_response_time
vector 11 Network.player minion_throughput:vector ETV
attr source signal_minion_throughput
vector 12 Network.player boss_throughput:vector ETV
attr source signal_boss_throughput
0	2023 6193 128 1070 353.474320604805 2481.059061575314 234 1 84 8621 453301
1	8216 10596 128 1075 353.474320604805 2499.790570515222 400 0 83 14292 755796
2	18812 4522 129 1075 353.727058868405 2499.790570515222 166 30 195 18675 2482115
3	23334 6564 129 1075 353.727058868405 2499.790570515222 166 3.711774915732 725.91969027133 47989.14429585 22422133.901934
4	29898 8498 129 1075 353.727058868405 2499.790570515222 216 0 722.06222686009 62108.555383855 28957911.370018
5	38396 2702 133 1073 360.864535828211 2497.285207450237 105 1 8 248 924
6	41098 5396 133 1074 360.864535828211 2498.3952084096 210 0 7 286 1066
7	46494 1335 133 1073 360.864535828211 2497.285207450237 50 8 57 1625 63225
8	47829 3431 133 1073 360.864535828211 2497.285207450237 105 0 88.313593646353 1678.9132253843 83444.785495608
9	51260 2816 134 1074 361.030127711124 2498.3952084096 105 12 116 6720 526540
10	54076 4212 134 1074 361.030127711124 2498.3952084096 105 0.165591882913 95.390768459539 2730.1235212268 141930.81846997
11	58288 19 1076 1076 2500 2500 1 0.078 0.078 0.078 0.006084
12	58307 20 1076 1076 2500 2500 1 0.0464 0.0464 0.0464 0.00215296

