version 2
run experiments_hard_game_mode1-524-20230311-19:41:13-7315
attr configname experiments_hard_game_mode1
attr datetime 20230311-19:41:13
attr experiment experiments_hard_game_mode1
attr inifile omnetpp.ini
attr iterationvars "$0=8, $1=6, $2=100"
attr iterationvarsf 8,6,100-
attr measurement "$0=8, $1=6, $2=100"
attr network Network
attr processid 7315
attr repetition 14
attr replication #14
attr resultdir results
attr runnumber 524
attr seedset 14
param *.boss.arrival_mean 20
param *.boss.service_mean 8
param *.minion.arrival_mean 10
param *.minion.service_mean 6
param *.player.recover_rate_x 100
param **.minion.arrival_distribution 0
param **.minion.service_distribution 0
param **.boss.arrival_distribution 0
param **.boss.service_distribution 0

vector 0 Network.player minion_jobs_number_stat:vector ETV
attr source signal_minion_jobs_number
vector 1 Network.player minion_jobs_queue_number_stat:vector ETV
attr source signal_minion_jobs_queue_number
vector 2 Network.player boss_defeated_stat:vector ETV
attr source signal_boss_defeated
vector 3 Network.player boss_jobs_queue_number_stat:vector ETV
attr source signal_boss_jobs_queue_number
vector 4 Network.player boss_response_time_stat:vector ETV
attr source signal_boss_response_time
vector 5 Network.player minion_waiting_time_stat:vector ETV
attr source signal_minion_waiting_time
vector 6 Network.player boss_jobs_number_stat:vector ETV
attr source signal_boss_jobs_number
vector 7 Network.player minion_recovered_stat:vector ETV
attr source signal_minion_recovered
vector 8 Network.player boss_waiting_time_stat:vector ETV
attr source signal_boss_waiting_time
vector 9 Network.player minion_defeated_stat:vector ETV
attr source signal_minion_defeated
vector 10 Network.player minion_response_time_stat:vector ETV
attr source signal_minion_response_time
vector 11 Network.player minion_throughput:vector ETV
attr source signal_minion_throughput
vector 12 Network.player boss_throughput:vector ETV
attr source signal_boss_throughput
0	146	355.033945535691	6
0	151	360.847648264445	7
0	154	365.819027899354	8
0	157	387.095718742011	8
0	168	398.088058073479	5
0	171	411.419678450139	6
0	173	413.093427385525	7
0	178	425.563623459991	5
0	181	437.666459119456	5
0	183	438.029696684342	6
0	186	447.815078122995	6
0	188	448.014362986578	7
0	191	460.719474807882	7
0	195	464.691421886986	6
0	199	468.31375369647	7
0	205	476.592355171942	8
0	209	480.99996210736	7
0	213	494.693038600887	6
0	219	510.591329069228	5
0	225	523.668671067401	3
0	227	527.598294093744	4
0	236	573.842969895357	4
0	239	578.455437527969	4
0	245	611.555413684417	1
0	250	615.939352714958	1
0	255	623.928771261495	2
0	260	640.673975379459	1
0	271	685.122935878473	1
0	273	687.110961404252	2
0	278	694.229259922791	1
0	281	701.444758777024	1
0	284	705.749087531437	1
0	290	725.2216939068	1
0	293	752.004625109296	1
0	295	755.485935073437	2
0	299	757.769784631013	1
0	311	800.144084995374	1
0	313	805.271801913546	2
0	318	807.820099495089	3
0	321	814.210414154197	3
0	325	816.643396720179	4
0	327	818.126394379828	5
0	337	834.316834260483	6
0	339	847.234050476089	7
0	342	851.786460812176	8
0	348	860.598996821791	9
0	352	894.948001405393	8
0	354	896.650259971945	9
0	366	934.819959063106	8
0	376	950.241304898061	8
0	379	958.062632827699	8
0	381	959.86991923007	9
0	386	976.77582752251	7
0	390	990.414800602808	6
0	397	1002.459897149837	5
0	399	1005.460868939708	6
0	401	1006.451086213564	7
0	409	1020.40415877667	5
0	414	1030.872134027189	6
0	416	1032.252396590645	7
0	418	1033.053287518108	8
0	420	1033.310784231591	9
0	422	1033.610600588183	10
0	425	1035.553503453612	10
0	429	1041.240048900413	11
0	435	1075.493779429228	9
0	437	1082.115014041595	10
0	440	1085.432242173332	10
0	444	1092.014265008028	9
0	450	1109.518560920317	6
0	452	1114.688937990352	7
0	455	1119.343587080697	7
0	458	1124.314779321839	7
0	464	1130.644362471608	7
0	477	1143.781660615884	7
0	479	1145.868995392401	8
0	481	1153.73048230477	9
0	483	1155.387906672459	10
0	486	1160.734199300354	11
0	488	1160.750637223976	12
0	490	1161.396249084582	13
0	495	1167.5326024227	14
0	497	1167.598052850385	15
0	499	1167.993915492425	16
0	501	1173.20143576488	17
0	506	1186.418747567496	16
0	508	1189.947228181589	17
0	511	1201.319841001969	17
0	518	1216.520669937629	18
0	520	1218.100005335566	19
0	525	1226.703128561465	18
0	532	1234.366186994145	17
0	534	1236.615598461658	18
0	545	1269.362910494722	19
0	550	1283.054924494812	19
0	555	1296.441175643018	20
0	558	1297.069316463925	21
0	565	1324.647391818103	22
0	577	1374.056657797941	19
0	581	1378.022606618429	20
0	588	1398.933525870826	21
0	601	1417.818834180346	19
0	603	1418.731874372363	20
0	610	1439.388948369657	21
0	615	1447.509081999705	21
0	617	1449.142914548495	22
0	621	1456.225271383588	23
0	623	1456.400941635302	24
0	625	1461.965053672528	25
0	627	1467.67103100862	26
0	632	1474.515807855272	27
0	635	1479.677835639554	28
0	649	1554.358948512642	25
0	651	1558.420695990465	26
0	656	1562.464946648262	27
0	658	1562.828090074808	28
0	660	1572.194378599458	29
0	662	1574.705130952569	30
0	668	1594.176936871932	28
0	672	1598.708315021286	29
0	681	1613.903273049395	30
0	683	1621.40366481471	31
0	686	1630.241630788371	31
0	692	1644.260086479798	28
0	701	1669.832094513945	22
0	704	1681.611071161843	22
0	715	1713.472986293194	18
0	718	1714.640646851212	19
0	720	1721.30860318063	20
0	737	1766.226882172695	18
0	741	1779.98537330806	19
0	750	1807.823965274978	17
0	756	1819.60630046076	17
0	761	1826.548979276419	18
0	763	1826.651877243888	19
0	768	1838.134966215622	18
0	772	1847.293015477357	19
0	774	1853.976238258592	20
0	777	1855.10675154571	21
0	779	1857.631578485873	22
0	781	1860.606685251931	23
0	783	1865.691340515226	24
0	788	1880.814585492101	25
0	792	1887.931572451922	26
0	797	1903.497259501524	25
0	808	1937.445960383169	21
0	810	1938.859698529189	22
0	813	1941.176329864383	23
0	815	1943.536124637245	24
0	820	1950.784732485768	23
0	828	1967.794394560158	23
0	832	1976.287166789391	23
0	836	1985.897270703852	22
0	844	2007.719498988818	17
0	846	2010.177268959809	18
0	852	2021.901711754506	18
0	855	2031.30342569397	18
0	857	2037.136179608095	19
0	859	2040.809530510809	20
0	862	2053.674137517185	20
0	866	2059.816619114803	21
0	868	2060.448777503511	22
0	870	2063.058595777536	23
0	872	2063.394189174223	24
0	875	2072.07663982243	25
0	877	2072.759239173926	26
0	880	2083.275534212787	26
0	886	2122.161339140629	23
0	896	2140.78073805428	19
0	901	2163.337331253465	19
0	907	2177.74862608756	20
0	912	2189.633811910056	21
0	914	2193.770199773401	22
0	916	2194.819181776313	23
0	918	2195.465914992879	24
0	920	2211.311766695371	25
0	922	2215.304386083665	26
0	925	2226.004219507096	26
0	932	2251.224778920485	22
0	934	2254.497456116578	23
0	936	2256.847869803007	24
0	938	2257.714496912013	25
0	944	2273.201925482636	25
0	947	2280.192910292888	25
0	950	2284.721547061188	25
0	952	2287.575491926138	26
0	954	2287.868131191911	27
0	957	2296.617862611394	27
0	965	2325.974203586855	28
0	970	2334.310906074741	28
0	972	2334.384825843069	29
0	974	2343.657463510586	30
0	979	2365.52260337468	31
0	987	2377.755021187577	32
0	993	2398.406299735043	30
0	996	2410.564342124642	30
0	998	2410.626546255374	31
0	1002	2413.549859208002	32
0	1004	2418.857725134264	33
0	1016	2458.946133014052	28
0	1018	2459.312248017999	29
0	1021	2463.17615093269	29
0	1026	2469.069714972963	30
0	1031	2478.484167057322	28
0	1037	2491.184429780078	25
0	1039	2493.000563500548	26
1	146	355.033945535691	5
1	151	360.847648264445	6
1	154	365.819027899354	7
1	155	376.555438024986	7
1	157	387.095718742011	7
1	158	387.477712465089	7
1	159	388.114124781208	6
1	160	389.087527827927	5
1	164	395.797942852654	4
1	168	398.088058073479	4
1	171	411.419678450139	5
1	173	413.093427385525	6
1	174	414.195384973055	6
1	175	415.248558322009	5
1	176	419.338972065986	4
1	178	425.563623459991	4
1	179	435.065681937093	4
1	181	437.666459119456	4
1	183	438.029696684342	5
1	184	439.053557233949	5
1	186	447.815078122995	5
1	188	448.014362986578	6
1	189	451.510758660928	6
1	191	460.719474807882	6
1	192	463.187858286031	6
1	193	463.509276037684	5
1	195	464.691421886986	5
1	199	468.31375369647	6
1	205	476.592355171942	7
1	206	479.181721137613	7
1	207	479.848298141342	6
1	209	480.99996210736	6
1	210	490.764216462087	6
1	211	493.849101801535	5
1	213	494.693038600887	5
1	214	494.866100972036	5
1	215	502.651948444133	4
1	219	510.591329069228	4
1	221	514.852641362062	4
1	222	515.649852091245	3
1	223	515.766129775187	2
1	225	523.668671067401	2
1	227	527.598294093744	3
1	228	544.3354849676	3
1	236	573.842969895357	3
1	237	574.354057520773	3
1	239	578.455437527969	3
1	240	595.05271383159	3
1	241	605.811085298885	2
1	242	606.065185957458	1
1	243	607.510819245469	0
1	245	611.555413684417	0
1	246	611.668373566861	0
1	250	615.939352714958	0
1	255	623.928771261495	1
1	257	632.892086655458	1
1	258	633.411566102885	0
1	260	640.673975379459	0
1	261	653.760388966967	0
1	271	685.122935878473	0
1	273	687.110961404252	1
1	275	691.594257620721	1
1	276	691.616844035198	0
1	278	694.229259922791	0
1	279	697.592945620322	0
1	281	701.444758777024	0
1	282	701.496145062952	0
1	284	705.749087531437	0
1	285	705.868653035623	0
1	290	725.2216939068	0
1	291	740.376404719845	0
1	293	752.004625109296	0
1	295	755.485935073437	1
1	296	755.720302870465	1
1	297	757.067112874417	0
1	299	757.769784631013	0
1	306	768.111070241374	0
1	311	800.144084995374	0
1	313	805.271801913546	1
1	318	807.820099495089	2
1	319	813.730392350692	2
1	321	814.210414154197	2
1	325	816.643396720179	3
1	327	818.126394379828	4
1	337	834.316834260483	5
1	339	847.234050476089	6
1	342	851.786460812176	7
1	348	860.598996821791	8
1	349	868.9304553452	8
1	350	887.347860094752	7
1	352	894.948001405393	7
1	354	896.650259971945	8
1	355	901.550247157286	8
1	356	902.074848455458	7
1	366	934.819959063106	7
1	374	949.956007117517	7
1	376	950.241304898061	7
1	377	954.959000046749	7
1	379	958.062632827699	7
1	381	959.86991923007	8
1	382	964.229538005795	8
1	383	967.839563538569	7
1	384	974.383858815464	6
1	386	976.77582752251	6
1	387	977.07051899096	6
1	388	989.967584150096	5
1	390	990.414800602808	5
1	391	993.840098673302	5
1	395	1002.18416782159	4
1	397	1002.459897149837	4
1	399	1005.460868939708	5
1	401	1006.451086213564	6
1	402	1006.900849285731	6
1	403	1007.779364242886	5
1	404	1009.099290999007	4
1	409	1020.40415877667	4
1	414	1030.872134027189	5
1	416	1032.252396590645	6
1	418	1033.053287518108	7
1	420	1033.310784231591	8
1	422	1033.610600588183	9
1	423	1033.957827353279	9
1	425	1035.553503453612	9
1	429	1041.240048900413	10
1	431	1053.942145094385	10
1	432	1058.189152013812	9
1	433	1060.984661240129	8
1	435	1075.493779429228	8
1	437	1082.115014041595	9
1	438	1084.092369000502	9
1	440	1085.432242173332	9
1	441	1086.041409093484	9
1	442	1090.249610475495	8
1	444	1092.014265008028	8
1	445	1096.87408983172	8
1	446	1099.849116107895	7
1	447	1107.735355076594	6
1	448	1108.451753163298	5
1	450	1109.518560920317	5
1	452	1114.688937990352	6
1	453	1115.07292003028	6
1	455	1119.343587080697	6
1	456	1122.152778296466	6
1	458	1124.314779321839	6
1	459	1124.617587825625	6
1	464	1130.644362471608	6
1	468	1134.668163427848	6
1	477	1143.781660615884	6
1	479	1145.868995392401	7
1	481	1153.73048230477	8
1	483	1155.387906672459	9
1	486	1160.734199300354	10
1	488	1160.750637223976	11
1	490	1161.396249084582	12
1	495	1167.5326024227	13
1	497	1167.598052850385	14
1	499	1167.993915492425	15
1	501	1173.20143576488	16
1	503	1181.214737371404	16
1	504	1183.429032236691	15
1	506	1186.418747567496	15
1	508	1189.947228181589	16
1	509	1195.715583629112	16
1	511	1201.319841001969	16
1	518	1216.520669937629	17
1	520	1218.100005335566	18
1	522	1225.088694597058	18
1	523	1226.333031233154	17
1	525	1226.703128561465	17
1	529	1231.670881372753	17
1	530	1233.681906778782	16
1	532	1234.366186994145	16
1	534	1236.615598461658	17
1	545	1269.362910494722	18
1	546	1271.335759191869	18
1	550	1283.054924494812	18
1	555	1296.441175643018	19
1	558	1297.069316463925	20
1	565	1324.647391818103	21
1	567	1327.182175800059	21
1	568	1333.33404751528	20
1	572	1363.548985293229	19
1	573	1363.595661266299	18
1	577	1374.056657797941	18
1	581	1378.022606618429	19
1	588	1398.933525870826	20
1	592	1406.467004084534	20
1	593	1407.334165097567	19
1	597	1415.443632680754	18
1	601	1417.818834180346	18
1	603	1418.731874372363	19
1	610	1439.388948369657	20
1	613	1446.734825368118	20
1	615	1447.509081999705	20
1	617	1449.142914548495	21
1	621	1456.225271383588	22
1	623	1456.400941635302	23
1	625	1461.965053672528	24
1	627	1467.67103100862	25
1	632	1474.515807855272	26
1	635	1479.677835639554	27
1	636	1481.801887670632	27
1	640	1524.55589045685	26
1	644	1548.948271540512	25
1	645	1549.622166674563	24
1	649	1554.358948512642	24
1	651	1558.420695990465	25
1	656	1562.464946648262	26
1	658	1562.828090074808	27
1	660	1572.194378599458	28
1	662	1574.705130952569	29
1	664	1580.954227285196	29
1	665	1587.053274189043	28
1	666	1590.0889597052	27
1	668	1594.176936871932	27
1	672	1598.708315021286	28
1	681	1613.903273049395	29
1	683	1621.40366481471	30
1	684	1627.426841800598	30
1	686	1630.241630788371	30
1	687	1630.331164190329	30
1	688	1633.932116665235	29
1	689	1637.579236999818	28
1	690	1638.500962433838	27
1	692	1644.260086479798	27
1	693	1645.547510054494	27
1	694	1648.228795985578	26
1	695	1655.605727404698	25
1	696	1660.131382701985	24
1	697	1661.684593829519	23
1	698	1664.534778462373	22
1	699	1665.254824973301	21
1	701	1669.832094513945	21
1	702	1670.480659439519	21
1	704	1681.611071161843	21
1	705	1685.237165095938	21
1	706	1686.752729624331	20
1	707	1692.687614932465	19
1	708	1700.111297884399	18
1	709	1705.525011364886	17
1	715	1713.472986293194	17
1	718	1714.640646851212	18
1	720	1721.30860318063	19
1	725	1742.290751509947	19
1	726	1742.993703812706	18
1	733	1755.689367205563	17
1	737	1766.226882172695	17
1	741	1779.98537330806	18
1	744	1793.931407144959	18
1	745	1800.707380227961	17
1	746	1802.939311647173	16
1	750	1807.823965274978	16
1	752	1811.481389189234	16
1	756	1819.60630046076	16
1	761	1826.548979276419	17
1	763	1826.651877243888	18
1	765	1831.594074876075	18
1	766	1832.198272072831	17
1	768	1838.134966215622	17
1	772	1847.293015477357	18
1	774	1853.976238258592	19
1	777	1855.10675154571	20
1	779	1857.631578485873	21
1	781	1860.606685251931	22
1	783	1865.691340515226	23
1	788	1880.814585492101	24
1	792	1887.931572451922	25
1	794	1901.801399635536	25
1	795	1903.079296992469	24
1	797	1903.497259501524	24
1	798	1903.790555265963	24
1	799	1909.662349130446	23
1	800	1913.493575195409	22
1	801	1920.312596826068	21
1	802	1921.943716812564	20
1	808	1937.445960383169	20
1	810	1938.859698529189	21
1	813	1941.176329864383	22
1	815	1943.536124637245	23
1	817	1947.548363061911	23
1	818	1947.818251979375	22
1	820	1950.784732485768	22
1	821	1953.615186636924	22
1	828	1967.794394560158	22
1	830	1973.109645418025	22
1	832	1976.287166789391	22
1	833	1978.040113990036	22
1	834	1979.354869747795	21
1	836	1985.897270703852	21
1	837	1986.255964646748	21
1	838	1991.976523842337	20
1	839	2003.500524988523	19
1	840	2004.360311795649	18
1	841	2006.552969601442	17
1	842	2006.920796477169	16
1	844	2007.719498988818	16
1	846	2010.177268959809	17
1	847	2011.717602442078	17
1	852	2021.901711754506	17
1	853	2029.983846236938	17
1	855	2031.30342569397	17
1	857	2037.136179608095	18
1	859	2040.809530510809	19
1	860	2052.792897352113	19
1	862	2053.674137517185	19
1	866	2059.816619114803	20
1	868	2060.448777503511	21
1	870	2063.058595777536	22
1	872	2063.394189174223	23
1	875	2072.07663982243	24
1	877	2072.759239173926	25
1	878	2082.744810307246	25
1	880	2083.275534212787	25
1	881	2095.240843409039	25
1	882	2108.262627215754	24
1	883	2118.179247997128	23
1	884	2121.785583954539	22
1	886	2122.161339140629	22
1	887	2123.210469460415	22
1	888	2124.323778525942	21
1	889	2130.221536599568	20
1	893	2135.373783091951	19
1	894	2136.501348707607	18
1	896	2140.78073805428	18
1	897	2141.154675210857	18
1	901	2163.337331253465	18
1	907	2177.74862608756	19
1	912	2189.633811910056	20
1	914	2193.770199773401	21
1	916	2194.819181776313	22
1	918	2195.465914992879	23
1	920	2211.311766695371	24
1	922	2215.304386083665	25
1	923	2218.905051303232	25
1	925	2226.004219507096	25
1	926	2227.496548363611	25
1	927	2227.753757198847	24
1	928	2240.961114606887	23
1	929	2243.680845837487	22
1	930	2248.714010979704	21
1	932	2251.224778920485	21
1	934	2254.497456116578	22
1	936	2256.847869803007	23
1	938	2257.714496912013	24
1	942	2272.290898336633	24
1	944	2273.201925482636	24
1	945	2276.150620481579	24
1	947	2280.192910292888	24
1	948	2281.797901036274	24
1	950	2284.721547061188	24
1	952	2287.575491926138	25
1	954	2287.868131191911	26
1	955	2290.458737472185	26
1	957	2296.617862611394	26
1	965	2325.974203586855	27
1	966	2328.211607120137	27
1	970	2334.310906074741	27
1	972	2334.384825843069	28
1	974	2343.657463510586	29
1	979	2365.52260337468	30
1	987	2377.755021187577	31
1	989	2379.318831817886	31
1	990	2381.143675677461	30
1	991	2390.70445488124	29
1	993	2398.406299735043	29
1	994	2406.242486249038	29
1	996	2410.564342124642	29
1	998	2410.626546255374	30
1	1002	2413.549859208002	31
1	1004	2418.857725134264	32
1	1006	2425.193641901423	32
1	1007	2430.402718296764	31
1	1008	2434.733791854254	30
1	1009	2437.501794547612	29
1	1013	2449.060168141174	28
1	1014	2449.795996912555	27
1	1016	2458.946133014052	27
1	1018	2459.312248017999	28
1	1019	2461.527273227859	28
1	1021	2463.17615093269	28
1	1026	2469.069714972963	29
1	1027	2470.372174319507	29
1	1028	2471.184103830895	28
1	1029	2474.51115838505	27
1	1031	2478.484167057322	27
1	1032	2478.715563396892	27
1	1033	2480.14342586261	26
1	1034	2488.089555367179	25
1	1035	2490.736293404074	24
1	1037	2491.184429780078	24
1	1039	2493.000563500548	25
2	147	355.241223634241	15
2	152	363.239011721531	16
2	163	393.033203587324	17
2	169	410.692258881923	18
2	200	473.644404859693	19
2	203	475.833149691272	20
2	220	514.405356739846	21
2	233	562.453751800604	22
2	234	566.688037009891	23
2	253	623.191511092201	24
2	256	627.312099541489	25
2	266	678.685461427426	26
2	269	683.470515221801	27
2	274	689.615690515733	28
2	288	714.608894793642	29
2	302	759.817545969386	30
2	305	766.861027668212	31
2	309	785.87410502079	32
2	316	807.022816747134	33
2	332	824.902289751798	34
2	335	830.026579200051	35
2	340	851.083885732361	36
2	343	852.05081580279	37
2	346	859.364167387599	38
2	359	914.179292777793	39
2	364	925.602591041102	40
2	369	940.174323361731	41
2	372	944.740775336826	42
2	373	947.75665286658	43
2	394	1001.530267362835	44
2	407	1016.786379208392	45
2	412	1029.315465836742	46
2	430	1050.275749007439	47
2	462	1129.60521176703	48
2	467	1133.357452521799	49
2	471	1137.894775993113	50
2	484	1160.517536994352	51
2	491	1163.333874180257	52
2	502	1179.749050050727	53
2	516	1215.467426345455	54
2	521	1218.735138489658	55
2	528	1230.83994905036	56
2	537	1242.051738519098	57
2	542	1261.889839991447	58
2	543	1263.905622203034	59
2	553	1292.058577050721	60
2	556	1296.61537501907	61
2	563	1318.4643918808	62
2	566	1326.735845411063	63
2	571	1361.527223215639	64
2	584	1391.440939136804	65
2	585	1392.556154076201	66
2	586	1397.187451369063	67
2	591	1403.594132727748	68
2	596	1413.157870511644	69
2	606	1433.406246963733	70
2	611	1441.584526572314	71
2	612	1445.915609763127	72
2	628	1471.141178973551	73
2	633	1475.558430272803	74
2	639	1498.185568176779	75
2	643	1543.625361811914	76
2	654	1560.035198091155	77
2	663	1574.734576722752	78
2	673	1600.366801318437	79
2	678	1612.634989603765	80
2	679	1613.83348068022	81
2	716	1713.568741858552	82
2	723	1735.48250514609	83
2	724	1740.227320640178	84
2	729	1751.314273445611	85
2	732	1754.857353662978	86
2	742	1782.299245533172	87
2	743	1793.685563174693	88
2	751	1809.685054631676	89
2	757	1824.012054464344	90
2	764	1828.396241153584	91
2	775	1854.231996152983	92
2	786	1874.207771741241	93
2	793	1899.587067630593	94
2	811	1938.984358399633	95
2	816	1945.746120174648	96
2	826	1967.424394330805	97
2	829	1972.320390754149	98
2	850	2018.885696712816	99
2	873	2068.681864178905	100
2	892	2133.265601876545	101
2	908	2181.97212192545	102
2	909	2183.761156295915	103
2	910	2188.273990060444	104
2	941	2266.162633896398	105
2	962	2308.416751568166	106
2	963	2318.035693203323	107
2	977	2353.235430049996	108
2	984	2373.738293488774	109
2	985	2375.020438316033	110
2	988	2378.356938984477	111
2	1005	2419.775383929667	112
2	1012	2448.176122026289	113
2	1024	2468.419358098661	114
3	147	355.241223634241	0
3	149	357.206506079018	0
3	152	363.239011721531	0
3	162	391.047324288703	0
3	163	393.033203587324	0
3	166	395.908292557247	0
3	169	410.692258881923	0
3	197	465.277290456284	0
3	200	473.644404859693	0
3	202	475.393105182559	0
3	203	475.833149691272	0
3	217	506.499791779649	0
3	220	514.405356739846	0
3	230	552.180011467169	0
3	232	561.762733894234	1
3	233	562.453751800604	1
3	234	566.688037009891	0
3	248	615.348425057337	0
3	252	618.900269317537	1
3	253	623.191511092201	1
3	256	627.312099541489	0
3	263	659.041663215175	0
3	265	674.896049565265	1
3	266	678.685461427426	1
3	268	682.19995766715	1
3	269	683.470515221801	1
3	274	689.615690515733	0
3	287	712.477119971921	0
3	288	714.608894793642	0
3	301	758.572252174628	0
3	302	759.817545969386	0
3	304	765.706999917469	0
3	305	766.861027668212	0
3	308	784.978755077148	0
3	309	785.87410502079	0
3	315	806.137931290683	0
3	316	807.022816747134	0
3	323	814.592706334832	0
3	329	821.626426792798	1
3	331	824.836198466085	2
3	332	824.902289751798	2
3	334	825.499667755023	2
3	335	830.026579200051	2
3	340	851.083885732361	1
3	343	852.05081580279	0
3	345	852.060948218651	0
3	346	859.364167387599	0
3	358	911.483787810045	0
3	359	914.179292777793	0
3	361	917.070564889174	0
3	363	920.385567146477	1
3	364	925.602591041102	1
3	368	935.754445185036	1
3	369	940.174323361731	1
3	371	942.293628006038	1
3	372	944.740775336826	1
3	373	947.75665286658	0
3	393	999.060599541854	0
3	394	1001.530267362835	0
3	406	1016.150775054257	0
3	407	1016.786379208392	0
3	411	1022.394637542636	0
3	412	1029.315465836742	0
3	427	1038.538246586789	0
3	430	1050.275749007439	0
3	461	1129.314636342715	0
3	462	1129.60521176703	0
3	466	1130.970527845427	0
3	467	1133.357452521799	0
3	470	1135.120469468102	0
3	471	1137.894775993113	0
3	473	1138.721968208374	0
3	475	1140.538363023018	1
3	484	1160.517536994352	1
3	491	1163.333874180257	0
3	493	1166.545317567146	0
3	502	1179.749050050727	0
3	513	1212.235030563073	0
3	515	1214.859992130296	1
3	516	1215.467426345455	1
3	521	1218.735138489658	0
3	527	1227.485883194672	0
3	528	1230.83994905036	0
3	536	1236.643816917823	0
3	537	1242.051738519098	0
3	539	1245.185824588694	0
3	541	1245.473148778668	1
3	542	1261.889839991447	1
3	543	1263.905622203034	0
3	548	1272.319734415131	0
3	552	1286.83813706964	1
3	553	1292.058577050721	1
3	556	1296.61537501907	0
3	560	1305.235701771402	0
3	562	1310.732245537385	1
3	563	1318.4643918808	1
3	566	1326.735845411063	0
3	570	1351.241493944332	0
3	571	1361.527223215639	0
3	575	1365.328541869756	0
3	579	1375.741575967684	1
3	583	1385.026190838092	2
3	584	1391.440939136804	2
3	585	1392.556154076201	1
3	586	1397.187451369063	0
3	590	1399.267833290923	0
3	591	1403.594132727748	0
3	595	1408.531804252156	0
3	596	1413.157870511644	0
3	599	1416.866283432641	0
3	605	1427.924704791414	1
3	606	1433.406246963733	1
3	608	1434.313057492983	1
3	611	1441.584526572314	1
3	612	1445.915609763127	0
3	619	1451.59723784495	0
3	628	1471.141178973551	0
3	630	1473.378666856534	0
3	633	1475.558430272803	0
3	638	1491.689037357241	0
3	639	1498.185568176779	0
3	642	1538.272590616996	0
3	643	1543.625361811914	0
3	647	1553.901690264833	0
3	653	1558.54260141757	1
3	654	1560.035198091155	1
3	663	1574.734576722752	0
3	670	1595.681554309851	0
3	673	1600.366801318437	0
3	675	1603.998637226888	0
3	677	1610.690213821691	1
3	678	1612.634989603765	1
3	679	1613.83348068022	0
3	711	1706.356756001619	0
3	713	1708.08451424638	1
3	716	1713.568741858552	1
3	722	1721.710537312419	1
3	723	1735.48250514609	1
3	724	1740.227320640178	0
3	728	1743.189173685306	0
3	729	1751.314273445611	0
3	731	1753.349503705846	0
3	732	1754.857353662978	0
3	735	1758.340419657439	0
3	739	1770.084095394452	1
3	742	1782.299245533172	1
3	743	1793.685563174693	0
3	748	1804.85575399758	0
3	751	1809.685054631676	0
3	754	1814.320946502234	0
3	757	1824.012054464344	0
3	759	1824.452226560445	0
3	764	1828.396241153584	0
3	770	1844.071205200833	0
3	775	1854.231996152983	0
3	785	1866.574068671975	0
3	786	1874.207771741241	0
3	790	1882.268336137148	0
3	793	1899.587067630593	0
3	804	1930.068896973113	0
3	806	1932.893391889637	1
3	811	1938.984358399633	1
3	816	1945.746120174648	0
3	823	1955.889998953772	0
3	825	1959.222495235312	1
3	826	1967.424394330805	1
3	829	1972.320390754149	0
3	849	2015.913112375529	0
3	850	2018.885696712816	0
3	864	2059.313257916285	0
3	873	2068.681864178905	0
3	891	2130.479222310669	0
3	892	2133.265601876545	0
3	899	2152.854575283436	0
3	903	2170.102954966602	1
3	905	2172.239960610976	2
3	908	2181.97212192545	2
3	909	2183.761156295915	1
3	910	2188.273990060444	0
3	940	2263.481900039759	0
3	941	2266.162633896398	0
3	959	2300.279199629124	0
3	961	2306.50332956852	1
3	962	2308.416751568166	1
3	963	2318.035693203323	0
3	968	2330.823323660804	0
3	976	2347.179264871828	1
3	977	2353.235430049996	1
3	981	2366.470211685635	1
3	983	2366.72911705343	2
3	984	2373.738293488774	2
3	985	2375.020438316033	1
3	988	2378.356938984477	0
3	1000	2410.9013658636	0
3	1005	2419.775383929667	0
3	1011	2438.53470917593	0
3	1012	2448.176122026289	0
3	1023	2464.141668652333	0
3	1024	2468.419358098661	0
4	147	355.241223634241	6.640544862674
4	152	363.239011721531	6.032505642513
4	163	393.033203587324	1.985879298621
4	169	410.692258881923	14.783966324676
4	200	473.644404859693	8.367114403409
4	203	475.833149691272	0.440044508713
4	220	514.405356739846	7.905564960197
4	233	562.453751800604	10.273740333435
4	234	566.688037009891	4.925303115657
4	253	623.191511092201	7.843086034864
4	256	627.312099541489	8.411830223952
4	266	678.685461427426	19.643798212251
4	269	683.470515221801	8.574465656536
4	274	689.615690515733	7.415732848583
4	288	714.608894793642	2.131774821721
4	302	759.817545969386	1.245293794758
4	305	766.861027668212	1.154027750743
4	309	785.87410502079	0.895349943642
4	316	807.022816747134	0.884885456451
4	332	824.902289751798	10.309583416966
4	335	830.026579200051	8.400152407253
4	340	851.083885732361	26.247687266276
4	343	852.05081580279	26.551148047767
4	346	859.364167387599	7.303219168948
4	359	914.179292777793	2.695504967748
4	364	925.602591041102	8.532026151928
4	369	940.174323361731	19.788756215254
4	372	944.740775336826	8.98633015179
4	373	947.75665286658	5.463024860542
4	394	1001.530267362835	2.469667820981
4	407	1016.786379208392	0.635604154135
4	412	1029.315465836742	6.920828294106
4	430	1050.275749007439	11.73750242065
4	462	1129.60521176703	0.290575424315
4	467	1133.357452521799	2.386924676372
4	471	1137.894775993113	2.774306525011
4	484	1160.517536994352	21.795568785978
4	491	1163.333874180257	22.795511157239
4	502	1179.749050050727	13.203732483581
4	516	1215.467426345455	3.232395782382
4	521	1218.735138489658	3.875146359362
4	528	1230.83994905036	3.354065855688
4	537	1242.051738519098	5.407921601275
4	542	1261.889839991447	16.704015402753
4	543	1263.905622203034	18.432473424366
4	553	1292.058577050721	19.73884263559
4	556	1296.61537501907	9.77723794943
4	563	1318.4643918808	13.228690109398
4	566	1326.735845411063	16.003599873678
4	571	1361.527223215639	10.285729271307
4	584	1391.440939136804	26.112397267048
4	585	1392.556154076201	16.814578108517
4	586	1397.187451369063	12.161260530971
4	591	1403.594132727748	4.326299436825
4	596	1413.157870511644	4.626066259488
4	606	1433.406246963733	16.539963531092
4	611	1441.584526572314	13.6598217809
4	612	1445.915609763127	11.602552270144
4	628	1471.141178973551	19.543941128601
4	633	1475.558430272803	2.179763416269
4	639	1498.185568176779	6.496530819538
4	643	1543.625361811914	5.352771194918
4	654	1560.035198091155	6.133507826322
4	663	1574.734576722752	16.191975305182
4	673	1600.366801318437	4.685247008586
4	678	1612.634989603765	8.636352376877
4	679	1613.83348068022	3.143266858529
4	716	1713.568741858552	7.211985856933
4	723	1735.48250514609	27.39799089971
4	724	1740.227320640178	18.516783327759
4	729	1751.314273445611	8.125099760305
4	732	1754.857353662978	1.507849957132
4	742	1782.299245533172	23.958825875733
4	743	1793.685563174693	23.601467780241
4	751	1809.685054631676	4.829300634096
4	757	1824.012054464344	9.69110796211
4	764	1828.396241153584	3.944014593139
4	775	1854.231996152983	10.16079095215
4	786	1874.207771741241	7.633703069266
4	793	1899.587067630593	17.318731493445
4	811	1938.984358399633	8.91546142652
4	816	1945.746120174648	12.852728285011
4	826	1967.424394330805	11.534395377033
4	829	1972.320390754149	13.097895518837
4	850	2018.885696712816	2.972584337287
4	873	2068.681864178905	9.36860626262
4	892	2133.265601876545	2.786379565876
4	908	2181.97212192545	29.117546642014
4	909	2183.761156295915	13.658201329313
4	910	2188.273990060444	16.034029449468
4	941	2266.162633896398	2.680733856639
4	962	2308.416751568166	8.137551939042
4	963	2318.035693203323	11.532363634803
4	977	2353.235430049996	22.412106389192
4	984	2373.738293488774	26.559028616946
4	985	2375.020438316033	8.550226630398
4	988	2378.356938984477	11.627821931047
4	1005	2419.775383929667	8.874018066067
4	1012	2448.176122026289	9.641412850359
4	1024	2468.419358098661	4.277689446328
5	147	355.241223634241	39.33726868877
5	152	363.239011721531	24.034443321191
5	155	376.555438024986	35.135014318086
5	158	387.477712465089	42.97412277302
5	159	388.114124781208	39.513446009641
5	160	389.087527827927	34.053582292236
5	163	393.033203587324	35.826697508306
5	164	395.797942852654	34.950294588209
5	169	410.692258881923	44.873230982569
5	174	414.195384973055	27.099666231044
5	175	415.248558322009	24.201234033306
5	176	419.338972065986	23.430679508739
5	179	435.065681937093	36.977623863614
5	184	439.053557233949	27.63387878381
5	189	451.510758660928	38.417331275403
5	192	463.187858286031	37.62423482604
5	193	463.509276037684	25.842816918228
5	200	473.644404859693	35.614708175351
5	203	475.833149691272	28.018071568277
5	206	479.181721137613	31.167358151035
5	207	479.848298141342	19.12882333346
5	210	490.764216462087	26.072794575101
5	211	493.849101801535	28.571811345251
5	214	494.866100972036	26.552347275566
5	215	502.651948444133	27.258843261574
5	220	514.405356739846	37.813001567904
5	221	514.852641362062	33.852679254702
5	222	515.649852091245	20.956813490358
5	223	515.766129775187	9.266337995538
5	228	544.3354849676	33.744155898372
5	234	566.688037009891	43.01936594249
5	237	574.354057520773	46.755763427029
5	240	595.05271383159	42.872702364421
5	241	605.811085298885	31.968115403528
5	242	606.065185957458	27.609748429489
5	245	611.555413684417	0
5	256	627.312099541489	11.372746826531
5	257	632.892086655458	8.963315393963
5	260	640.673975379459	0
5	274	689.615690515733	4.49275463726
5	275	691.594257620721	4.483296216469
5	278	694.229259922791	0
5	281	701.444758777024	0
5	284	705.749087531437	0
5	290	725.2216939068	0
5	293	752.004625109296	0
5	296	755.720302870465	0.234367797028
5	299	757.769784631013	0
5	302	759.817545969386	1.245293794758
5	305	766.861027668212	1.154027750743
5	311	800.144084995374	0
5	316	807.022816747134	1.751014833588
5	319	813.730392350692	7.592461060009
5	343	852.05081580279	44.230716307701
5	346	859.364167387599	45.153753233402
5	349	868.9304553452	54.337749010368
5	350	887.347860094752	70.704463374573
5	355	901.550247157286	83.423852777458
5	356	902.074848455458	67.758014194975
5	359	914.179292777793	66.945242301704
5	373	947.75665286658	95.970192054404
5	374	949.956007117517	97.895058898866
5	377	954.959000046749	94.360003224958
5	382	964.229538005795	69.281536600402
5	383	967.839563538569	71.189303566624
5	384	974.383858815464	62.900071005419
5	387	977.07051899096	59.999954101786
5	388	989.967584150096	55.14762508699
5	391	993.840098673302	43.598793775241
5	394	1001.530267362835	43.467634535136
5	395	1002.18416782159	42.31424859152
5	402	1006.900849285731	30.125021763221
5	403	1007.779364242886	17.364563640078
5	404	1009.099290999007	10.038691457153
5	407	1016.786379208392	14.326482058555
5	412	1029.315465836742	23.854596897034
5	423	1033.957827353279	27.506741139715
5	430	1050.275749007439	34.124973953182
5	431	1053.942145094385	33.537986317715
5	432	1058.189152013812	35.794514471176
5	433	1060.984661240129	30.11252721294
5	438	1084.092369000502	51.839972409857
5	441	1086.041409093484	52.988121575376
5	442	1090.249610475495	56.938826243904
5	445	1096.87408983172	63.263489243537
5	446	1099.849116107895	64.295612654283
5	447	1107.735355076594	69.197108489805
5	448	1108.451753163298	67.211704262885
5	453	1115.07292003028	39.579140601052
5	456	1122.152778296466	40.037764254871
5	459	1124.617587825625	39.185345652293
5	462	1129.60521176703	37.590946759002
5	467	1133.357452521799	23.838891601482
5	468	1134.668163427848	19.979225437496
5	471	1137.894775993113	18.551188912416
5	491	1163.333874180257	39.019094858418
5	502	1179.749050050727	50.434413708012
5	503	1181.214737371404	50.570374899796
5	504	1183.429032236691	52.458504391264
5	509	1195.715583629112	60.59511416101
5	521	1218.735138489658	80.013170281284
5	522	1225.088694597058	81.307033981174
5	523	1226.333031233154	80.464035840753
5	528	1230.83994905036	77.10946674559
5	529	1231.670881372753	76.282974700294
5	530	1233.681906778782	72.947707478428
5	537	1242.051738519098	81.301101295122
5	543	1263.905622203034	102.50937311845
5	546	1271.335759191869	104.79044162472
5	556	1296.61537501907	129.08277259637
5	566	1326.735845411063	159.13779256068
5	567	1327.182175800059	159.18826030763
5	568	1333.33404751528	160.1326117504
5	571	1361.527223215639	175.10847564814
5	572	1363.548985293229	173.60175711164
5	573	1363.595661266299	162.27582026433
5	586	1397.187451369063	184.95242080599
5	591	1403.594132727748	187.07346279012
5	592	1406.467004084534	188.36699874897
5	593	1407.334165097567	180.6310365361
5	596	1413.157870511644	185.67198731697
5	597	1415.443632680754	181.07744568661
5	612	1445.915609763127	209.30001130147
5	613	1446.734825368118	210.09100845029
5	628	1471.141178973551	225.95535438486
5	633	1475.558430272803	206.19551977808
5	636	1481.801887670632	209.4821532555
5	639	1498.185568176779	215.13064368197
5	640	1524.55589045685	228.11471481383
5	643	1543.625361811914	246.55604534799
5	644	1548.948271540512	243.71256976911
5	645	1549.622166674563	224.97477485646
5	663	1574.734576722752	223.49308277842
5	664	1580.954227285196	215.62568541544
5	665	1587.053274189043	212.9966163911
5	666	1590.0889597052	212.06635308677
5	673	1600.366801318437	201.43327544761
5	679	1613.83348068022	214.5656473893
5	684	1627.426841800598	218.89503754844
5	687	1630.331164190329	213.46488075769
5	688	1633.932116665235	216.11328248489
5	689	1637.579236999818	218.84736262745
5	690	1638.500962433838	199.11201406418
5	693	1645.547510054494	198.03842805479
5	694	1648.228795985578	199.08588143708
5	695	1655.605727404698	204.00848955975
5	696	1660.131382701985	203.9061113184
5	697	1661.684593829519	205.28365219422
5	698	1664.534778462373	202.56972478984
5	699	1665.254824973301	197.58379396468
5	702	1670.480659439519	197.10199258298
5	705	1685.237165095938	210.72135724067
5	706	1686.752729624331	207.07489398478
5	707	1692.687614932465	200.99857757522
5	708	1700.111297884399	161.8387072674
5	709	1705.525011364886	151.62332110005
5	724	1740.227320640178	185.86837212754
5	725	1742.290751509947	183.87005551948
5	726	1742.993703812706	180.52875716444
5	729	1751.314273445611	188.4861833708
5	732	1754.857353662978	182.66297506352
5	733	1755.689367205563	180.98423625299
5	743	1793.685563174693	199.50862630276
5	744	1793.931407144959	198.24985283511
5	745	1800.707380227961	201.99906520667
5	746	1802.939311647173	198.94067442029
5	751	1809.685054631676	195.78178158228
5	752	1811.481389189234	190.07772437452
5	757	1824.012054464344	193.77042367597
5	764	1828.396241153584	184.13615467379
5	765	1831.594074876075	161.76198036213
5	766	1832.198272072831	150.58720091099
5	775	1854.231996152983	147.87524015136
5	786	1874.207771741241	160.73478544805
5	793	1899.587067630593	184.94642077938
5	794	1901.801399635536	180.49279645491
5	795	1903.079296992469	159.89012330716
5	798	1903.790555265963	150.44105156012
5	799	1909.662349130446	151.32192947301
5	800	1913.493575195409	147.26669302271
5	801	1920.312596826068	140.32722351801
5	802	1921.943716812564	117.08796281498
5	816	1945.746120174648	137.92215489967
5	817	1947.548363061911	133.22741655968
5	818	1947.818251979375	128.21195151861
5	821	1953.615186636924	129.16296007648
5	829	1972.320390754149	145.77141147773
5	830	1973.109645418025	146.45776817414
5	833	1978.040113990036	139.90514777441
5	834	1979.354869747795	135.28366454696
5	837	1986.255964646748	138.96294916939
5	838	1991.976523842337	138.00028558375
5	839	2003.500524988523	148.39377344281
5	840	2004.360311795649	146.72873330978
5	841	2006.552969601442	145.94628434951
5	842	2006.920796477169	141.22945596194
5	847	2011.717602442078	145.1435337701
5	850	2018.885696712816	138.07111122072
5	853	2029.983846236938	147.71551009979
5	860	2052.792897352113	164.86132490019
5	873	2068.681864178905	165.18460467738
5	878	2082.744810307246	152.67591333413
5	881	2095.240843409039	157.79488302587
5	882	2108.262627215754	169.40292868656
5	883	2118.179247997128	177.00291813275
5	884	2121.785583954539	178.24945931729
5	887	2123.210469460415	172.42573697465
5	888	2124.323778525942	168.43377957217
5	889	2130.221536599568	162.42714203941
5	892	2133.265601876545	156.97843508715
5	893	2135.373783091951	149.4765123881
5	894	2136.501348707607	128.78184971879
5	897	2141.154675210857	130.97740625105
5	910	2188.273990060444	172.36087768492
5	923	2218.905051303232	197.00333954873
5	926	2227.496548363611	196.19312266964
5	927	2227.753757198847	190.61757759075
5	928	2240.961114606887	200.15158409608
5	929	2243.680845837487	190.0067083203
5	930	2248.714010979704	189.40075306342
5	941	2266.162633896398	206.34601478159
5	942	2272.290898336633	211.84212083312
5	945	2276.150620481579	213.09202470404
5	948	2281.797901036274	218.40371186205
5	955	2290.458737472185	218.38209764975
5	963	2318.035693203323	245.2764540294
5	966	2328.211607120137	244.93607290735
5	988	2378.356938984477	256.19559984385
5	989	2379.318831817886	248.83960950722
5	990	2381.143675677461	240.36293762318
5	991	2390.70445488124	237.8498795978
5	994	2406.242486249038	242.90515499557
5	1005	2419.775383929667	242.02675784211
5	1006	2425.193641901423	235.55982999137
5	1007	2430.402718296764	236.63251852336
5	1008	2434.733791854254	239.91461007794
5	1009	2437.501794547612	242.03587955473
5	1012	2448.176122026289	236.86435533092
5	1013	2449.060168141174	233.75578205751
5	1014	2449.795996912555	223.79177740546
5	1019	2461.527273227859	210.30249430737
5	1024	2468.419358098661	213.92190198208
5	1027	2470.372174319507	213.5243045165
5	1028	2471.184103830895	213.46960691888
5	1029	2474.51115838505	211.02925834529
5	1032	2478.715563396892	205.51363791426
5	1033	2480.14342586261	199.95051556972
5	1034	2488.089555367179	203.36800830599
5	1035	2490.736293404074	203.16080147794
6	149	357.206506079018	1
6	162	391.047324288703	1
6	166	395.908292557247	1
6	197	465.277290456284	1
6	202	475.393105182559	1
6	217	506.499791779649	1
6	230	552.180011467169	1
6	232	561.762733894234	2
6	248	615.348425057337	1
6	252	618.900269317537	2
6	263	659.041663215175	1
6	265	674.896049565265	2
6	268	682.19995766715	2
6	287	712.477119971921	1
6	301	758.572252174628	1
6	304	765.706999917469	1
6	308	784.978755077148	1
6	315	806.137931290683	1
6	323	814.592706334832	1
6	329	821.626426792798	2
6	331	824.836198466085	3
6	334	825.499667755023	3
6	345	852.060948218651	1
6	358	911.483787810045	1
6	361	917.070564889174	1
6	363	920.385567146477	2
6	368	935.754445185036	2
6	371	942.293628006038	2
6	393	999.060599541854	1
6	406	1016.150775054257	1
6	411	1022.394637542636	1
6	427	1038.538246586789	1
6	461	1129.314636342715	1
6	466	1130.970527845427	1
6	470	1135.120469468102	1
6	473	1138.721968208374	1
6	475	1140.538363023018	2
6	493	1166.545317567146	1
6	513	1212.235030563073	1
6	515	1214.859992130296	2
6	527	1227.485883194672	1
6	536	1236.643816917823	1
6	539	1245.185824588694	1
6	541	1245.473148778668	2
6	548	1272.319734415131	1
6	552	1286.83813706964	2
6	560	1305.235701771402	1
6	562	1310.732245537385	2
6	570	1351.241493944332	1
6	575	1365.328541869756	1
6	579	1375.741575967684	2
6	583	1385.026190838092	3
6	590	1399.267833290923	1
6	595	1408.531804252156	1
6	599	1416.866283432641	1
6	605	1427.924704791414	2
6	608	1434.313057492983	2
6	619	1451.59723784495	1
6	630	1473.378666856534	1
6	638	1491.689037357241	1
6	642	1538.272590616996	1
6	647	1553.901690264833	1
6	653	1558.54260141757	2
6	670	1595.681554309851	1
6	675	1603.998637226888	1
6	677	1610.690213821691	2
6	711	1706.356756001619	1
6	713	1708.08451424638	2
6	722	1721.710537312419	2
6	728	1743.189173685306	1
6	731	1753.349503705846	1
6	735	1758.340419657439	1
6	739	1770.084095394452	2
6	748	1804.85575399758	1
6	754	1814.320946502234	1
6	759	1824.452226560445	1
6	770	1844.071205200833	1
6	785	1866.574068671975	1
6	790	1882.268336137148	1
6	804	1930.068896973113	1
6	806	1932.893391889637	2
6	823	1955.889998953772	1
6	825	1959.222495235312	2
6	849	2015.913112375529	1
6	864	2059.313257916285	1
6	891	2130.479222310669	1
6	899	2152.854575283436	1
6	903	2170.102954966602	2
6	905	2172.239960610976	3
6	940	2263.481900039759	1
6	959	2300.279199629124	1
6	961	2306.50332956852	2
6	968	2330.823323660804	1
6	976	2347.179264871828	2
6	981	2366.470211685635	2
6	983	2366.72911705343	3
6	1000	2410.9013658636	1
6	1011	2438.53470917593	1
6	1023	2464.141668652333	1
7	149	357.206506079018	10
7	162	391.047324288703	11
7	166	395.908292557247	12
7	197	465.277290456284	13
7	202	475.393105182559	14
7	217	506.499791779649	15
7	230	552.180011467169	16
7	301	758.572252174628	17
7	304	765.706999917469	18
7	315	806.137931290683	19
7	323	814.592706334832	20
7	345	852.060948218651	21
7	358	911.483787810045	22
7	361	917.070564889174	23
7	393	999.060599541854	24
7	406	1016.150775054257	25
7	411	1022.394637542636	26
7	427	1038.538246586789	27
7	461	1129.314636342715	28
7	466	1130.970527845427	29
7	470	1135.120469468102	30
7	473	1138.721968208374	31
7	493	1166.545317567146	32
7	513	1212.235030563073	33
7	527	1227.485883194672	34
7	536	1236.643816917823	35
7	539	1245.185824588694	36
7	548	1272.319734415131	37
7	560	1305.235701771402	38
7	570	1351.241493944332	39
7	575	1365.328541869756	40
7	590	1399.267833290923	41
7	595	1408.531804252156	42
7	599	1416.866283432641	43
7	619	1451.59723784495	44
7	630	1473.378666856534	45
7	638	1491.689037357241	46
7	642	1538.272590616996	47
7	647	1553.901690264833	48
7	670	1595.681554309851	49
7	675	1603.998637226888	50
7	711	1706.356756001619	51
7	728	1743.189173685306	52
7	731	1753.349503705846	53
7	735	1758.340419657439	54
7	748	1804.85575399758	55
7	754	1814.320946502234	56
7	759	1824.452226560445	57
7	770	1844.071205200833	58
7	785	1866.574068671975	59
7	790	1882.268336137148	60
7	804	1930.068896973113	61
7	823	1955.889998953772	62
7	849	2015.913112375529	63
7	864	2059.313257916285	64
7	891	2130.479222310669	65
7	899	2152.854575283436	66
7	940	2263.481900039759	67
7	959	2300.279199629124	68
7	968	2330.823323660804	69
7	1000	2410.9013658636	70
7	1011	2438.53470917593	71
7	1023	2464.141668652333	72
8	149	357.206506079018	0
8	162	391.047324288703	0
8	166	395.908292557247	0
8	197	465.277290456284	0
8	202	475.393105182559	0
8	217	506.499791779649	0
8	230	552.180011467169	0
8	233	562.453751800604	0.69101790637
8	248	615.348425057337	0
8	253	623.191511092201	4.291241774664
8	263	659.041663215175	0
8	266	678.685461427426	3.789411862161
8	269	683.470515221801	1.270557554651
8	287	712.477119971921	0
8	301	758.572252174628	0
8	304	765.706999917469	0
8	308	784.978755077148	0
8	315	806.137931290683	0
8	323	814.592706334832	0
8	332	824.902289751798	3.275862959
8	335	830.026579200051	5.190380733966
8	340	851.083885732361	25.584217977338
8	345	852.060948218651	0
8	358	911.483787810045	0
8	361	917.070564889174	0
8	364	925.602591041102	5.217023894625
8	369	940.174323361731	4.419878176695
8	372	944.740775336826	2.447147330788
8	393	999.060599541854	0
8	406	1016.150775054257	0
8	411	1022.394637542636	0
8	427	1038.538246586789	0
8	461	1129.314636342715	0
8	466	1130.970527845427	0
8	470	1135.120469468102	0
8	473	1138.721968208374	0
8	484	1160.517536994352	19.979173971334
8	493	1166.545317567146	0
8	513	1212.235030563073	0
8	516	1215.467426345455	0.607434215159
8	527	1227.485883194672	0
8	536	1236.643816917823	0
8	539	1245.185824588694	0
8	542	1261.889839991447	16.416691212779
8	548	1272.319734415131	0
8	553	1292.058577050721	5.220439981081
8	560	1305.235701771402	0
8	563	1318.4643918808	7.732146343415
8	570	1351.241493944332	0
8	575	1365.328541869756	0
8	584	1391.440939136804	15.69936316912
8	585	1392.556154076201	7.529963238109
8	590	1399.267833290923	0
8	595	1408.531804252156	0
8	599	1416.866283432641	0
8	606	1433.406246963733	5.481542172319
8	611	1441.584526572314	7.271469079331
8	619	1451.59723784495	0
8	630	1473.378666856534	0
8	638	1491.689037357241	0
8	642	1538.272590616996	0
8	647	1553.901690264833	0
8	654	1560.035198091155	1.492596673585
8	670	1595.681554309851	0
8	675	1603.998637226888	0
8	678	1612.634989603765	1.944775782074
8	711	1706.356756001619	0
8	716	1713.568741858552	5.484227612172
8	723	1735.48250514609	13.771967833671
8	728	1743.189173685306	0
8	731	1753.349503705846	0
8	735	1758.340419657439	0
8	742	1782.299245533172	12.21515013872
8	748	1804.85575399758	0
8	754	1814.320946502234	0
8	759	1824.452226560445	0
8	770	1844.071205200833	0
8	785	1866.574068671975	0
8	790	1882.268336137148	0
8	804	1930.068896973113	0
8	811	1938.984358399633	6.090966509996
8	823	1955.889998953772	0
8	826	1967.424394330805	8.201899095493
8	849	2015.913112375529	0
8	864	2059.313257916285	0
8	891	2130.479222310669	0
8	899	2152.854575283436	0
8	908	2181.97212192545	11.869166958848
8	909	2183.761156295915	11.521195684939
8	940	2263.481900039759	0
8	959	2300.279199629124	0
8	962	2308.416751568166	1.913421999646
8	968	2330.823323660804	0
8	977	2353.235430049996	6.056165178168
8	984	2373.738293488774	7.268081803139
8	985	2375.020438316033	8.291321262603
8	1000	2410.9013658636	0
8	1011	2438.53470917593	0
8	1023	2464.141668652333	0
9	155	376.555438024986	31
9	158	387.477712465089	32
9	159	388.114124781208	33
9	160	389.087527827927	34
9	164	395.797942852654	35
9	174	414.195384973055	36
9	175	415.248558322009	37
9	176	419.338972065986	38
9	179	435.065681937093	39
9	184	439.053557233949	40
9	189	451.510758660928	41
9	192	463.187858286031	42
9	193	463.509276037684	43
9	206	479.181721137613	44
9	207	479.848298141342	45
9	210	490.764216462087	46
9	211	493.849101801535	47
9	214	494.866100972036	48
9	215	502.651948444133	49
9	221	514.852641362062	50
9	222	515.649852091245	51
9	223	515.766129775187	52
9	228	544.3354849676	53
9	237	574.354057520773	54
9	240	595.05271383159	55
9	241	605.811085298885	56
9	242	606.065185957458	57
9	243	607.510819245469	58
9	246	611.668373566861	59
9	257	632.892086655458	60
9	258	633.411566102885	61
9	261	653.760388966967	62
9	275	691.594257620721	63
9	276	691.616844035198	64
9	279	697.592945620322	65
9	282	701.496145062952	66
9	285	705.868653035623	67
9	291	740.376404719845	68
9	296	755.720302870465	69
9	297	757.067112874417	70
9	306	768.111070241374	71
9	319	813.730392350692	72
9	349	868.9304553452	73
9	350	887.347860094752	74
9	355	901.550247157286	75
9	356	902.074848455458	76
9	374	949.956007117517	77
9	377	954.959000046749	78
9	382	964.229538005795	79
9	383	967.839563538569	80
9	384	974.383858815464	81
9	387	977.07051899096	82
9	388	989.967584150096	83
9	391	993.840098673302	84
9	395	1002.18416782159	85
9	402	1006.900849285731	86
9	403	1007.779364242886	87
9	404	1009.099290999007	88
9	423	1033.957827353279	89
9	431	1053.942145094385	90
9	432	1058.189152013812	91
9	433	1060.984661240129	92
9	438	1084.092369000502	93
9	441	1086.041409093484	94
9	442	1090.249610475495	95
9	445	1096.87408983172	96
9	446	1099.849116107895	97
9	447	1107.735355076594	98
9	448	1108.451753163298	99
9	453	1115.07292003028	100
9	456	1122.152778296466	101
9	459	1124.617587825625	102
9	468	1134.668163427848	103
9	503	1181.214737371404	104
9	504	1183.429032236691	105
9	509	1195.715583629112	106
9	522	1225.088694597058	107
9	523	1226.333031233154	108
9	529	1231.670881372753	109
9	530	1233.681906778782	110
9	546	1271.335759191869	111
9	567	1327.182175800059	112
9	568	1333.33404751528	113
9	572	1363.548985293229	114
9	573	1363.595661266299	115
9	592	1406.467004084534	116
9	593	1407.334165097567	117
9	597	1415.443632680754	118
9	613	1446.734825368118	119
9	636	1481.801887670632	120
9	640	1524.55589045685	121
9	644	1548.948271540512	122
9	645	1549.622166674563	123
9	664	1580.954227285196	124
9	665	1587.053274189043	125
9	666	1590.0889597052	126
9	684	1627.426841800598	127
9	687	1630.331164190329	128
9	688	1633.932116665235	129
9	689	1637.579236999818	130
9	690	1638.500962433838	131
9	693	1645.547510054494	132
9	694	1648.228795985578	133
9	695	1655.605727404698	134
9	696	1660.131382701985	135
9	697	1661.684593829519	136
9	698	1664.534778462373	137
9	699	1665.254824973301	138
9	702	1670.480659439519	139
9	705	1685.237165095938	140
9	706	1686.752729624331	141
9	707	1692.687614932465	142
9	708	1700.111297884399	143
9	709	1705.525011364886	144
9	725	1742.290751509947	145
9	726	1742.993703812706	146
9	733	1755.689367205563	147
9	744	1793.931407144959	148
9	745	1800.707380227961	149
9	746	1802.939311647173	150
9	752	1811.481389189234	151
9	765	1831.594074876075	152
9	766	1832.198272072831	153
9	794	1901.801399635536	154
9	795	1903.079296992469	155
9	798	1903.790555265963	156
9	799	1909.662349130446	157
9	800	1913.493575195409	158
9	801	1920.312596826068	159
9	802	1921.943716812564	160
9	817	1947.548363061911	161
9	818	1947.818251979375	162
9	821	1953.615186636924	163
9	830	1973.109645418025	164
9	833	1978.040113990036	165
9	834	1979.354869747795	166
9	837	1986.255964646748	167
9	838	1991.976523842337	168
9	839	2003.500524988523	169
9	840	2004.360311795649	170
9	841	2006.552969601442	171
9	842	2006.920796477169	172
9	847	2011.717602442078	173
9	853	2029.983846236938	174
9	860	2052.792897352113	175
9	878	2082.744810307246	176
9	881	2095.240843409039	177
9	882	2108.262627215754	178
9	883	2118.179247997128	179
9	884	2121.785583954539	180
9	887	2123.210469460415	181
9	888	2124.323778525942	182
9	889	2130.221536599568	183
9	893	2135.373783091951	184
9	894	2136.501348707607	185
9	897	2141.154675210857	186
9	923	2218.905051303232	187
9	926	2227.496548363611	188
9	927	2227.753757198847	189
9	928	2240.961114606887	190
9	929	2243.680845837487	191
9	930	2248.714010979704	192
9	942	2272.290898336633	193
9	945	2276.150620481579	194
9	948	2281.797901036274	195
9	955	2290.458737472185	196
9	966	2328.211607120137	197
9	989	2379.318831817886	198
9	990	2381.143675677461	199
9	991	2390.70445488124	200
9	994	2406.242486249038	201
9	1006	2425.193641901423	202
9	1007	2430.402718296764	203
9	1008	2434.733791854254	204
9	1009	2437.501794547612	205
9	1013	2449.060168141174	206
9	1014	2449.795996912555	207
9	1019	2461.527273227859	208
9	1027	2470.372174319507	209
9	1028	2471.184103830895	210
9	1029	2474.51115838505	211
9	1032	2478.715563396892	212
9	1033	2480.14342586261	213
9	1034	2488.089555367179	214
9	1035	2490.736293404074	215
10	155	376.555438024986	37.350869624646
10	158	387.477712465089	46.057288758189
10	159	388.114124781208	43.610535089139
10	160	389.087527827927	40.48684905636
10	164	395.797942852654	38.591436773636
10	174	414.195384973055	48.376357073701
10	175	415.248558322009	28.152839579998
10	176	419.338972065986	28.291647777283
10	179	435.065681937093	39.157389379846
10	184	439.053557233949	40.96549916047
10	189	451.510758660928	40.091080210789
10	192	463.187858286031	50.094430900506
10	193	463.509276037684	37.945652577693
10	206	479.181721137613	31.366643014618
10	207	479.848298141342	31.833935154764
10	210	490.764216462087	30.044741654205
10	211	493.849101801535	29.157679914549
10	214	494.866100972036	29.588810515752
10	215	502.651948444133	34.338194747663
10	221	514.852641362062	38.26028619012
10	222	515.649852091245	34.649889983885
10	223	515.766129775187	21.0730911743
10	228	544.3354849676	37.835693187951
10	237	574.354057520773	50.685386453372
10	240	595.05271383159	67.454419737846
10	241	605.811085298885	53.631073831716
10	242	606.065185957458	32.222216062101
10	243	607.510819245469	29.0553817175
10	246	611.668373566861	0.112959882444
10	257	632.892086655458	16.9527339405
10	258	633.411566102885	9.48279484139
10	261	653.760388966967	13.086413587508
10	275	691.594257620721	6.471321742248
10	276	691.616844035198	4.505882630946
10	279	697.592945620322	3.363685697531
10	282	701.496145062952	0.051386285928
10	285	705.868653035623	0.119565504186
10	291	740.376404719845	15.154710813045
10	296	755.720302870465	3.715677761169
10	297	757.067112874417	1.58117780098
10	306	768.111070241374	2.404070323905
10	319	813.730392350692	8.458590437146
10	349	868.9304553452	54.720041191003
10	350	887.347860094752	72.75515375992
10	355	901.550247157286	84.906850437107
10	356	902.074848455458	83.94845407563
10	374	949.956007117517	98.169546305341
10	377	954.959000046749	102.8980518281
10	382	964.229538005795	103.630541184
10	383	967.839563538569	72.891562133176
10	384	974.383858815464	77.733598843519
10	387	977.07051899096	65.586731180915
10	388	989.967584150096	72.897019260922
10	391	993.840098673302	59.020139610196
10	395	1002.18416782159	44.121534993891
10	402	1006.900849285731	47.030930055661
10	403	1007.779364242886	31.003536720376
10	404	1009.099290999007	18.684490396199
10	423	1033.957827353279	28.496958413571
10	431	1053.942145094385	37.791370040128
10	432	1058.189152013812	37.784993237142
10	433	1060.984661240129	38.590023697493
10	438	1084.092369000502	53.220234973313
10	441	1086.041409093484	53.789012502839
10	442	1090.249610475495	57.196322957387
10	445	1096.87408983172	63.563305600129
10	446	1099.849116107895	66.238515519712
10	447	1107.735355076594	72.181851622982
10	448	1108.451753163298	69.913506576509
10	453	1115.07292003028	73.832871129867
10	456	1122.152778296466	46.658998867238
10	459	1124.617587825625	42.50257378403
10	468	1134.668163427848	25.149602507531
10	503	1181.214737371404	51.900101028689
10	504	1183.429032236691	52.784669765083
10	509	1195.715583629112	64.745055783685
10	522	1225.088694597058	86.366726388684
10	523	1226.333031233154	82.55137061727
10	529	1231.670881372753	77.940399067983
10	530	1233.681906778782	78.294000106323
10	546	1271.335759191869	109.93951010729
10	567	1327.182175800059	159.58412294967
10	568	1333.33404751528	165.34013202285
10	572	1363.548985293229	177.13023772573
10	573	1363.595661266299	173.64843308471
10	592	1406.467004084534	189.94633414691
10	593	1407.334165097567	189.234159762
10	597	1415.443632680754	187.95774948608
10	613	1446.734825368118	210.11922690646
10	636	1481.801887670632	212.43897717591
10	640	1524.55589045685	241.50096596204
10	644	1548.948271540512	251.87895507659
10	645	1549.622166674563	244.38646490316
10	664	1580.954227285196	229.71273334086
10	665	1587.053274189043	221.72473231929
10	666	1590.0889597052	216.03230190726
10	684	1627.426841800598	228.15900850968
10	687	1630.331164190329	221.79935993817
10	688	1633.932116665235	217.06583323259
10	689	1637.579236999818	219.76040281947
10	690	1638.500962433838	219.76908806148
10	693	1645.547510054494	206.15856168484
10	694	1648.228795985578	200.71971398587
10	695	1655.605727404698	206.4628128562
10	696	1660.131382701985	208.53414485703
10	697	1661.684593829519	205.45932244593
10	698	1664.534778462373	208.13383682707
10	699	1665.254824973301	203.28977130077
10	702	1670.480659439519	202.8096284309
10	705	1685.237165095938	211.8584982394
10	706	1686.752729624331	212.23692176906
10	707	1692.687614932465	213.00977929291
10	708	1700.111297884399	208.42226052716
10	709	1705.525011364886	167.25242074789
10	725	1742.290751509947	187.9318029973
10	726	1742.993703812706	184.57300782224
10	733	1755.689367205563	183.4949886061
10	744	1793.931407144959	199.75447027303
10	745	1800.707380227961	205.02582591811
10	746	1802.939311647173	204.23099662589
10	752	1811.481389189234	197.57811613984
10	765	1831.594074876075	187.33398839628
10	766	1832.198272072831	162.36617755889
10	794	1901.801399635536	187.16075278432
10	795	1903.079296992469	181.77069381184
10	798	1903.790555265963	160.60138158066
10	799	1909.662349130446	156.3128454246
10	800	1913.493575195409	155.15315553797
10	801	1920.312596826068	154.08571465337
10	802	1921.943716812564	141.9583435045
10	817	1947.548363061911	139.72439778693
10	818	1947.818251979375	133.49730547714
10	821	1953.615186636924	134.00888617616
10	830	1973.109645418025	146.56066614161
10	833	1978.040113990036	151.38823674615
10	834	1979.354869747795	141.21990353217
10	837	1986.255964646748	142.18475944592
10	838	1991.976523842337	144.68350836498
10	839	2003.500524988523	149.52428672993
10	840	2004.360311795649	149.25356024994
10	841	2006.552969601442	148.92139111557
10	842	2006.920796477169	146.31411122524
10	847	2011.717602442078	146.02626192685
10	853	2029.983846236938	149.16926074484
10	860	2052.792897352113	170.52456121496
10	878	2082.744810307246	179.24755080572
10	881	2095.240843409039	165.17194643593
10	882	2108.262627215754	170.81666683258
10	883	2118.179247997128	179.31954946794
10	884	2121.785583954539	180.60925409016
10	887	2123.210469460415	179.67434482317
10	888	2124.323778525942	173.53904604017
10	889	2130.221536599568	174.3315376458
10	893	2135.373783091951	159.08661630256
10	894	2136.501348707607	150.60407800376
10	897	2141.154675210857	133.43517622204
10	923	2218.905051303232	202.9919389277
10	926	2227.496548363611	205.5948366091
10	927	2227.753757198847	196.45033150488
10	928	2240.961114606887	203.82493499879
10	929	2243.680845837487	202.87131532668
10	930	2248.714010979704	195.03987346252
10	942	2272.290898336633	212.47427922183
10	945	2276.150620481579	215.70184297807
10	948	2281.797901036274	218.73930525874
10	955	2290.458737472185	227.06454829796
10	966	2328.211607120137	255.45236794621
10	989	2379.318831817886	257.15749267726
10	990	2381.143675677461	250.66445336679
10	991	2390.70445488124	249.92371682696
10	994	2406.242486249038	253.3879109656
10	1006	2425.193641901423	247.44501581386
10	1007	2430.402718296764	240.76890638671
10	1008	2434.733791854254	240.96359208085
10	1009	2437.501794547612	242.6826127713
10	1013	2449.060168141174	237.7484014458
10	1014	2449.795996912555	234.49161082889
10	1019	2461.527273227859	235.52305372076
10	1027	2470.372174319507	215.87471820293
10	1028	2471.184103830895	214.33623402789
10	1029	2474.51115838505	216.79666147304
10	1032	2478.715563396892	215.23366335713
10	1033	2480.14342586261	206.94150037997
10	1034	2488.089555367179	207.89664507429
10	1035	2490.736293404074	206.01474634289
11	1040	2500	0.086
12	1040	2500	0.0456

