version 2
run experiments_hard_game_mode1-439-20230311-19:40:55-6871
attr configname experiments_hard_game_mode1
attr datetime 20230311-19:40:55
attr experiment experiments_hard_game_mode1
attr inifile omnetpp.ini
attr iterationvars "$0=8, $1=5, $2=0"
attr iterationvarsf 8,5,0-
attr measurement "$0=8, $1=5, $2=0"
attr network Network
attr processid 6871
attr repetition 19
attr replication #19
attr resultdir results
attr runnumber 439
attr seedset 19
param *.boss.arrival_mean 20
param *.boss.service_mean 8
param *.minion.arrival_mean 10
param *.minion.service_mean 5
param *.player.recover_rate_x 0
param **.minion.arrival_distribution 0
param **.minion.service_distribution 0
param **.boss.arrival_distribution 0
param **.boss.service_distribution 0

vector 0 Network.player boss_jobs_number_stat:vector ETV
attr source signal_boss_jobs_number
vector 1 Network.player boss_jobs_queue_number_stat:vector ETV
attr source signal_boss_jobs_queue_number
vector 2 Network.player boss_waiting_time_stat:vector ETV
attr source signal_boss_waiting_time
vector 3 Network.player boss_defeated_stat:vector ETV
attr source signal_boss_defeated
vector 4 Network.player boss_response_time_stat:vector ETV
attr source signal_boss_response_time
vector 5 Network.player minion_jobs_number_stat:vector ETV
attr source signal_minion_jobs_number
vector 6 Network.player minion_jobs_queue_number_stat:vector ETV
attr source signal_minion_jobs_queue_number
vector 7 Network.player minion_waiting_time_stat:vector ETV
attr source signal_minion_waiting_time
vector 8 Network.player minion_defeated_stat:vector ETV
attr source signal_minion_defeated
vector 9 Network.player minion_response_time_stat:vector ETV
attr source signal_minion_response_time
vector 10 Network.player minion_recovered_stat:vector ETV
attr source signal_minion_recovered
vector 11 Network.player minion_throughput:vector ETV
attr source signal_minion_throughput
vector 12 Network.player boss_throughput:vector ETV
attr source signal_boss_throughput
0	149	383.641814753773	1
0	158	419.226760993783	1
0	164	435.937457159369	1
0	166	441.599777676986	2
0	176	469.450297919605	1
0	179	470.48201465898	1
0	186	487.295243787722	1
0	196	500.66167326089	1
0	203	512.100524100803	1
0	209	533.110556723408	1
0	227	593.771786700608	1
0	236	644.532565131582	1
0	250	676.48596019194	1
0	260	703.330286601906	1
0	266	725.90316117181	1
0	270	731.588175821006	2
0	278	744.524420255921	3
0	290	759.122019627825	1
0	299	793.863135443444	1
0	305	815.681009898624	2
0	314	863.224603851332	1
0	317	870.153391622639	1
0	320	882.120463111697	1
0	326	923.471158080421	1
0	335	966.760995902482	1
0	347	1009.684344432772	1
0	354	1031.036760996085	1
0	369	1047.446284074941	1
0	372	1052.038242407772	1
0	374	1057.115240070998	2
0	388	1082.835420605179	1
0	413	1137.016704517448	1
0	418	1149.581529118299	1
0	424	1159.462263681971	1
0	451	1206.487230796995	1
0	456	1209.753595283991	1
0	459	1210.941507576878	1
0	467	1218.708561659235	1
0	480	1259.670195305888	1
0	482	1267.815771895886	2
0	491	1309.843732171748	1
0	506	1355.647566428243	1
0	520	1402.044285638431	1
0	522	1402.263904548659	2
0	539	1454.961072960112	1
0	541	1459.590822304099	2
0	554	1480.52788114512	2
0	570	1513.15314658393	1
0	574	1529.657626253454	2
0	577	1546.559532398319	2
0	590	1593.631743264632	1
0	593	1612.416300588425	1
0	596	1623.988397099659	1
0	629	1690.602733536229	1
0	651	1717.657651786433	1
0	653	1728.25733841582	2
0	666	1746.040566456924	1
0	668	1747.235335168242	2
0	671	1748.389845209716	2
0	673	1750.168091953481	3
0	678	1765.122783763006	3
0	680	1767.541957923034	4
0	684	1774.146124514192	5
0	710	1832.144477992951	1
0	722	1860.507320941987	1
0	734	1883.699473873445	1
0	738	1884.464361408446	2
0	740	1886.181841591436	3
0	754	1913.197721752833	1
0	756	1913.281949448185	2
0	759	1920.442455957637	2
0	762	1927.473728951076	2
0	778	1964.969949338338	1
0	782	1974.166259690969	2
0	798	1994.452365368981	1
0	804	2003.186013006887	1
0	818	2040.615125239329	1
0	836	2080.987086470017	1
0	847	2100.91784688331	1
0	862	2129.599279851329	1
0	864	2132.426180659516	2
0	868	2138.766813623332	3
0	872	2142.690949916287	4
0	876	2144.082990020558	5
0	889	2183.968035022845	1
0	901	2214.237337116187	1
0	909	2232.344284238071	1
0	915	2254.27334360207	1
0	922	2266.555854746247	1
0	929	2284.15446303664	1
0	943	2300.48471194332	1
0	955	2327.398750057176	1
0	959	2335.312333411039	1
0	964	2348.102139344011	1
0	968	2351.896011637656	1
0	986	2397.305582690173	1
0	997	2421.735659092536	1
0	999	2428.024523204963	2
0	1001	2431.526234007268	3
0	1009	2447.718939005172	2
0	1014	2454.499579047895	2
0	1016	2457.358068384767	3
0	1026	2473.1920250507	2
0	1030	2483.711986540473	1
1	149	383.641814753773	0
1	150	385.264286276924	0
1	158	419.226760993783	0
1	161	431.309802552221	0
1	164	435.937457159369	0
1	166	441.599777676986	1
1	167	443.438299179994	1
1	172	456.940968419394	0
1	176	469.450297919605	0
1	177	469.954581252758	0
1	179	470.48201465898	0
1	180	470.601318075828	0
1	186	487.295243787722	0
1	187	487.505437543639	0
1	196	500.66167326089	0
1	197	502.727485161096	0
1	203	512.100524100803	0
1	204	512.768765825724	0
1	209	533.110556723408	0
1	210	543.061462200052	0
1	227	593.771786700608	0
1	234	644.495856989563	0
1	236	644.532565131582	0
1	243	658.300568237237	0
1	250	676.48596019194	0
1	251	678.954324963358	0
1	260	703.330286601906	0
1	263	715.94316691285	0
1	266	725.90316117181	0
1	270	731.588175821006	1
1	278	744.524420255921	2
1	279	744.742055286763	2
1	282	750.21105241979	1
1	283	755.085107721597	0
1	290	759.122019627825	0
1	291	765.700319797924	0
1	299	793.863135443444	0
1	305	815.681009898624	1
1	306	837.658271009825	1
1	307	843.445980311851	0
1	314	863.224603851332	0
1	315	863.419541303835	0
1	317	870.153391622639	0
1	318	872.859732045085	0
1	320	882.120463111697	0
1	323	899.66129007135	0
1	326	923.471158080421	0
1	327	925.13808233293	0
1	335	966.760995902482	0
1	336	969.108412360514	0
1	347	1009.684344432772	0
1	348	1013.020666761444	0
1	354	1031.036760996085	0
1	357	1039.764382436172	0
1	369	1047.446284074941	0
1	370	1049.923626255564	0
1	372	1052.038242407772	0
1	374	1057.115240070998	1
1	379	1066.327651535041	1
1	380	1068.140937520835	0
1	388	1082.835420605179	0
1	399	1107.86317797175	0
1	413	1137.016704517448	0
1	414	1141.20620264071	0
1	418	1149.581529118299	0
1	421	1156.325555577799	0
1	424	1159.462263681971	0
1	425	1165.354786724272	0
1	451	1206.487230796995	0
1	454	1209.326080605998	0
1	456	1209.753595283991	0
1	457	1209.821505717344	0
1	459	1210.941507576878	0
1	460	1211.289010912786	0
1	467	1218.708561659235	0
1	470	1245.114531907173	0
1	480	1259.670195305888	0
1	482	1267.815771895886	1
1	485	1273.842155771554	1
1	488	1289.598206178333	0
1	491	1309.843732171748	0
1	494	1318.570543800933	0
1	506	1355.647566428243	0
1	507	1368.133693897108	0
1	520	1402.044285638431	0
1	522	1402.263904548659	1
1	525	1402.909748822263	1
1	526	1414.069000096094	0
1	539	1454.961072960112	0
1	541	1459.590822304099	1
1	544	1462.505274655687	1
1	554	1480.52788114512	1
1	555	1484.904277333606	1
1	558	1493.472626917393	0
1	570	1513.15314658393	0
1	574	1529.657626253454	1
1	575	1546.347009159357	1
1	577	1546.559532398319	1
1	578	1547.940751186217	1
1	579	1548.652007179996	0
1	590	1593.631743264632	0
1	591	1595.526628535368	0
1	593	1612.416300588425	0
1	594	1618.50165206791	0
1	596	1623.988397099659	0
1	599	1642.981354215148	0
1	629	1690.602733536229	0
1	632	1701.882574807553	0
1	651	1717.657651786433	0
1	653	1728.25733841582	1
1	656	1732.084163231773	1
1	659	1735.056591982068	0
1	666	1746.040566456924	0
1	668	1747.235335168242	1
1	669	1747.946887123099	1
1	671	1748.389845209716	1
1	673	1750.168091953481	2
1	674	1757.36212271409	2
1	678	1765.122783763006	2
1	680	1767.541957923034	3
1	684	1774.146124514192	4
1	685	1779.761128301548	4
1	686	1781.499936138956	3
1	687	1791.002187662633	2
1	694	1806.406405512627	1
1	697	1813.887879147311	0
1	710	1832.144477992951	0
1	713	1836.755755143897	0
1	722	1860.507320941987	0
1	723	1861.123228114907	0
1	734	1883.699473873445	0
1	738	1884.464361408446	1
1	740	1886.181841591436	2
1	741	1891.753151281803	2
1	742	1894.736877349848	1
1	743	1897.354245349685	0
1	754	1913.197721752833	0
1	756	1913.281949448185	1
1	757	1917.023535974263	1
1	759	1920.442455957637	1
1	760	1926.019860828198	1
1	762	1927.473728951076	1
1	767	1939.958855995646	1
1	768	1943.833404804975	0
1	778	1964.969949338338	0
1	782	1974.166259690969	1
1	783	1978.450143058343	1
1	784	1980.364359405566	0
1	798	1994.452365368981	0
1	801	2000.907096600871	0
1	804	2003.186013006887	0
1	805	2004.666948733325	0
1	818	2040.615125239329	0
1	819	2041.041695912838	0
1	836	2080.987086470017	0
1	837	2085.653986423703	0
1	847	2100.91784688331	0
1	848	2109.055867608331	0
1	862	2129.599279851329	0
1	864	2132.426180659516	1
1	868	2138.766813623332	2
1	872	2142.690949916287	3
1	876	2144.082990020558	4
1	877	2150.229580534349	4
1	880	2158.64098587212	3
1	881	2171.148319379718	2
1	882	2176.842134144926	1
1	885	2179.953529549399	0
1	889	2183.968035022845	0
1	898	2207.648724107993	0
1	901	2214.237337116187	0
1	902	2214.274098177038	0
1	909	2232.344284238071	0
1	910	2235.017582652251	0
1	915	2254.27334360207	0
1	920	2263.597170158308	0
1	922	2266.555854746247	0
1	925	2272.761931044087	0
1	929	2284.15446303664	0
1	936	2292.423326597041	0
1	943	2300.48471194332	0
1	946	2307.608003493749	0
1	955	2327.398750057176	0
1	956	2331.485969497309	0
1	959	2335.312333411039	0
1	962	2347.063029201433	0
1	964	2348.102139344011	0
1	965	2348.136151850749	0
1	968	2351.896011637656	0
1	969	2353.787297302418	0
1	986	2397.305582690173	0
1	991	2404.154218680648	0
1	997	2421.735659092536	0
1	999	2428.024523204963	1
1	1001	2431.526234007268	2
1	1002	2439.877247830005	2
1	1005	2441.903915119049	1
1	1009	2447.718939005172	1
1	1012	2450.986580795568	1
1	1014	2454.499579047895	1
1	1016	2457.358068384767	2
1	1023	2466.503573000948	2
1	1024	2466.708688762042	1
1	1026	2473.1920250507	1
1	1027	2479.525390069794	1
1	1028	2483.388926933214	0
1	1030	2483.711986540473	0
1	1031	2494.273256248949	0
2	149	383.641814753773	0
2	158	419.226760993783	0
2	164	435.937457159369	0
2	167	443.438299179994	1.838521503008
2	176	469.450297919605	0
2	179	470.48201465898	0
2	186	487.295243787722	0
2	196	500.66167326089	0
2	203	512.100524100803	0
2	209	533.110556723408	0
2	227	593.771786700608	0
2	236	644.532565131582	0
2	250	676.48596019194	0
2	260	703.330286601906	0
2	266	725.90316117181	0
2	279	744.742055286763	13.153879465757
2	282	750.21105241979	5.686632163869
2	290	759.122019627825	0
2	299	793.863135443444	0
2	306	837.658271009825	21.977261111201
2	314	863.224603851332	0
2	317	870.153391622639	0
2	320	882.120463111697	0
2	326	923.471158080421	0
2	335	966.760995902482	0
2	347	1009.684344432772	0
2	354	1031.036760996085	0
2	369	1047.446284074941	0
2	372	1052.038242407772	0
2	379	1066.327651535041	9.212411464043
2	388	1082.835420605179	0
2	413	1137.016704517448	0
2	418	1149.581529118299	0
2	424	1159.462263681971	0
2	451	1206.487230796995	0
2	456	1209.753595283991	0
2	459	1210.941507576878	0
2	467	1218.708561659235	0
2	480	1259.670195305888	0
2	485	1273.842155771554	6.026383875668
2	491	1309.843732171748	0
2	506	1355.647566428243	0
2	520	1402.044285638431	0
2	525	1402.909748822263	0.645844273604
2	539	1454.961072960112	0
2	544	1462.505274655687	2.914452351588
2	555	1484.904277333606	4.376396188486
2	570	1513.15314658393	0
2	575	1546.347009159357	16.689382905903
2	578	1547.940751186217	1.381218787898
2	590	1593.631743264632	0
2	593	1612.416300588425	0
2	596	1623.988397099659	0
2	629	1690.602733536229	0
2	651	1717.657651786433	0
2	656	1732.084163231773	3.826824815953
2	666	1746.040566456924	0
2	669	1747.946887123099	0.711551954857
2	674	1757.36212271409	8.972277504374
2	685	1779.761128301548	29.593036348067
2	686	1781.499936138956	16.37715237595
2	687	1791.002187662633	23.460229739599
2	694	1806.406405512627	32.260280998435
2	710	1832.144477992951	0
2	722	1860.507320941987	0
2	734	1883.699473873445	0
2	741	1891.753151281803	7.288789873357
2	742	1894.736877349848	8.555035758412
2	754	1913.197721752833	0
2	757	1917.023535974263	3.741586526078
2	760	1926.019860828198	5.577404870561
2	767	1939.958855995646	12.48512704457
2	778	1964.969949338338	0
2	783	1978.450143058343	4.283883367374
2	798	1994.452365368981	0
2	804	2003.186013006887	0
2	818	2040.615125239329	0
2	836	2080.987086470017	0
2	847	2100.91784688331	0
2	862	2129.599279851329	0
2	877	2150.229580534349	17.803399874833
2	880	2158.64098587212	19.874172248788
2	881	2171.148319379718	28.457369463431
2	882	2176.842134144926	32.759144124368
2	889	2183.968035022845	0
2	901	2214.237337116187	0
2	909	2232.344284238071	0
2	915	2254.27334360207	0
2	922	2266.555854746247	0
2	929	2284.15446303664	0
2	943	2300.48471194332	0
2	955	2327.398750057176	0
2	959	2335.312333411039	0
2	964	2348.102139344011	0
2	968	2351.896011637656	0
2	986	2397.305582690173	0
2	997	2421.735659092536	0
2	1002	2439.877247830005	11.852724625042
2	1005	2441.903915119049	10.377681111781
2	1012	2450.986580795568	3.267641790396
2	1023	2466.503573000948	12.003993953053
2	1024	2466.708688762042	9.350620377275
2	1027	2479.525390069794	6.333365019094
2	1030	2483.711986540473	0
3	150	385.264286276924	12
3	161	431.309802552221	13
3	167	443.438299179994	14
3	172	456.940968419394	15
3	177	469.954581252758	16
3	180	470.601318075828	17
3	187	487.505437543639	18
3	197	502.727485161096	19
3	204	512.768765825724	20
3	210	543.061462200052	21
3	234	644.495856989563	22
3	243	658.300568237237	23
3	251	678.954324963358	24
3	263	715.94316691285	25
3	279	744.742055286763	26
3	282	750.21105241979	27
3	283	755.085107721597	28
3	291	765.700319797924	29
3	306	837.658271009825	30
3	307	843.445980311851	31
3	315	863.419541303835	32
3	318	872.859732045085	33
3	323	899.66129007135	34
3	327	925.13808233293	35
3	336	969.108412360514	36
3	348	1013.020666761444	37
3	357	1039.764382436172	38
3	370	1049.923626255564	39
3	379	1066.327651535041	40
3	380	1068.140937520835	41
3	399	1107.86317797175	42
3	414	1141.20620264071	43
3	421	1156.325555577799	44
3	425	1165.354786724272	45
3	454	1209.326080605998	46
3	457	1209.821505717344	47
3	460	1211.289010912786	48
3	470	1245.114531907173	49
3	485	1273.842155771554	50
3	488	1289.598206178333	51
3	494	1318.570543800933	52
3	507	1368.133693897108	53
3	525	1402.909748822263	54
3	526	1414.069000096094	55
3	544	1462.505274655687	56
3	555	1484.904277333606	57
3	558	1493.472626917393	58
3	575	1546.347009159357	59
3	578	1547.940751186217	60
3	579	1548.652007179996	61
3	591	1595.526628535368	62
3	594	1618.50165206791	63
3	599	1642.981354215148	64
3	632	1701.882574807553	65
3	656	1732.084163231773	66
3	659	1735.056591982068	67
3	669	1747.946887123099	68
3	674	1757.36212271409	69
3	685	1779.761128301548	70
3	686	1781.499936138956	71
3	687	1791.002187662633	72
3	694	1806.406405512627	73
3	697	1813.887879147311	74
3	713	1836.755755143897	75
3	723	1861.123228114907	76
3	741	1891.753151281803	77
3	742	1894.736877349848	78
3	743	1897.354245349685	79
3	757	1917.023535974263	80
3	760	1926.019860828198	81
3	767	1939.958855995646	82
3	768	1943.833404804975	83
3	783	1978.450143058343	84
3	784	1980.364359405566	85
3	801	2000.907096600871	86
3	805	2004.666948733325	87
3	819	2041.041695912838	88
3	837	2085.653986423703	89
3	848	2109.055867608331	90
3	877	2150.229580534349	91
3	880	2158.64098587212	92
3	881	2171.148319379718	93
3	882	2176.842134144926	94
3	885	2179.953529549399	95
3	898	2207.648724107993	96
3	902	2214.274098177038	97
3	910	2235.017582652251	98
3	920	2263.597170158308	99
3	925	2272.761931044087	100
3	936	2292.423326597041	101
3	946	2307.608003493749	102
3	956	2331.485969497309	103
3	962	2347.063029201433	104
3	965	2348.136151850749	105
3	969	2353.787297302418	106
3	991	2404.154218680648	107
3	1002	2439.877247830005	108
3	1005	2441.903915119049	109
3	1012	2450.986580795568	110
3	1023	2466.503573000948	111
3	1024	2466.708688762042	112
3	1027	2479.525390069794	113
3	1028	2483.388926933214	114
3	1031	2494.273256248949	115
4	150	385.264286276924	1.622471523151
4	161	431.309802552221	12.083041558438
4	167	443.438299179994	7.500842020625
4	172	456.940968419394	15.341190742408
4	177	469.954581252758	0.504283333153
4	180	470.601318075828	0.119303416848
4	187	487.505437543639	0.210193755917
4	197	502.727485161096	2.065811900206
4	204	512.768765825724	0.668241724921
4	210	543.061462200052	9.950905476644
4	234	644.495856989563	50.724070288955
4	243	658.300568237237	13.768003105655
4	251	678.954324963358	2.468364771418
4	263	715.94316691285	12.612880310944
4	279	744.742055286763	18.838894114953
4	282	750.21105241979	18.622876598784
4	283	755.085107721597	10.560687465676
4	291	765.700319797924	6.578300170099
4	306	837.658271009825	43.795135566381
4	307	843.445980311851	27.764970413227
4	315	863.419541303835	0.194937452503
4	318	872.859732045085	2.706340422446
4	323	899.66129007135	17.540826959653
4	327	925.13808233293	1.666924252509
4	336	969.108412360514	2.347416458032
4	348	1013.020666761444	3.336322328672
4	357	1039.764382436172	8.727621440087
4	370	1049.923626255564	2.477342180623
4	379	1066.327651535041	14.289409127269
4	380	1068.140937520835	11.025697449837
4	399	1107.86317797175	25.027757366571
4	414	1141.20620264071	4.189498123262
4	421	1156.325555577799	6.7440264595
4	425	1165.354786724272	5.892523042301
4	454	1209.326080605998	2.838849809003
4	457	1209.821505717344	0.067910433353
4	460	1211.289010912786	0.347503335908
4	470	1245.114531907173	26.405970247938
4	485	1273.842155771554	14.171960465666
4	488	1289.598206178333	21.782434282447
4	494	1318.570543800933	8.726811629185
4	507	1368.133693897108	12.486127468865
4	525	1402.909748822263	0.865463183832
4	526	1414.069000096094	11.805095547435
4	544	1462.505274655687	7.544201695575
4	555	1484.904277333606	25.313455029507
4	558	1493.472626917393	12.944745772273
4	575	1546.347009159357	33.193862575427
4	578	1547.940751186217	18.283124932763
4	579	1548.652007179996	2.092474781677
4	591	1595.526628535368	1.894885270736
4	594	1618.50165206791	6.085351479485
4	599	1642.981354215148	18.992957115489
4	632	1701.882574807553	11.279841271324
4	656	1732.084163231773	14.42651144534
4	659	1735.056591982068	6.799253566248
4	669	1747.946887123099	1.906320666175
4	674	1757.36212271409	10.126787545848
4	685	1779.761128301548	31.371283091832
4	686	1781.499936138956	31.331844185475
4	687	1791.002187662633	25.879403899627
4	694	1806.406405512627	38.864447589593
4	697	1813.887879147311	39.741754633119
4	713	1836.755755143897	4.611277150946
4	723	1861.123228114907	0.61590717292
4	741	1891.753151281803	8.053677408358
4	742	1894.736877349848	10.272515941402
4	743	1897.354245349685	11.172403758249
4	757	1917.023535974263	3.82581422143
4	760	1926.019860828198	12.737911380013
4	767	1939.958855995646	19.516400038009
4	768	1943.833404804975	16.359675853899
4	783	1978.450143058343	13.480193720005
4	784	1980.364359405566	6.198099714597
4	801	2000.907096600871	6.45473123189
4	805	2004.666948733325	1.480935726438
4	819	2041.041695912838	0.426570673509
4	837	2085.653986423703	4.666899953686
4	848	2109.055867608331	8.138020725021
4	877	2150.229580534349	20.63030068302
4	880	2158.64098587212	26.214805212604
4	881	2171.148319379718	32.381505756386
4	882	2176.842134144926	34.151184228639
4	885	2179.953529549399	35.870539528841
4	898	2207.648724107993	23.680689085148
4	902	2214.274098177038	0.036761060851
4	910	2235.017582652251	2.67329841418
4	920	2263.597170158308	9.323826556238
4	925	2272.761931044087	6.20607629784
4	936	2292.423326597041	8.268863560401
4	946	2307.608003493749	7.123291550429
4	956	2331.485969497309	4.087219440133
4	962	2347.063029201433	11.750695790394
4	965	2348.136151850749	0.034012506738
4	969	2353.787297302418	1.891285664762
4	991	2404.154218680648	6.848635990475
4	1002	2439.877247830005	18.141588737469
4	1005	2441.903915119049	13.879391914086
4	1012	2450.986580795568	19.4603467883
4	1023	2466.503573000948	18.784633995776
4	1024	2466.708688762042	12.209109714147
4	1027	2479.525390069794	22.167321685027
4	1028	2483.388926933214	10.196901882514
4	1031	2494.273256248949	10.561269708476
5	152	385.856899874733	1
5	155	408.691715619325	1
5	160	422.13264824982	1
5	169	445.819057629507	1
5	171	454.087649832625	2
5	174	466.825941906207	3
5	182	481.958246252984	4
5	184	484.368239412351	5
5	190	491.184902048821	5
5	200	507.395280976871	1
5	206	530.648492201309	1
5	212	543.588478983341	1
5	215	554.755673435099	1
5	217	555.313263309698	2
5	221	575.587625228941	1
5	224	579.283341760883	1
5	229	596.194993200021	1
5	231	616.827667599831	2
5	233	640.926297437906	3
5	238	649.886856687228	4
5	240	655.991254291414	5
5	242	658.258721181871	6
5	246	661.594702362575	6
5	254	683.557625529397	4
5	262	707.612973189694	1
5	268	731.363546110908	1
5	272	732.555186216837	2
5	274	733.938954235922	3
5	276	734.751258498641	4
5	281	745.076474176766	5
5	287	757.68685211186	4
5	296	790.217733311095	1
5	301	797.60490314529	1
5	303	810.26358369908	2
5	310	844.825138635796	2
5	322	885.099273410516	1
5	329	948.972755669185	1
5	332	950.843979774307	1
5	338	972.02407510722	1
5	341	981.928561880455	1
5	344	1004.842236377678	1
5	350	1025.758625337468	1
5	352	1026.600216556579	2
5	356	1034.755844313557	3
5	359	1042.537682298745	4
5	362	1042.903472205063	4
5	365	1043.289063513605	4
5	367	1046.0639403592	5
5	376	1057.550270121693	6
5	378	1061.03259428033	7
5	382	1070.191146829727	8
5	384	1070.286842594129	9
5	390	1086.027920857735	8
5	392	1094.231740682781	9
5	394	1101.25677937566	10
5	396	1103.206723378744	11
5	398	1106.186864163115	12
5	401	1109.171080301339	13
5	403	1111.387788992762	14
5	406	1121.809931380067	14
5	408	1124.366351542074	15
5	420	1154.570025499484	11
5	427	1167.05463710117	11
5	432	1171.721424202972	9
5	437	1179.208781504965	7
5	439	1186.537198072979	8
5	441	1187.891230891189	9
5	447	1202.67566319902	6
5	449	1204.01364622619	7
5	453	1209.213125572176	8
5	462	1212.525211650875	9
5	469	1243.543414230326	7
5	474	1246.956304856231	6
5	476	1248.25184246608	7
5	484	1268.876528944801	6
5	487	1288.324820709837	7
5	493	1311.522300834359	7
5	503	1347.919863570171	1
5	509	1374.868030005294	1
5	512	1379.578036641553	1
5	514	1380.636937306802	2
5	518	1392.15735548521	1
5	524	1402.608920941986	2
5	530	1422.721074296431	1
5	533	1434.530211434858	1
5	536	1447.566384208322	1
5	543	1460.540129749878	1
5	546	1465.639866408089	2
5	548	1466.106117658667	3
5	550	1471.368291647667	4
5	552	1478.976951480305	5
5	557	1486.661311713835	6
5	563	1498.512310193738	4
5	565	1505.425528053387	5
5	568	1510.933478874596	5
5	572	1521.879486692066	6
5	584	1563.378368305413	4
5	598	1639.056986888519	1
5	601	1643.095036236944	2
5	603	1645.546022462589	3
5	608	1661.634814004436	1
5	610	1671.579912758762	2
5	613	1672.025614561915	2
5	615	1673.769670837592	3
5	618	1679.416565973792	3
5	621	1681.617957238574	3
5	623	1681.707524378777	4
5	627	1688.170722645438	3
5	631	1692.82202740727	4
5	634	1702.191657967471	5
5	636	1704.833006367118	6
5	638	1705.599151971544	7
5	644	1710.030724900868	4
5	647	1713.741763839065	4
5	649	1714.940245213364	5
5	655	1728.87665711158	6
5	658	1733.694104865433	7
5	663	1740.128382121185	6
5	676	1761.815259399482	6
5	682	1773.795755106873	7
5	689	1792.918935437412	8
5	691	1802.277444354918	9
5	693	1803.676666182345	10
5	696	1813.440534849893	11
5	699	1814.60925833719	12
5	703	1820.402365016173	11
5	705	1821.614431305861	12
5	708	1827.149029616638	12
5	712	1833.437028583181	13
5	728	1876.226428141584	4
5	731	1879.711272229701	4
5	736	1883.806687998546	4
5	747	1902.470646176537	3
5	749	1907.529091213011	4
5	751	1908.263601933055	5
5	764	1935.123759178274	5
5	766	1938.497859420328	6
5	775	1962.257532328165	2
5	780	1969.299355942594	2
5	788	1984.117516746036	1
5	790	1986.044914204507	2
5	792	1989.687237629296	3
5	794	1990.620009507669	4
5	796	1991.781384648472	5
5	800	1995.076524006025	6
5	808	2008.288417313999	5
5	810	2009.93813881571	6
5	813	2025.56978282973	6
5	816	2040.550524347734	6
5	822	2054.211906877718	6
5	825	2065.159803241648	6
5	827	2072.225498533218	7
5	833	2080.539873363293	4
5	839	2087.090379295645	4
5	841	2088.891266320457	5
5	851	2113.982284071148	1
5	853	2114.816664513199	2
5	855	2115.391268542159	3
5	857	2116.680605292526	4
5	866	2134.837579236397	2
5	870	2139.045435916166	3
5	874	2143.647369207872	4
5	879	2157.816230141225	5
5	884	2178.162557058013	6
5	887	2180.332846172576	7
5	891	2186.758955664257	8
5	893	2191.137331745992	9
5	895	2194.998118816962	10
5	897	2196.124755564521	11
5	904	2215.071349859126	11
5	917	2255.125267489965	6
5	919	2258.251636537411	7
5	924	2269.820350887882	8
5	927	2275.391187735827	9
5	931	2285.943208414918	10
5	933	2288.567040384363	11
5	935	2288.72831507386	12
5	938	2295.55461015028	13
5	940	2295.615227937649	14
5	945	2305.385790729079	14
5	948	2311.454745772018	15
5	952	2319.928991314839	14
5	961	2339.568903514049	13
5	974	2361.142496454305	10
5	979	2373.270587371442	8
5	988	2400.670039269132	4
5	990	2401.423215500016	5
5	1004	2440.135947521906	2
5	1007	2443.649004060011	3
5	1011	2448.608729818361	4
5	1018	2460.892213925155	5
5	1020	2464.399823215664	6
5	1022	2465.102922889915	7
5	1033	2496.33997144847	8
6	152	385.856899874733	0
6	153	392.729268391305	0
6	155	408.691715619325	0
6	156	418.529035532523	0
6	160	422.13264824982	0
6	162	434.32005922391	0
6	169	445.819057629507	0
6	171	454.087649832625	1
6	174	466.825941906207	2
6	182	481.958246252984	3
6	184	484.368239412351	4
6	188	490.805415397688	4
6	190	491.184902048821	4
6	191	491.244539029608	4
6	192	491.497727604151	3
6	193	496.942740841784	2
6	194	499.414773080336	1
6	198	503.210498973077	0
6	200	507.395280976871	0
6	201	510.436254432221	0
6	206	530.648492201309	0
6	207	530.994166226931	0
6	212	543.588478983341	0
6	213	548.264191836287	0
6	215	554.755673435099	0
6	217	555.313263309698	1
6	218	561.71032848642	1
6	219	574.477919931109	0
6	221	575.587625228941	0
6	222	575.917103906412	0
6	224	579.283341760883	0
6	225	579.663445234593	0
6	229	596.194993200021	0
6	231	616.827667599831	1
6	233	640.926297437906	2
6	238	649.886856687228	3
6	240	655.991254291414	4
6	242	658.258721181871	5
6	244	660.346023564943	5
6	246	661.594702362575	5
6	247	662.610162775133	5
6	248	665.400816940342	4
6	252	679.778530276376	3
6	254	683.557625529397	3
6	255	691.249093917857	3
6	256	695.205213569943	2
6	257	697.605499453847	1
6	258	703.160620253461	0
6	262	707.612973189694	0
6	264	718.871748320257	0
6	268	731.363546110908	0
6	272	732.555186216837	1
6	274	733.938954235922	2
6	276	734.751258498641	3
6	281	745.076474176766	4
6	284	757.202263846122	4
6	285	757.385901787973	3
6	287	757.68685211186	3
6	288	757.897695830376	3
6	292	769.302847367158	2
6	293	770.899004738645	1
6	294	778.329692370328	0
6	296	790.217733311095	0
6	297	790.261576990696	0
6	301	797.60490314529	0
6	303	810.26358369908	1
6	308	844.37151881491	1
6	310	844.825138635796	1
6	311	845.464679000038	1
6	312	850.633997656302	0
6	322	885.099273410516	0
6	324	902.828296614244	0
6	329	948.972755669185	0
6	330	949.541629639123	0
6	332	950.843979774307	0
6	333	952.373569419326	0
6	338	972.02407510722	0
6	339	974.203014488277	0
6	341	981.928561880455	0
6	342	985.358571796312	0
6	344	1004.842236377678	0
6	345	1007.27862549976	0
6	350	1025.758625337468	0
6	352	1026.600216556579	1
6	356	1034.755844313557	2
6	359	1042.537682298745	3
6	360	1042.713328907461	3
6	362	1042.903472205063	3
6	363	1043.032822420895	3
6	365	1043.289063513605	3
6	367	1046.0639403592	4
6	376	1057.550270121693	5
6	378	1061.03259428033	6
6	382	1070.191146829727	7
6	384	1070.286842594129	8
6	385	1070.325811318058	8
6	386	1076.86126843038	7
6	390	1086.027920857735	7
6	392	1094.231740682781	8
6	394	1101.25677937566	9
6	396	1103.206723378744	10
6	398	1106.186864163115	11
6	401	1109.171080301339	12
6	403	1111.387788992762	13
6	404	1117.459141142844	13
6	406	1121.809931380067	13
6	408	1124.366351542074	14
6	409	1134.217291350147	14
6	410	1136.088832145089	13
6	411	1136.791783944335	12
6	415	1143.239613242589	11
6	416	1143.488684818521	10
6	420	1154.570025499484	10
6	422	1158.454309423192	10
6	427	1167.05463710117	10
6	428	1169.337852064493	10
6	429	1171.189426850133	9
6	430	1171.715771001244	8
6	432	1171.721424202972	8
6	433	1172.408925033761	8
6	434	1175.100167901954	7
6	435	1177.84255753729	6
6	437	1179.208781504965	6
6	439	1186.537198072979	7
6	441	1187.891230891189	8
6	442	1188.87496990345	8
6	443	1190.427723195737	7
6	444	1191.935624049248	6
6	445	1192.446729369307	5
6	447	1202.67566319902	5
6	449	1204.01364622619	6
6	453	1209.213125572176	7
6	462	1212.525211650875	8
6	463	1214.898814262754	8
6	464	1217.751471068421	7
6	465	1217.876823569473	6
6	469	1243.543414230326	6
6	471	1245.121541939253	6
6	472	1246.425459694249	5
6	474	1246.956304856231	5
6	476	1248.25184246608	6
6	477	1255.389739507381	6
6	478	1256.556500567478	5
6	484	1268.876528944801	5
6	487	1288.324820709837	6
6	489	1301.216680619626	6
6	493	1311.522300834359	6
6	495	1320.040875486925	6
6	496	1321.468154716324	5
6	497	1333.069582320241	4
6	498	1339.25384594472	3
6	499	1347.108587394854	2
6	500	1347.193616930594	1
6	501	1347.449959224708	0
6	503	1347.919863570171	0
6	504	1351.498780959691	0
6	509	1374.868030005294	0
6	510	1375.591678938516	0
6	512	1379.578036641553	0
6	514	1380.636937306802	1
6	515	1380.883150806873	1
6	516	1384.414373081822	0
6	518	1392.15735548521	0
6	524	1402.608920941986	1
6	527	1415.810266228379	1
6	528	1420.256953707169	0
6	530	1422.721074296431	0
6	531	1426.130284316771	0
6	533	1434.530211434858	0
6	534	1436.509507929456	0
6	536	1447.566384208322	0
6	537	1451.4536028752	0
6	543	1460.540129749878	0
6	546	1465.639866408089	1
6	548	1466.106117658667	2
6	550	1471.368291647667	3
6	552	1478.976951480305	4
6	557	1486.661311713835	5
6	559	1494.25481098573	5
6	560	1495.505809391214	4
6	561	1496.995404103314	3
6	563	1498.512310193738	3
6	565	1505.425528053387	4
6	566	1505.657074208052	4
6	568	1510.933478874596	4
6	572	1521.879486692066	5
6	580	1548.771827229869	5
6	581	1554.531477282825	4
6	582	1554.584398833574	3
6	584	1563.378368305413	3
6	585	1587.558633456668	3
6	586	1589.802729341981	2
6	587	1590.670858910799	1
6	588	1592.595170432731	0
6	598	1639.056986888519	0
6	601	1643.095036236944	1
6	603	1645.546022462589	2
6	604	1648.016037837764	2
6	605	1651.036303133183	1
6	606	1651.209349462469	0
6	608	1661.634814004436	0
6	610	1671.579912758762	1
6	611	1671.745289905885	1
6	613	1672.025614561915	1
6	615	1673.769670837592	2
6	616	1674.857415053656	2
6	618	1679.416565973792	2
6	619	1679.945188011615	2
6	621	1681.617957238574	2
6	623	1681.707524378777	3
6	624	1682.413846320711	3
6	625	1684.430375778165	2
6	627	1688.170722645438	2
6	631	1692.82202740727	3
6	634	1702.191657967471	4
6	636	1704.833006367118	5
6	638	1705.599151971544	6
6	639	1705.786761127224	6
6	640	1709.195285746028	5
6	641	1709.261526293353	4
6	642	1709.857267562265	3
6	644	1710.030724900868	3
6	645	1712.605990390959	3
6	647	1713.741763839065	3
6	649	1714.940245213364	4
6	655	1728.87665711158	5
6	658	1733.694104865433	6
6	660	1738.157579239586	6
6	661	1739.405861673999	5
6	663	1740.128382121185	5
6	664	1744.19276848767	5
6	676	1761.815259399482	5
6	682	1773.795755106873	6
6	689	1792.918935437412	7
6	691	1802.277444354918	8
6	693	1803.676666182345	9
6	696	1813.440534849893	10
6	699	1814.60925833719	11
6	700	1817.314559737483	11
6	701	1818.713522730403	10
6	703	1820.402365016173	10
6	705	1821.614431305861	11
6	706	1822.447188419488	11
6	708	1827.149029616638	11
6	712	1833.437028583181	12
6	714	1838.525723847533	12
6	715	1840.148067525066	11
6	716	1841.399191085512	10
6	717	1853.138182511932	9
6	718	1855.199150321904	8
6	719	1857.926468656842	7
6	720	1859.095596312286	6
6	724	1863.991961742857	5
6	725	1871.711879103893	4
6	726	1872.46268938556	3
6	728	1876.226428141584	3
6	729	1876.787128772886	3
6	731	1879.711272229701	3
6	732	1880.07165729587	3
6	736	1883.806687998546	3
6	744	1899.173730523281	3
6	745	1899.23369641765	2
6	747	1902.470646176537	2
6	749	1907.529091213011	3
6	751	1908.263601933055	4
6	752	1909.075225807676	4
6	764	1935.123759178274	4
6	766	1938.497859420328	5
6	769	1944.141296817733	5
6	770	1947.618861592622	4
6	771	1956.354257397164	3
6	772	1961.274493395604	2
6	773	1962.09884422775	1
6	775	1962.257532328165	1
6	776	1964.691764052583	1
6	780	1969.299355942594	1
6	785	1980.594524457635	1
6	786	1980.86761382953	0
6	788	1984.117516746036	0
6	790	1986.044914204507	1
6	792	1989.687237629296	2
6	794	1990.620009507669	3
6	796	1991.781384648472	4
6	800	1995.076524006025	5
6	802	2002.410183816671	5
6	806	2006.317466122254	4
6	808	2008.288417313999	4
6	810	2009.93813881571	5
6	811	2021.570614218967	5
6	813	2025.56978282973	5
6	814	2028.996899398937	5
6	816	2040.550524347734	5
6	820	2041.081053817749	5
6	822	2054.211906877718	5
6	823	2062.754393827118	5
6	825	2065.159803241648	5
6	827	2072.225498533218	6
6	828	2073.958522424726	6
6	829	2075.910765962219	5
6	830	2077.040812199269	4
6	831	2079.772759846149	3
6	833	2080.539873363293	3
6	834	2080.583718910335	3
6	839	2087.090379295645	3
6	841	2088.891266320457	4
6	842	2092.174562054762	4
6	843	2096.42992270921	3
6	844	2096.555362593817	2
6	845	2098.355843115749	1
6	849	2113.333727391544	0
6	851	2113.982284071148	0
6	853	2114.816664513199	1
6	855	2115.391268542159	2
6	857	2116.680605292526	3
6	858	2119.389106145292	3
6	859	2123.980074866156	2
6	860	2127.431992553152	1
6	866	2134.837579236397	1
6	870	2139.045435916166	2
6	874	2143.647369207872	3
6	879	2157.816230141225	4
6	884	2178.162557058013	5
6	887	2180.332846172576	6
6	891	2186.758955664257	7
6	893	2191.137331745992	8
6	895	2194.998118816962	9
6	897	2196.124755564521	10
6	899	2212.959997310986	10
6	904	2215.071349859126	10
6	905	2222.91150525183	10
6	906	2227.034236352851	9
6	907	2227.875045767333	8
6	911	2240.833447909872	7
6	912	2250.656723990068	6
6	913	2252.530033292541	5
6	917	2255.125267489965	5
6	919	2258.251636537411	6
6	924	2269.820350887882	7
6	927	2275.391187735827	8
6	931	2285.943208414918	9
6	933	2288.567040384363	10
6	935	2288.72831507386	11
6	938	2295.55461015028	12
6	940	2295.615227937649	13
6	941	2300.129481181259	13
6	945	2305.385790729079	13
6	948	2311.454745772018	14
6	949	2312.363278538077	14
6	950	2313.565049518994	13
6	952	2319.928991314839	13
6	953	2325.016047027485	13
6	957	2333.186775433459	12
6	961	2339.568903514049	12
6	966	2349.733342124433	12
6	970	2355.215722436468	11
6	971	2355.221323095449	10
6	972	2355.294224655432	9
6	974	2361.142496454305	9
6	975	2361.544075151149	9
6	976	2367.00195499169	8
6	977	2371.698638476031	7
6	979	2373.270587371442	7
6	980	2379.305635625893	7
6	981	2381.335583305344	6
6	982	2386.234868352368	5
6	983	2396.131792802619	4
6	984	2396.372727297419	3
6	988	2400.670039269132	3
6	990	2401.423215500016	4
6	992	2408.130386203546	4
6	993	2409.630108293982	3
6	994	2412.701208087822	2
6	995	2416.010157566802	1
6	1004	2440.135947521906	1
6	1007	2443.649004060011	2
6	1011	2448.608729818361	3
6	1018	2460.892213925155	4
6	1020	2464.399823215664	5
6	1022	2465.102922889915	6
6	1033	2496.33997144847	7
7	152	385.856899874733	0
7	155	408.691715619325	0
7	161	431.309802552221	9.177154302401
7	172	456.940968419394	11.121910789887
7	177	469.954581252758	15.866931420133
7	180	470.601318075828	3.775376169621
7	187	487.505437543639	18.055139624034
7	188	490.805415397688	20.323400738708
7	191	491.244539029608	9.286292776624
7	192	491.497727604151	7.1294881918
7	193	496.942740841784	9.647497054062
7	194	499.414773080336	8.229871031515
7	197	502.727485161096	2.065811900206
7	200	507.395280976871	0
7	206	530.648492201309	0
7	212	543.588478983341	0
7	215	554.755673435099	0
7	218	561.71032848642	6.397065176722
7	221	575.587625228941	0
7	224	579.283341760883	0
7	234	644.495856989563	48.300863789542
7	243	658.300568237237	41.472900637406
7	244	660.346023564943	19.419726127037
7	247	662.610162775133	18.077597643551
7	248	665.400816940342	15.513960253114
7	251	678.954324963358	22.963070671944
7	252	679.778530276376	21.519809094505
7	255	691.249093917857	29.654391555282
7	256	695.205213569943	18.719253378003
7	257	697.605499453847	14.04787392445
7	263	715.94316691285	8.330193723156
7	283	755.085107721597	23.721561610689
7	284	757.202263846122	24.647077629285
7	285	757.385901787973	23.446947552051
7	288	757.897695830376	23.146437331735
7	291	765.700319797924	20.623845621158
7	292	769.302847367158	11.615995255298
7	293	770.899004738645	11.77698511082
7	296	790.217733311095	0
7	307	843.445980311851	45.841077166561
7	308	844.37151881491	34.10793511583
7	311	845.464679000038	0.639540364242
7	323	899.66129007135	14.562016660834
7	329	948.972755669185	0
7	332	950.843979774307	0
7	338	972.02407510722	0
7	341	981.928561880455	0
7	344	1004.842236377678	0
7	350	1025.758625337468	0
7	357	1039.764382436172	13.164165879593
7	360	1042.713328907461	11.676567911376
7	363	1043.032822420895	8.276978107338
7	370	1049.923626255564	7.385943956819
7	380	1068.140937520835	25.237465315772
7	385	1070.325811318058	27.036747804453
7	386	1076.86126843038	30.79732807118
7	399	1107.86317797175	60.416893896809
7	404	1117.459141142844	65.420898735072
7	409	1134.217291350147	76.667021228454
7	410	1136.088832145089	75.056237864759
7	411	1136.791783944335	66.600637114608
7	414	1141.20620264071	70.919360046581
7	415	1143.239613242589	60.40419263741
7	416	1143.488684818521	57.460763960786
7	421	1156.325555577799	62.093814895018
7	422	1158.454309423192	57.197530047532
7	425	1165.354786724272	62.148063345528
7	428	1169.337852064493	63.150987901378
7	429	1171.189426850133	62.018346548794
7	430	1171.715771001244	60.327982008482
7	433	1172.408925033761	50.598993653694
7	434	1175.100167901954	50.73381635988
7	435	1177.84255753729	40.825853019842
7	442	1188.87496990345	39.293440785151
7	443	1190.427723195737	35.857697696253
7	444	1191.935624049248	32.473360367277
7	445	1192.446729369307	25.392092268137
7	454	1209.326080605998	37.604656403026
7	457	1209.821505717344	30.612724212379
7	460	1211.289010912786	24.751812839807
7	463	1214.898814262754	27.007583371565
7	464	1217.751471068421	15.075807869401
7	465	1217.876823569473	13.863177343283
7	470	1245.114531907173	38.627301110178
7	471	1245.121541939253	35.908416367077
7	472	1246.425459694249	36.671864410258
7	477	1255.389739507381	44.448231930503
7	478	1256.556500567478	44.031288916603
7	488	1289.598206178333	70.889644519098
7	489	1301.216680619626	57.6732663893
7	494	1318.570543800933	71.614238944702
7	495	1320.040875486925	71.789033020845
7	496	1321.468154716324	61.797959410436
7	497	1333.069582320241	64.19305337544
7	498	1339.25384594472	50.929025234883
7	499	1347.108587394854	37.264855223106
7	500	1347.193616930594	35.671316096235
7	503	1347.919863570171	0
7	509	1374.868030005294	0
7	512	1379.578036641553	0
7	515	1380.883150806873	0.246213500071
7	518	1392.15735548521	0
7	526	1414.069000096094	12.024714457663
7	527	1415.810266228379	13.201345286393
7	530	1422.721074296431	0
7	533	1434.530211434858	0
7	536	1447.566384208322	0
7	558	1493.472626917393	32.932497167515
7	559	1494.25481098573	28.614944577641
7	560	1495.505809391214	29.399691732547
7	561	1496.995404103314	25.627112455647
7	566	1505.657074208052	26.680122727747
7	579	1548.652007179996	61.990695466161
7	580	1548.771827229869	50.259517036131
7	581	1554.531477282825	49.105949229438
7	582	1554.584398833574	43.650919958978
7	585	1587.558633456668	74.405486872738
7	586	1589.802729341981	67.923242649915
7	587	1590.670858910799	27.292490605386
7	599	1642.981354215148	3.924367326629
7	604	1648.016037837764	4.92100160082
7	605	1651.036303133183	5.490280670594
7	608	1661.634814004436	0
7	611	1671.745289905885	0.165377147123
7	616	1674.857415053656	2.831800491741
7	619	1679.945188011615	6.175517174023
7	624	1682.413846320711	2.997280346919
7	625	1684.430375778165	2.812418539591
7	632	1701.882574807553	20.175050428776
7	639	1705.786761127224	17.616038481786
7	640	1709.195285746028	18.592552209799
7	641	1709.261526293353	16.439498886083
7	642	1709.857267562265	7.665609594794
7	645	1712.605990390959	7.772984023841
7	659	1735.056591982068	29.457440010524
7	660	1738.157579239586	28.126854338718
7	661	1739.405861673999	25.664097834934
7	664	1744.19276848767	29.252523274306
7	697	1813.887879147311	96.230227360878
7	700	1817.314559737483	88.437902625903
7	701	1818.713522730403	85.01941786497
7	706	1822.447188419488	82.318806298303
7	713	1836.755755143897	90.715188686973
7	714	1838.525723847533	76.710464448051
7	715	1840.148067525066	66.352312418193
7	716	1841.399191085512	48.4802556481
7	717	1853.138182511932	50.860738157014
7	718	1855.199150321904	51.522484139559
7	719	1857.926468656842	44.485933806949
7	720	1859.095596312286	44.486337975096
7	723	1861.123228114907	40.720863098734
7	724	1863.991961742857	42.377530436996
7	725	1871.711879103893	44.562849487255
7	726	1872.46268938556	40.318211392609
7	729	1876.787128772886	43.350100189705
7	732	1880.07165729587	19.564336353883
7	743	1897.354245349685	21.127817208101
7	744	1899.173730523281	19.46245829358
7	745	1899.23369641765	15.534222544205
7	752	1909.075225807676	25.26853780913
7	768	1943.833404804975	41.362758628438
7	769	1944.141296817733	36.612205604722
7	770	1947.618861592622	39.355259659567
7	771	1956.354257397164	43.156535644331
7	772	1961.274493395604	26.15073421733
7	773	1962.09884422775	23.600984807422
7	776	1964.691764052583	2.434231724418
7	784	1980.364359405566	15.394410067228
7	785	1980.594524457635	11.295168515041
7	788	1984.117516746036	0
7	801	2000.907096600871	14.862182396364
7	802	2002.410183816671	12.722946187375
7	805	2004.666948733325	14.046939225656
7	806	2006.317466122254	14.536081473782
7	811	2021.570614218967	27.118248849986
7	814	2028.996899398937	33.920375392912
7	819	2041.041695912838	37.855682905951
7	820	2041.081053817749	32.79263650375
7	823	2062.754393827118	52.816255011408
7	828	2073.958522424726	48.388739594996
7	829	2075.910765962219	35.360241614485
7	830	2077.040812199269	36.42568695994
7	831	2079.772759846149	25.560852968431
7	834	2080.583718910335	15.423915668687
7	837	2085.653986423703	13.428487890485
7	842	2092.174562054762	11.634688691469
7	843	2096.42992270921	15.442836239193
7	844	2096.555362593817	9.464983298172
7	845	2098.355843115749	9.464576795292
7	848	2109.055867608331	8.138020725021
7	851	2113.982284071148	0
7	858	2119.389106145292	4.572441632093
7	859	2123.980074866156	8.588806323997
7	860	2127.431992553152	10.751387260626
7	885	2179.953529549399	50.35424969807
7	898	2207.648724107993	72.811144871596
7	899	2212.959997310986	73.91456139482
7	902	2214.274098177038	70.626728969166
7	905	2222.91150525183	65.095275110605
7	906	2227.034236352851	48.871679294838
7	907	2227.875045767333	47.542199594757
7	910	2235.017582652251	51.049547629406
7	911	2240.833447909872	54.074492245615
7	912	2250.656723990068	59.519392244076
7	913	2252.530033292541	57.531914475579
7	920	2263.597170158308	67.472414593787
7	925	2272.761931044087	58.5245939279
7	936	2292.423326597041	77.351976737915
7	941	2300.129481181259	67.785196943188
7	946	2307.608003493749	53.334659891679
7	949	2312.363278538077	57.238011048112
7	950	2313.565049518994	55.313412981583
7	953	2325.016047027485	58.460192281238
7	956	2331.485969497309	61.665618609427
7	957	2333.186775433459	57.795587697632
7	962	2347.063029201433	62.908566164793
7	965	2348.136151850749	62.192943435831
7	966	2349.733342124433	61.16630174007
7	969	2353.787297302418	65.058982228558
7	970	2355.215722436468	59.661112286188
7	971	2355.221323095449	59.6060951578
7	972	2355.294224655432	54.809512712112
7	975	2361.544075151149	56.15828442207
7	976	2367.00195499169	55.547209219672
7	977	2371.698638476031	51.769647161192
7	980	2379.305635625893	51.906885568717
7	981	2381.335583305344	46.023249894305
7	982	2386.234868352368	46.665964838319
7	983	2396.131792802619	48.029653458608
7	984	2396.372727297419	44.476715659763
7	991	2404.154218680648	43.011722226343
7	992	2408.130386203546	34.859798832104
7	993	2409.630108293982	12.324525603809
7	994	2412.701208087822	12.03116881869
7	995	2416.010157566802	14.586942066786
7	1028	2483.388926933214	61.653267840678
7	1031	2494.273256248949	54.137308727043
8	153	392.729268391305	39
8	156	418.529035532523	40
8	162	434.32005922391	41
8	188	490.805415397688	42
8	191	491.244539029608	43
8	192	491.497727604151	44
8	193	496.942740841784	45
8	194	499.414773080336	46
8	198	503.210498973077	47
8	201	510.436254432221	48
8	207	530.994166226931	49
8	213	548.264191836287	50
8	218	561.71032848642	51
8	219	574.477919931109	52
8	222	575.917103906412	53
8	225	579.663445234593	54
8	244	660.346023564943	55
8	247	662.610162775133	56
8	248	665.400816940342	57
8	252	679.778530276376	58
8	255	691.249093917857	59
8	256	695.205213569943	60
8	257	697.605499453847	61
8	258	703.160620253461	62
8	264	718.871748320257	63
8	284	757.202263846122	64
8	285	757.385901787973	65
8	288	757.897695830376	66
8	292	769.302847367158	67
8	293	770.899004738645	68
8	294	778.329692370328	69
8	297	790.261576990696	70
8	308	844.37151881491	71
8	311	845.464679000038	72
8	312	850.633997656302	73
8	324	902.828296614244	74
8	330	949.541629639123	75
8	333	952.373569419326	76
8	339	974.203014488277	77
8	342	985.358571796312	78
8	345	1007.27862549976	79
8	360	1042.713328907461	80
8	363	1043.032822420895	81
8	385	1070.325811318058	82
8	386	1076.86126843038	83
8	404	1117.459141142844	84
8	409	1134.217291350147	85
8	410	1136.088832145089	86
8	411	1136.791783944335	87
8	415	1143.239613242589	88
8	416	1143.488684818521	89
8	422	1158.454309423192	90
8	428	1169.337852064493	91
8	429	1171.189426850133	92
8	430	1171.715771001244	93
8	433	1172.408925033761	94
8	434	1175.100167901954	95
8	435	1177.84255753729	96
8	442	1188.87496990345	97
8	443	1190.427723195737	98
8	444	1191.935624049248	99
8	445	1192.446729369307	100
8	463	1214.898814262754	101
8	464	1217.751471068421	102
8	465	1217.876823569473	103
8	471	1245.121541939253	104
8	472	1246.425459694249	105
8	477	1255.389739507381	106
8	478	1256.556500567478	107
8	489	1301.216680619626	108
8	495	1320.040875486925	109
8	496	1321.468154716324	110
8	497	1333.069582320241	111
8	498	1339.25384594472	112
8	499	1347.108587394854	113
8	500	1347.193616930594	114
8	501	1347.449959224708	115
8	504	1351.498780959691	116
8	510	1375.591678938516	117
8	515	1380.883150806873	118
8	516	1384.414373081822	119
8	527	1415.810266228379	120
8	528	1420.256953707169	121
8	531	1426.130284316771	122
8	534	1436.509507929456	123
8	537	1451.4536028752	124
8	559	1494.25481098573	125
8	560	1495.505809391214	126
8	561	1496.995404103314	127
8	566	1505.657074208052	128
8	580	1548.771827229869	129
8	581	1554.531477282825	130
8	582	1554.584398833574	131
8	585	1587.558633456668	132
8	586	1589.802729341981	133
8	587	1590.670858910799	134
8	588	1592.595170432731	135
8	604	1648.016037837764	136
8	605	1651.036303133183	137
8	606	1651.209349462469	138
8	611	1671.745289905885	139
8	616	1674.857415053656	140
8	619	1679.945188011615	141
8	624	1682.413846320711	142
8	625	1684.430375778165	143
8	639	1705.786761127224	144
8	640	1709.195285746028	145
8	641	1709.261526293353	146
8	642	1709.857267562265	147
8	645	1712.605990390959	148
8	660	1738.157579239586	149
8	661	1739.405861673999	150
8	664	1744.19276848767	151
8	700	1817.314559737483	152
8	701	1818.713522730403	153
8	706	1822.447188419488	154
8	714	1838.525723847533	155
8	715	1840.148067525066	156
8	716	1841.399191085512	157
8	717	1853.138182511932	158
8	718	1855.199150321904	159
8	719	1857.926468656842	160
8	720	1859.095596312286	161
8	724	1863.991961742857	162
8	725	1871.711879103893	163
8	726	1872.46268938556	164
8	729	1876.787128772886	165
8	732	1880.07165729587	166
8	744	1899.173730523281	167
8	745	1899.23369641765	168
8	752	1909.075225807676	169
8	769	1944.141296817733	170
8	770	1947.618861592622	171
8	771	1956.354257397164	172
8	772	1961.274493395604	173
8	773	1962.09884422775	174
8	776	1964.691764052583	175
8	785	1980.594524457635	176
8	786	1980.86761382953	177
8	802	2002.410183816671	178
8	806	2006.317466122254	179
8	811	2021.570614218967	180
8	814	2028.996899398937	181
8	820	2041.081053817749	182
8	823	2062.754393827118	183
8	828	2073.958522424726	184
8	829	2075.910765962219	185
8	830	2077.040812199269	186
8	831	2079.772759846149	187
8	834	2080.583718910335	188
8	842	2092.174562054762	189
8	843	2096.42992270921	190
8	844	2096.555362593817	191
8	845	2098.355843115749	192
8	849	2113.333727391544	193
8	858	2119.389106145292	194
8	859	2123.980074866156	195
8	860	2127.431992553152	196
8	899	2212.959997310986	197
8	905	2222.91150525183	198
8	906	2227.034236352851	199
8	907	2227.875045767333	200
8	911	2240.833447909872	201
8	912	2250.656723990068	202
8	913	2252.530033292541	203
8	941	2300.129481181259	204
8	949	2312.363278538077	205
8	950	2313.565049518994	206
8	953	2325.016047027485	207
8	957	2333.186775433459	208
8	966	2349.733342124433	209
8	970	2355.215722436468	210
8	971	2355.221323095449	211
8	972	2355.294224655432	212
8	975	2361.544075151149	213
8	976	2367.00195499169	214
8	977	2371.698638476031	215
8	980	2379.305635625893	216
8	981	2381.335583305344	217
8	982	2386.234868352368	218
8	983	2396.131792802619	219
8	984	2396.372727297419	220
8	992	2408.130386203546	221
8	993	2409.630108293982	222
8	994	2412.701208087822	223
8	995	2416.010157566802	224
9	153	392.729268391305	6.872368516572
9	156	418.529035532523	9.837319913198
9	162	434.32005922391	12.18741097409
9	188	490.805415397688	21.355117478083
9	191	491.244539029608	20.762524370628
9	192	491.497727604151	9.539481351167
9	193	496.942740841784	12.574501429433
9	194	499.414773080336	12.119529292614
9	198	503.210498973077	2.548825712187
9	201	510.436254432221	3.04097345535
9	207	530.994166226931	0.345674025622
9	213	548.264191836287	4.675712852946
9	218	561.71032848642	6.954655051321
9	219	574.477919931109	19.164656621411
9	222	575.917103906412	0.329478677471
9	225	579.663445234593	0.38010347371
9	244	660.346023564943	43.518355965112
9	247	662.610162775133	21.683865337227
9	248	665.400816940342	20.86825180876
9	252	679.778530276376	23.787275984962
9	255	691.249093917857	32.990372735986
9	256	695.205213569943	33.610511207368
9	257	697.605499453847	21.119539261907
9	258	703.160620253461	19.602994724064
9	264	718.871748320257	11.258775130563
9	284	757.202263846122	25.838717735214
9	285	757.385901787973	24.830715571136
9	288	757.897695830376	23.958741594454
9	292	769.302847367158	24.226373190392
9	293	770.899004738645	13.212152626785
9	294	778.329692370328	19.207672742503
9	297	790.261576990696	0.043843679601
9	308	844.37151881491	46.76661566962
9	311	845.464679000038	35.201095300958
9	312	850.633997656302	5.808859020506
9	324	902.828296614244	17.729023203728
9	330	949.541629639123	0.568873969938
9	333	952.373569419326	1.529589645019
9	339	974.203014488277	2.178939381057
9	342	985.358571796312	3.430009915857
9	345	1007.27862549976	2.436389122082
9	360	1042.713328907461	16.113112350882
9	363	1043.032822420895	11.99606142481
9	385	1070.325811318058	27.422339112995
9	386	1076.86126843038	33.572204916775
9	404	1117.459141142844	70.012857067903
9	409	1134.217291350147	82.179048942375
9	410	1136.088832145089	78.538562023396
9	411	1136.791783944335	75.759189664005
9	415	1143.239613242589	72.95277064846
9	416	1143.488684818521	60.653264213342
9	422	1158.454309423192	64.222568740411
9	428	1169.337852064493	66.131128685749
9	429	1171.189426850133	65.002562687018
9	430	1171.715771001244	62.544690699905
9	433	1172.408925033761	61.021136040999
9	434	1175.100167901954	53.290236521887
9	435	1177.84255753729	53.476205995216
9	442	1188.87496990345	51.858265386002
9	443	1190.427723195737	40.846194077438
9	444	1191.935624049248	37.365598549764
9	445	1192.446729369307	32.984465687336
9	463	1214.898814262754	28.361616189775
9	464	1217.751471068421	29.860240177232
9	465	1217.876823569473	15.201160370453
9	471	1245.121541939253	38.634311142258
9	472	1246.425459694249	37.212334122073
9	477	1255.389739507381	45.63614422339
9	478	1256.556500567478	45.6149929906
9	489	1301.216680619626	82.508118960391
9	495	1320.040875486925	73.084570630694
9	496	1321.468154716324	73.216312250244
9	497	1333.069582320241	73.399387014353
9	498	1339.25384594472	70.377316999919
9	499	1347.108587394854	58.783766685017
9	500	1347.193616930594	37.349884758846
9	501	1347.449959224708	35.927658390349
9	504	1351.498780959691	3.57891738952
9	510	1375.591678938516	0.723648933222
9	515	1380.883150806873	1.30511416532
9	516	1384.414373081822	3.77743577502
9	527	1415.810266228379	13.765980589948
9	528	1420.256953707169	17.648032765183
9	531	1426.130284316771	3.40921002034
9	534	1436.509507929456	1.979296494598
9	537	1451.4536028752	3.887218666878
9	559	1494.25481098573	33.714681235852
9	560	1495.505809391214	29.865942983125
9	561	1496.995404103314	30.889286444647
9	566	1505.657074208052	34.288782560385
9	580	1548.771827229869	62.110515516034
9	581	1554.531477282825	56.019167089087
9	582	1554.584398833574	49.158870780187
9	585	1587.558633456668	76.625154582072
9	586	1589.802729341981	76.649582758051
9	587	1590.670858910799	68.791372218733
9	588	1592.595170432731	29.216802127318
9	604	1648.016037837764	8.959050949245
9	605	1651.036303133183	7.941266896239
9	606	1651.209349462469	5.66332699988
9	611	1671.745289905885	10.110475901449
9	616	1674.857415053656	3.277502294894
9	619	1679.945188011615	7.9195734497
9	624	1682.413846320711	8.644175483119
9	625	1684.430375778165	5.013809804373
9	639	1705.786761127224	24.079236748447
9	640	1709.195285746028	21.02456310059
9	641	1709.261526293353	18.658792757124
9	642	1709.857267562265	17.035240154995
9	645	1712.605990390959	10.414332423488
9	660	1738.157579239586	32.558427268042
9	661	1739.405861673999	29.375136773131
9	664	1744.19276848767	30.451004648605
9	700	1817.314559737483	99.65690795105
9	701	1818.713522730403	89.836865618823
9	706	1822.447188419488	88.753083554055
9	714	1838.525723847533	92.485157390609
9	715	1840.148067525066	78.332808125584
9	716	1841.399191085512	67.603435978639
9	717	1853.138182511932	60.21924707452
9	718	1855.199150321904	52.921705966986
9	719	1857.926468656842	54.249802474497
9	720	1859.095596312286	45.655061462393
9	724	1863.991961742857	43.589596726684
9	725	1871.711879103893	50.097447798032
9	726	1872.46268938556	45.313659768922
9	729	1876.787128772886	44.642650779935
9	732	1880.07165729587	46.634628712689
9	744	1899.173730523281	22.947302381697
9	745	1899.23369641765	19.522424187949
9	752	1909.075225807676	25.375751934231
9	769	1944.141296817733	41.670650641196
9	770	1947.618861592622	40.089770379611
9	771	1956.354257397164	48.090655464109
9	772	1961.274493395604	48.076771642771
9	773	1962.09884422775	26.975085049476
9	776	1964.691764052583	26.193904632255
9	785	1980.594524457635	15.624575119297
9	786	1980.86761382953	11.568257886936
9	802	2002.410183816671	16.365269612164
9	806	2006.317466122254	15.697456614585
9	811	2021.570614218967	29.789229570495
9	814	2028.996899398937	34.544534029956
9	820	2041.081053817749	37.895040810862
9	823	2062.754393827118	54.465976513119
9	828	2073.958522424726	64.020383609016
9	829	2075.910765962219	50.340983132489
9	830	2077.040812199269	36.490287851535
9	831	2079.772759846149	39.15763460682
9	834	2080.583718910335	26.371812032617
9	842	2092.174562054762	19.949063521544
9	843	2096.42992270921	15.890049345917
9	844	2096.555362593817	15.5682761238
9	845	2098.355843115749	11.265463820104
9	849	2113.333727391544	12.415880508234
9	858	2119.389106145292	5.406822074144
9	859	2123.980074866156	9.163410352957
9	860	2127.431992553152	12.040724010993
9	899	2212.959997310986	78.122418074589
9	905	2222.91150525183	79.264136043958
9	906	2227.034236352851	69.218006211626
9	907	2227.875045767333	49.71248870932
9	911	2240.833447909872	56.865412887027
9	912	2250.656723990068	63.897768325811
9	913	2252.530033292541	61.392701546549
9	941	2300.129481181259	85.058131322133
9	949	2312.363278538077	58.089934936007
9	950	2313.565049518994	58.439782029029
9	953	2325.016047027485	66.764410490074
9	957	2333.186775433459	63.366424545577
9	966	2349.733342124433	63.790133709515
9	970	2355.215722436468	66.487407362608
9	971	2355.221323095449	59.666712945169
9	972	2355.294224655432	59.678996717783
9	975	2361.544075151149	61.059363207829
9	976	2367.00195499169	61.616164262611
9	977	2371.698638476031	60.243892704013
9	980	2379.305635625893	59.376644311054
9	981	2381.335583305344	53.936833248168
9	982	2386.234868352368	50.922534941329
9	983	2396.131792802619	56.56288928857
9	984	2396.372727297419	48.270587953408
9	992	2408.130386203546	46.987889749241
9	993	2409.630108293982	36.35952092254
9	994	2412.701208087822	15.395625397649
9	995	2416.010157566802	15.34011829767
10	176	469.450297919605	7
10	179	470.48201465898	8
10	186	487.295243787722	9
10	196	500.66167326089	10
10	236	644.532565131582	11
10	250	676.48596019194	12
10	290	759.122019627825	13
10	354	1031.036760996085	14
10	369	1047.446284074941	15
10	372	1052.038242407772	16
10	388	1082.835420605179	17
10	413	1137.016704517448	18
10	418	1149.581529118299	19
10	424	1159.462263681971	20
10	451	1206.487230796995	21
10	456	1209.753595283991	22
10	459	1210.941507576878	23
10	467	1218.708561659235	24
10	480	1259.670195305888	25
10	491	1309.843732171748	26
10	520	1402.044285638431	27
10	570	1513.15314658393	28
10	629	1690.602733536229	29
10	651	1717.657651786433	30
10	666	1746.040566456924	31
10	710	1832.144477992951	32
10	722	1860.507320941987	33
10	734	1883.699473873445	34
10	754	1913.197721752833	35
10	778	1964.969949338338	36
10	798	1994.452365368981	37
10	804	2003.186013006887	38
10	818	2040.615125239329	39
10	836	2080.987086470017	40
10	847	2100.91784688331	41
10	862	2129.599279851329	42
10	889	2183.968035022845	43
10	901	2214.237337116187	44
10	909	2232.344284238071	45
10	915	2254.27334360207	46
10	922	2266.555854746247	47
10	929	2284.15446303664	48
10	943	2300.48471194332	49
10	955	2327.398750057176	50
10	959	2335.312333411039	51
10	964	2348.102139344011	52
10	968	2351.896011637656	53
10	986	2397.305582690173	54
10	997	2421.735659092536	55
10	1030	2483.711986540473	56
11	1034	2500	0.0896
12	1034	2500	0.046

