file 60042 1678560027                                           
version 2
run experiments_hard_game_mode1-307-20230311-19:40:27-6201
attr configname experiments_hard_game_mode1
attr datetime 20230311-19:40:27
attr experiment experiments_hard_game_mode1
attr inifile omnetpp.ini
attr iterationvars "$0=8, $1=3, $2=0"
attr iterationvarsf 8,3,0-
attr measurement "$0=8, $1=3, $2=0"
attr network Network
attr processid 6201
attr repetition 7
attr replication #7
attr resultdir results
attr runnumber 307
attr seedset 7
param *.boss.arrival_mean 20
param *.boss.service_mean 8
param *.minion.arrival_mean 10
param *.minion.service_mean 3
param *.player.recover_rate_x 0
param **.minion.arrival_distribution 0
param **.minion.service_distribution 0
param **.boss.arrival_distribution 0
param **.boss.service_distribution 0

vector 0 Network.player boss_jobs_number_stat:vector ETV
attr source signal_boss_jobs_number
vector 1 Network.player boss_jobs_queue_number_stat:vector ETV
attr source signal_boss_jobs_queue_number
vector 2 Network.player boss_waiting_time_stat:vector ETV
attr source signal_boss_waiting_time
vector 3 Network.player minion_jobs_number_stat:vector ETV
attr source signal_minion_jobs_number
vector 4 Network.player minion_jobs_queue_number_stat:vector ETV
attr source signal_minion_jobs_queue_number
vector 5 Network.player boss_defeated_stat:vector ETV
attr source signal_boss_defeated
vector 6 Network.player boss_response_time_stat:vector ETV
attr source signal_boss_response_time
vector 7 Network.player minion_waiting_time_stat:vector ETV
attr source signal_minion_waiting_time
vector 8 Network.player minion_defeated_stat:vector ETV
attr source signal_minion_defeated
vector 9 Network.player minion_response_time_stat:vector ETV
attr source signal_minion_response_time
vector 10 Network.player minion_recovered_stat:vector ETV
attr source signal_minion_recovered
vector 11 Network.player minion_throughput:vector ETV
attr source signal_minion_throughput
vector 12 Network.player boss_throughput:vector ETV
attr source signal_boss_throughput
0	2000 2850 122 1064 354.444077836132 2480.556299264915 111 1 4 159 275
1	4850 5703 122 1065 354.444077836132 2491.773203780517 222 0 3 96 136
2	10553 3362 122 1064 354.444077836132 2480.556299264915 111 0 39.224743269916 277.64054568293 5179.8676313769
3	13915 5278 124 1067 362.779012560417 2493.238974334309 205 1 13 607 3323
4	19193 10520 124 1067 362.779012560417 2493.238974334309 409 0 12 804 4628
5	29713 2988 125 1065 373.564382143381 2491.773203780517 111 13 123 7548 627224
6	32701 4321 125 1065 373.564382143381 2491.773203780517 111 0.059314675657 43.958996975027 1039.0346386484 18680.214248843
7	37022 8506 125 1067 373.564382143381 2493.238974334309 239 0 78.906522243805 3565.2111461741 147527.53778356
8	45528 5571 126 1062 376.394383566534 2478.099656186068 204 29 232 26622 4181626
9	51099 7967 126 1062 376.394383566534 2478.099656186068 204 0.021237837985 80.314861518302 3534.3068498998 138931.25622727
10	59066 935 154 1050 436.114629776888 2456.915004370078 34 4 37 697 17561
11	60001 20 1068 1068 2500 2500 1 0.0928 0.0928 0.0928 0.00861184
12	60021 20 1068 1068 2500 2500 1 0.0492 0.0492 0.0492 0.00242064

