file 56441 1678560298                                           
version 2
run experiments_hard_game_mode1-1519-20230311-19:44:58-12670
attr configname experiments_hard_game_mode1
attr datetime 20230311-19:44:58
attr experiment experiments_hard_game_mode1
attr inifile omnetpp.ini
attr iterationvars "$0=10, $1=3, $2=0"
attr iterationvarsf 10,3,0-
attr measurement "$0=10, $1=3, $2=0"
attr network Network
attr processid 12670
attr repetition 19
attr replication #19
attr resultdir results
attr runnumber 1519
attr seedset 19
param *.boss.arrival_mean 20
param *.boss.service_mean 10
param *.minion.arrival_mean 10
param *.minion.service_mean 3
param *.player.recover_rate_x 0
param **.minion.arrival_distribution 0
param **.minion.service_distribution 0
param **.boss.arrival_distribution 0
param **.boss.service_distribution 0

vector 0 Network.player boss_jobs_number_stat:vector ETV
attr source signal_boss_jobs_number
vector 1 Network.player boss_jobs_queue_number_stat:vector ETV
attr source signal_boss_jobs_queue_number
vector 2 Network.player boss_waiting_time_stat:vector ETV
attr source signal_boss_waiting_time
vector 3 Network.player boss_defeated_stat:vector ETV
attr source signal_boss_defeated
vector 4 Network.player boss_response_time_stat:vector ETV
attr source signal_boss_response_time
vector 5 Network.player minion_jobs_number_stat:vector ETV
attr source signal_minion_jobs_number
vector 6 Network.player minion_jobs_queue_number_stat:vector ETV
attr source signal_minion_jobs_queue_number
vector 7 Network.player minion_waiting_time_stat:vector ETV
attr source signal_minion_waiting_time
vector 8 Network.player minion_defeated_stat:vector ETV
attr source signal_minion_defeated
vector 9 Network.player minion_response_time_stat:vector ETV
attr source signal_minion_response_time
vector 10 Network.player minion_recovered_stat:vector ETV
attr source signal_minion_recovered
vector 11 Network.player minion_throughput:vector ETV
attr source signal_minion_throughput
vector 12 Network.player boss_throughput:vector ETV
attr source signal_boss_throughput
0	2011 2673 149 1029 383.641814753773 2483.711986540473 104 1 5 171 377
1	4684 5322 149 1033 383.641814753773 2498.802243893383 207 0 4 134 278
2	10006 3225 149 1033 383.641814753773 2498.802243893383 104 0 47.351740762361 658.00324232118 16475.206960171
3	13231 2767 150 1033 385.669904157712 2498.802243893383 103 12 114 6489 499859
4	15998 4041 150 1033 385.669904157712 2498.802243893383 103 0.14912927106 63.405087861193 1743.4697188819 51880.600455232
5	20039 5007 152 1032 385.856899874733 2496.33997144847 194 1 14 759 5037
6	25046 9820 152 1032 385.856899874733 2496.33997144847 381 0 13 1109 7335
7	34866 8139 152 995 385.856899874733 2407.851747365654 221 0 92.038538047924 5251.4869678779 245696.91746495
8	43005 5120 153 996 389.980320984676 2413.900917548459 187 39 225 24684 3803206
9	48125 7341 153 996 389.980320984676 2413.900917548459 187 0.026306207761 97.220982292799 4781.7275887437 223881.04238072
10	55466 936 163 975 435.937457159369 2351.896011637656 34 5 38 731 18989
11	56402 18 1034 1034 2500 2500 1 0.09 0.09 0.09 0.0081
12	56420 20 1034 1034 2500 2500 1 0.0456 0.0456 0.0456 0.00207936

