version 2
run experiments_hard_game_mode1-976-20230311-19:42:49-9732
attr configname experiments_hard_game_mode1
attr datetime 20230311-19:42:49
attr experiment experiments_hard_game_mode1
attr inifile omnetpp.ini
attr iterationvars "$0=9, $1=4, $2=0"
attr iterationvarsf 9,4,0-
attr measurement "$0=9, $1=4, $2=0"
attr network Network
attr processid 9732
attr repetition 16
attr replication #16
attr resultdir results
attr runnumber 976
attr seedset 16
param *.boss.arrival_mean 20
param *.boss.service_mean 9
param *.minion.arrival_mean 10
param *.minion.service_mean 4
param *.player.recover_rate_x 0
param **.minion.arrival_distribution 0
param **.minion.service_distribution 0
param **.boss.arrival_distribution 0
param **.boss.service_distribution 0

vector 0 Network.player boss_defeated_stat:vector ETV
attr source signal_boss_defeated
vector 1 Network.player boss_jobs_queue_number_stat:vector ETV
attr source signal_boss_jobs_queue_number
vector 2 Network.player boss_response_time_stat:vector ETV
attr source signal_boss_response_time
vector 3 Network.player boss_waiting_time_stat:vector ETV
attr source signal_boss_waiting_time
vector 4 Network.player minion_jobs_number_stat:vector ETV
attr source signal_minion_jobs_number
vector 5 Network.player minion_jobs_queue_number_stat:vector ETV
attr source signal_minion_jobs_queue_number
vector 6 Network.player boss_jobs_number_stat:vector ETV
attr source signal_boss_jobs_number
vector 7 Network.player minion_waiting_time_stat:vector ETV
attr source signal_minion_waiting_time
vector 8 Network.player minion_defeated_stat:vector ETV
attr source signal_minion_defeated
vector 9 Network.player minion_response_time_stat:vector ETV
attr source signal_minion_response_time
vector 10 Network.player minion_recovered_stat:vector ETV
attr source signal_minion_recovered
vector 11 Network.player minion_throughput:vector ETV
attr source signal_minion_throughput
vector 12 Network.player boss_throughput:vector ETV
attr source signal_boss_throughput
0	149	356.219262426609	20
0	156	371.718230863792	21
0	157	373.57190559243	22
0	158	381.637420296903	23
0	164	391.121578192386	24
0	167	395.161844191495	25
0	177	401.696642937034	26
0	180	405.102678598552	27
0	185	411.895580726397	28
0	196	426.685040002322	29
0	204	437.741189206426	30
0	228	480.584926064283	31
0	249	535.580672783207	32
0	250	538.257147517583	33
0	255	550.981065856652	34
0	256	551.081652902008	35
0	271	570.728477993193	36
0	290	593.997341596154	37
0	307	635.727556833656	38
0	319	658.501026967392	39
0	330	675.090482779285	40
0	331	675.487825226783	41
0	336	686.469709482541	42
0	351	714.381303947513	43
0	352	720.163808994046	44
0	353	724.726466103695	45
0	354	733.90902491972	46
0	370	760.50785486784	47
0	375	770.599029146158	48
0	378	772.984250459787	49
0	382	775.450093804946	50
0	390	786.125610453948	51
0	405	819.799553197782	52
0	416	827.025766501163	53
0	417	833.039473956669	54
0	428	844.133159151499	55
0	433	846.95230556372	56
0	444	874.552442064421	57
0	445	878.423866892653	58
0	452	886.71389620539	59
0	453	887.234401756764	60
0	454	891.865669358386	61
0	457	906.470274843741	62
0	460	910.415845581956	63
0	465	945.972202524013	64
0	468	961.11819402946	65
0	473	980.934782506708	66
0	476	984.114589029739	67
0	479	985.032009541228	68
0	482	992.111504851128	69
0	485	995.742813680341	70
0	498	1025.43437059768	71
0	509	1047.404418102001	72
0	510	1049.227821366594	73
0	511	1049.617825016597	74
0	514	1061.335315894348	75
0	521	1073.13106288961	76
0	526	1085.023718065577	77
0	535	1092.960201023091	78
0	538	1093.385346188672	79
0	539	1094.255409217593	80
0	550	1125.691194485587	81
0	557	1144.186907925984	82
0	560	1148.352995267559	83
0	563	1154.47428801303	84
0	570	1179.576608602475	85
0	633	1273.265394200835	86
0	636	1276.14638256912	87
0	641	1294.124183381421	88
0	670	1355.084542427786	89
0	693	1383.810253695741	90
0	694	1387.084486867356	91
0	705	1413.208676752541	92
0	706	1414.554076737888	93
0	707	1419.756172288536	94
0	712	1452.997531957418	95
0	715	1456.176891902435	96
0	726	1473.326815050251	97
0	737	1495.140330295493	98
0	738	1515.379323681774	99
0	743	1532.567784056553	100
0	744	1536.503231092078	101
0	748	1544.780383325714	102
0	783	1612.558848675891	103
0	784	1619.368963814539	104
0	785	1623.973712400037	105
0	791	1643.7874649952	106
0	801	1659.879657609193	107
0	811	1679.506754662323	108
0	812	1684.845611410245	109
0	823	1704.489896445117	110
0	846	1756.475213101302	111
0	849	1760.678980605384	112
0	861	1781.269082605286	113
0	871	1805.998823251112	114
0	872	1808.466433479317	115
0	908	1902.915510759831	116
0	911	1913.06804056859	117
0	912	1914.116800607321	118
0	913	1919.16296948298	119
0	914	1924.279491263996	120
0	918	1928.660189754969	121
0	925	1951.14157684208	122
0	926	1952.623703407079	123
0	937	1961.805530877276	124
0	943	1982.063359234617	125
0	950	1996.373467656257	126
0	965	2026.909492285845	127
0	966	2028.635031159173	128
0	969	2037.778733833647	129
0	970	2039.908355468776	130
0	1003	2107.718890798569	131
0	1004	2107.937961235935	132
0	1005	2114.673390565887	133
0	1006	2115.619531907825	134
0	1009	2118.148226746687	135
0	1020	2139.631018166294	136
0	1023	2139.890722293589	137
0	1026	2150.446642224462	138
0	1029	2161.006535923146	139
0	1048	2199.436376818095	140
0	1049	2202.600509793738	141
0	1056	2218.257684926046	142
0	1057	2231.484384992976	143
0	1060	2235.654352083103	144
0	1080	2253.102818601524	145
0	1096	2296.959891635449	146
0	1107	2316.459078380733	147
0	1161	2385.125223077185	148
0	1167	2399.220872676807	149
0	1173	2416.544317770643	150
0	1182	2428.963620283468	151
0	1200	2455.288532384925	152
0	1205	2456.949233028479	153
0	1209	2462.096906251709	154
1	149	356.219262426609	2
1	155	369.138949755894	2
1	156	371.718230863792	2
1	157	373.57190559243	1
1	158	381.637420296903	0
1	163	385.453117749827	0
1	164	391.121578192386	0
1	166	392.547813056844	0
1	167	395.161844191495	0
1	174	400.238876986431	0
1	176	400.875830780534	1
1	177	401.696642937034	1
1	179	402.148108483634	1
1	180	405.102678598552	1
1	185	411.895580726397	0
1	195	424.812540692519	0
1	196	426.685040002322	0
1	201	429.941475816797	0
1	204	437.741189206426	0
1	221	476.703449272382	0
1	228	480.584926064283	0
1	230	483.215547513179	0
1	236	497.665056686089	1
1	242	502.518415000999	2
1	246	518.010136143749	3
1	249	535.580672783207	3
1	250	538.257147517583	2
1	255	550.981065856652	1
1	256	551.081652902008	0
1	266	567.422534967774	0
1	271	570.728477993193	0
1	289	589.254921646886	0
1	290	593.997341596154	0
1	306	633.612335763276	0
1	307	635.727556833656	0
1	316	653.717876567391	0
1	318	656.162405383807	1
1	319	658.501026967392	1
1	321	664.883556027538	1
1	323	665.805119266422	2
1	325	666.345196335487	3
1	330	675.090482779285	3
1	331	675.487825226783	2
1	333	681.955333536092	2
1	335	685.56874799801	3
1	336	686.469709482541	3
1	348	711.427100791882	3
1	351	714.381303947513	3
1	352	720.163808994046	2
1	353	724.726466103695	1
1	354	733.90902491972	0
1	365	753.719190786411	0
1	367	758.457762291243	1
1	369	759.862359115068	2
1	370	760.50785486784	2
1	375	770.599029146158	1
1	378	772.984250459787	0
1	381	773.592507289388	0
1	382	775.450093804946	0
1	387	782.804215248613	0
1	390	786.125610453948	0
1	402	812.083228163358	0
1	404	814.53789680283	1
1	405	819.799553197782	1
1	409	821.314613689265	1
1	411	823.339640693145	2
1	413	824.380758877111	3
1	415	826.130509309885	4
1	416	827.025766501163	4
1	417	833.039473956669	3
1	419	840.108369561828	3
1	423	841.927159132011	4
1	425	843.753911163271	5
1	428	844.133159151499	5
1	430	844.204056085925	5
1	432	844.767347024862	6
1	433	846.95230556372	6
1	443	874.251744450862	6
1	444	874.552442064421	6
1	445	878.423866892653	5
1	449	881.630829256108	5
1	451	882.640125728282	6
1	452	886.71389620539	6
1	453	887.234401756764	5
1	454	891.865669358386	4
1	456	895.753310537335	4
1	457	906.470274843741	4
1	459	908.271428453241	4
1	460	910.415845581956	4
1	462	916.148443900527	4
1	465	945.972202524013	4
1	468	961.11819402946	3
1	470	972.831961978536	3
1	472	979.360375048207	4
1	473	980.934782506708	4
1	476	984.114589029739	3
1	478	984.240373431469	3
1	479	985.032009541228	3
1	482	992.111504851128	2
1	484	994.891896571427	2
1	485	995.742813680341	2
1	489	1003.858883076407	2
1	493	1015.591232681327	3
1	495	1016.22762365404	4
1	498	1025.43437059768	4
1	506	1037.619457588496	4
1	508	1044.868849600906	5
1	509	1047.404418102001	5
1	510	1049.227821366594	4
1	511	1049.617825016597	3
1	514	1061.335315894348	2
1	516	1065.665815288377	2
1	520	1069.837508154843	3
1	521	1073.13106288961	3
1	525	1083.0195610608	3
1	526	1085.023718065577	3
1	528	1085.716712364398	3
1	534	1091.165896348159	4
1	535	1092.960201023091	4
1	538	1093.385346188672	3
1	539	1094.255409217593	2
1	541	1101.862008106945	2
1	545	1110.640880361671	3
1	550	1125.691194485587	3
1	557	1144.186907925984	2
1	560	1148.352995267559	1
1	563	1154.47428801303	0
1	569	1168.530077245097	0
1	570	1179.576608602475	0
1	628	1268.922055384295	0
1	630	1269.704014982941	1
1	633	1273.265394200835	1
1	636	1276.14638256912	0
1	640	1289.557095687291	0
1	641	1294.124183381421	0
1	667	1352.506855732944	0
1	670	1355.084542427786	0
1	682	1370.404388530883	0
1	686	1373.105114693269	1
1	688	1380.113067217977	2
1	692	1381.736131665	3
1	693	1383.810253695741	3
1	694	1387.084486867356	2
1	700	1398.191573523998	2
1	702	1401.824001929381	3
1	704	1411.331822722844	4
1	705	1413.208676752541	4
1	706	1414.554076737888	3
1	707	1419.756172288536	2
1	712	1452.997531957418	1
1	715	1456.176891902435	0
1	725	1473.250787678847	0
1	726	1473.326815050251	0
1	730	1484.54545862394	0
1	732	1490.786627567511	1
1	737	1495.140330295493	1
1	738	1515.379323681774	0
1	740	1515.939404877614	0
1	742	1518.058639666684	1
1	743	1532.567784056553	1
1	744	1536.503231092078	0
1	747	1541.328091502649	0
1	748	1544.780383325714	0
1	770	1588.998828454145	0
1	778	1591.826544490865	1
1	782	1607.947249559554	2
1	783	1612.558848675891	2
1	784	1619.368963814539	1
1	785	1623.973712400037	0
1	788	1626.570445940533	0
1	791	1643.7874649952	0
1	800	1654.192015298371	0
1	801	1659.879657609193	0
1	808	1674.039597021772	0
1	810	1676.296778732605	1
1	811	1679.506754662323	1
1	812	1684.845611410245	0
1	822	1704.085550962152	0
1	823	1704.489896445117	0
1	833	1734.959901667771	0
1	839	1750.512206608145	1
1	846	1756.475213101302	1
1	849	1760.678980605384	0
1	856	1772.016630625158	0
1	861	1781.269082605286	0
1	866	1784.953323999097	0
1	868	1793.940302291954	1
1	871	1805.998823251112	1
1	872	1808.466433479317	0
1	893	1863.116674614531	0
1	899	1884.1048210951	1
1	901	1886.579840852465	2
1	905	1891.821254052115	3
1	907	1901.129284237924	4
1	908	1902.915510759831	4
1	911	1913.06804056859	3
1	912	1914.116800607321	2
1	913	1919.16296948298	1
1	914	1924.279491263996	0
1	917	1926.365454818449	0
1	918	1928.660189754969	0
1	922	1944.433785012692	0
1	924	1950.622018393725	1
1	925	1951.14157684208	1
1	926	1952.623703407079	0
1	932	1957.125124651231	0
1	937	1961.805530877276	0
1	940	1976.624516113971	0
1	942	1977.707499429506	1
1	943	1982.063359234617	1
1	950	1996.373467656257	0
1	956	2011.380908373739	0
1	960	2024.89113310012	1
1	962	2025.694562311325	2
1	965	2026.909492285845	2
1	966	2028.635031159173	1
1	968	2037.032684837172	1
1	969	2037.778733833647	1
1	970	2039.908355468776	0
1	978	2054.92630997997	0
1	982	2066.558161474897	1
1	990	2074.312271274971	2
1	994	2085.148294294305	3
1	996	2099.473183195357	4
1	998	2102.146138877737	5
1	1003	2107.718890798569	5
1	1004	2107.937961235935	4
1	1005	2114.673390565887	3
1	1006	2115.619531907825	2
1	1008	2116.145782370907	2
1	1009	2118.148226746687	2
1	1011	2121.486056362826	2
1	1015	2128.938193055579	3
1	1019	2138.670385373158	4
1	1020	2139.631018166294	4
1	1023	2139.890722293589	3
1	1026	2150.446642224462	2
1	1029	2161.006535923146	1
1	1037	2186.38555087349	1
1	1043	2196.988326593044	2
1	1048	2199.436376818095	2
1	1049	2202.600509793738	1
1	1051	2203.396636789965	1
1	1053	2217.082690419149	2
1	1056	2218.257684926046	2
1	1057	2231.484384992976	1
1	1060	2235.654352083103	0
1	1079	2251.232106227058	0
1	1080	2253.102818601524	0
1	1095	2294.752183040791	0
1	1096	2296.959891635449	0
1	1106	2310.846390442859	0
1	1107	2316.459078380733	0
1	1156	2378.277617112147	0
1	1161	2385.125223077185	0
1	1166	2399.108451542096	0
1	1167	2399.220872676807	0
1	1172	2403.159387325714	0
1	1173	2416.544317770643	0
1	1181	2427.431392732234	0
1	1182	2428.963620283468	0
1	1195	2444.598988443805	0
1	1199	2455.21295102021	1
1	1200	2455.288532384925	1
1	1205	2456.949233028479	0
1	1208	2458.382625969776	0
1	1209	2462.096906251709	0
2	149	356.219262426609	27.265976060001
2	156	371.718230863792	40.940700603445
2	157	373.57190559243	39.765956464195
2	158	381.637420296903	12.498470541009
2	164	391.121578192386	5.668460442559
2	167	395.161844191495	2.614031134651
2	177	401.696642937034	1.457765950603
2	180	405.102678598552	4.226847818018
2	185	411.895580726397	9.747472242763
2	196	426.685040002322	1.872499309803
2	204	437.741189206426	7.799713389629
2	228	480.584926064283	3.881476791901
2	249	535.580672783207	52.365125270028
2	250	538.257147517583	40.592090831494
2	255	550.981065856652	48.462650855653
2	256	551.081652902008	33.071516758259
2	271	570.728477993193	3.305943025419
2	290	593.997341596154	4.742419949268
2	307	635.727556833656	2.11522107038
2	319	658.501026967392	4.783150400001
2	330	675.090482779285	18.928077395478
2	331	675.487825226783	10.604269199245
2	336	686.469709482541	20.664590216119
2	351	714.381303947513	48.036107612026
2	352	720.163808994046	38.208475457954
2	353	724.726466103695	39.157718105685
2	354	733.90902491972	22.481924127838
2	370	760.50785486784	6.788664081429
2	375	770.599029146158	12.141266854915
2	378	772.984250459787	13.121891344719
2	382	775.450093804946	1.857586515558
2	390	786.125610453948	3.321395205335
2	405	819.799553197782	7.716325034424
2	416	827.025766501163	12.487869698333
2	417	833.039473956669	11.724860267404
2	428	844.133159151499	20.793518458354
2	433	846.95230556372	22.571546686609
2	444	874.552442064421	48.421932754536
2	445	878.423866892653	38.315497330825
2	452	886.71389620539	44.786737073379
2	453	887.234401756764	43.480490593493
2	454	891.865669358386	47.661613272461
2	457	906.470274843741	61.702927818879
2	460	910.415845581956	36.164101131094
2	465	945.972202524013	64.341373267905
2	468	961.11819402946	78.478068301178
2	473	980.934782506708	85.181471969373
2	476	984.114589029739	75.843160576498
2	479	985.032009541228	68.883565640701
2	482	992.111504851128	19.279542872592
2	485	995.742813680341	16.382438632134
2	498	1025.43437059768	41.193997166211
2	509	1047.404418102001	52.512521530574
2	510	1049.227821366594	45.368938290187
2	511	1049.617825016597	34.02659233527
2	514	1061.335315894348	45.107692240308
2	521	1073.13106288961	35.511605301114
2	526	1085.023718065577	40.154868464671
2	535	1092.960201023091	27.294385734714
2	538	1093.385346188672	23.547838033829
2	539	1094.255409217593	11.235848156793
2	550	1125.691194485587	39.974482121189
2	557	1144.186907925984	53.021011577825
2	560	1148.352995267559	46.490987160614
2	563	1154.47428801303	43.833407651359
2	570	1179.576608602475	11.046531357378
2	633	1273.265394200835	4.34333881654
2	636	1276.14638256912	6.442367586179
2	641	1294.124183381421	4.56708769413
2	670	1355.084542427786	2.577686694842
2	693	1383.810253695741	13.405865164858
2	694	1387.084486867356	13.979372174087
2	705	1413.208676752541	33.095609534564
2	706	1414.554076737888	32.817945072888
2	707	1419.756172288536	21.564598764538
2	712	1452.997531957418	51.173530028037
2	715	1456.176891902435	44.845069179591
2	726	1473.326815050251	0.076027371404
2	737	1495.140330295493	10.594871671553
2	738	1515.379323681774	24.592696114263
2	743	1532.567784056553	16.628379178939
2	744	1536.503231092078	18.444591425394
2	748	1544.780383325714	3.452291823065
2	783	1612.558848675891	23.560020221746
2	784	1619.368963814539	27.542419323674
2	785	1623.973712400037	16.026462840483
2	791	1643.7874649952	17.217019054667
2	801	1659.879657609193	5.687642310822
2	811	1679.506754662323	5.467157640551
2	812	1684.845611410245	8.54883267764
2	823	1704.489896445117	0.404345482965
2	846	1756.475213101302	21.515311433531
2	849	1760.678980605384	10.166773997239
2	861	1781.269082605286	9.252451980128
2	871	1805.998823251112	21.045499252015
2	872	1808.466433479317	14.526131187363
2	908	1902.915510759831	39.7988361453
2	911	1913.06804056859	28.96321947349
2	912	1914.116800607321	27.536959754856
2	913	1919.16296948298	27.341715430865
2	914	1924.279491263996	23.150207026072
2	918	1928.660189754969	2.29473493652
2	925	1951.14157684208	6.707791829388
2	926	1952.623703407079	2.001685013354
2	937	1961.805530877276	4.680406226045
2	943	1982.063359234617	5.438843120646
2	950	1996.373467656257	18.665968226751
2	965	2026.909492285845	15.528583912106
2	966	2028.635031159173	3.743898059053
2	969	2037.778733833647	12.084171522322
2	970	2039.908355468776	2.875670631604
2	1003	2107.718890798569	52.792580818599
2	1004	2107.937961235935	41.379799761038
2	1005	2114.673390565887	40.361119290916
2	1006	2115.619531907825	30.47123761352
2	1009	2118.148226746687	18.67504355133
2	1020	2139.631018166294	37.484879288557
2	1023	2139.890722293589	23.744939922682
2	1026	2150.446642224462	28.960585861636
2	1029	2161.006535923146	32.068342867567
2	1048	2199.436376818095	60.765991444937
2	1049	2202.600509793738	16.214958920248
2	1056	2218.257684926046	21.269358333002
2	1057	2231.484384992976	28.087748203011
2	1060	2235.654352083103	18.571661663954
2	1080	2253.102818601524	1.870712374466
2	1096	2296.959891635449	2.207708594658
2	1107	2316.459078380733	5.612687937874
2	1161	2385.125223077185	6.847605965038
2	1167	2399.220872676807	0.112421134711
2	1173	2416.544317770643	13.384930444929
2	1182	2428.963620283468	1.532227551234
2	1200	2455.288532384925	10.68954394112
2	1205	2456.949233028479	1.736282008269
2	1209	2462.096906251709	3.714280281933
3	149	356.219262426609	25.441732166262
3	156	371.718230863792	37.912281735557
3	157	373.57190559243	4.432955836536
3	163	385.453117749827	0
3	166	392.547813056844	0
3	174	400.238876986431	0
3	177	401.696642937034	0.8208121565
3	180	405.102678598552	2.954570114918
3	195	424.812540692519	0
3	201	429.941475816797	0
3	221	476.703449272382	0
3	230	483.215547513179	0
3	249	535.580672783207	37.915616097118
3	250	538.257147517583	35.738732516584
3	255	550.981065856652	32.970929712903
3	266	567.422534967774	0
3	289	589.254921646886	0
3	306	633.612335763276	0
3	316	653.717876567391	0
3	319	658.501026967392	2.338621583585
3	330	675.090482779285	10.206926751747
3	331	675.487825226783	9.682705960361
3	336	686.469709482541	20.124513147054
3	351	714.381303947513	32.425970411421
3	352	720.163808994046	34.595060996036
3	353	724.726466103695	13.299365311813
3	365	753.719190786411	0
3	370	760.50785486784	2.050092576597
3	375	770.599029146158	10.73667003109
3	381	773.592507289388	0
3	387	782.804215248613	0
3	402	812.083228163358	0
3	405	819.799553197782	5.261656394952
3	416	827.025766501163	5.711152811898
3	417	833.039473956669	9.699833263524
3	428	844.133159151499	19.752400274388
3	433	846.95230556372	20.821796253835
3	444	874.552442064421	34.444072502593
3	445	878.423866892653	36.496707760642
3	452	886.71389620539	42.959985042119
3	453	887.234401756764	43.030345670839
3	454	891.865669358386	47.098322333524
3	457	906.470274843741	32.218530392879
3	460	910.415845581956	28.785016325848
3	465	945.972202524013	63.332076795731
3	468	961.11819402946	65.364883492125
3	473	980.934782506708	72.663354053467
3	476	984.114589029739	67.966145129212
3	479	985.032009541228	12.200047562692
3	482	992.111504851128	12.751129802921
3	485	995.742813680341	11.502440248872
3	498	1025.43437059768	30.542474026253
3	509	1047.404418102001	43.545535025594
3	510	1049.227821366594	33.636588685267
3	511	1049.617825016597	33.390201362557
3	514	1061.335315894348	23.715858305852
3	521	1073.13106288961	28.262213288704
3	526	1085.023718065577	19.3579027772
3	535	1092.960201023091	23.122692868248
3	538	1093.385346188672	10.365785127872
3	539	1094.255409217593	8.538696853195
3	550	1125.691194485587	34.525298137428
3	557	1144.186907925984	42.324899819039
3	560	1148.352995267559	37.712114905888
3	569	1168.530077245097	0
3	628	1268.922055384295	0
3	633	1273.265394200835	3.561379217894
3	640	1289.557095687291	0
3	667	1352.506855732944	0
3	682	1370.404388530883	0
3	693	1383.810253695741	10.705139002472
3	694	1387.084486867356	6.971419649379
3	705	1413.208676752541	31.472545087541
3	706	1414.554076737888	16.36250321389
3	707	1419.756172288536	17.932170359155
3	712	1452.997531957418	41.665709234574
3	725	1473.250787678847	0
3	730	1484.54545862394	0
3	737	1495.140330295493	4.353702727982
3	740	1515.939404877614	0
3	743	1532.567784056553	14.509144389869
3	747	1541.328091502649	0
3	770	1588.998828454145	0
3	783	1612.558848675891	20.732304185026
3	784	1619.368963814539	11.421714254985
3	788	1626.570445940533	0
3	800	1654.192015298371	0
3	808	1674.039597021772	0
3	811	1679.506754662323	3.209975929718
3	822	1704.085550962152	0
3	833	1734.959901667771	0
3	846	1756.475213101302	5.963006493157
3	856	1772.016630625158	0
3	866	1784.953323999097	0
3	871	1805.998823251112	12.058520959158
3	893	1863.116674614531	0
3	908	1902.915510759831	18.810689664731
3	911	1913.06804056859	26.488199716125
3	912	1914.116800607321	22.295546555206
3	913	1919.16296948298	18.033685245056
3	917	1926.365454818449	0
3	922	1944.433785012692	0
3	925	1951.14157684208	0.519558448355
3	932	1957.125124651231	0
3	940	1976.624516113971	0
3	943	1982.063359234617	4.355859805111
3	956	2011.380908373739	0
3	965	2026.909492285845	2.018359185725
3	966	2028.635031159173	2.940468847848
3	969	2037.778733833647	0.746048996475
3	978	2054.92630997997	0
3	1003	2107.718890798569	41.160729323672
3	1004	2107.937961235935	33.625689960964
3	1005	2114.673390565887	29.525096271582
3	1006	2115.619531907825	16.146348712468
3	1009	2118.148226746687	16.00208786895
3	1020	2139.631018166294	23.485235795387
3	1023	2139.890722293589	18.404665930763
3	1026	2150.446642224462	21.508449168883
3	1029	2161.006535923146	22.336150549988
3	1048	2199.436376818095	13.050825944605
3	1049	2202.600509793738	5.612183200694
3	1056	2218.257684926046	14.861048136081
3	1057	2231.484384992976	14.401694573827
3	1079	2251.232106227058	0
3	1095	2294.752183040791	0
3	1106	2310.846390442859	0
3	1156	2378.277617112147	0
3	1166	2399.108451542096	0
3	1172	2403.159387325714	0
3	1181	2427.431392732234	0
3	1195	2444.598988443805	0
3	1200	2455.288532384925	0.075581364715
3	1208	2458.382625969776	0
4	151	368.8046549948	9
4	153	369.032996633138	10
4	161	385.435273342652	10
4	169	395.504937079227	11
4	182	406.002142878933	9
4	184	408.543864616083	10
4	187	412.164437928249	11
4	191	417.244564880827	10
4	203	435.069822641035	6
4	208	444.73253469601	5
4	211	455.434219047854	5
4	213	455.45372300501	6
4	223	478.347216278201	1
4	225	478.710433170724	2
4	227	480.515052140072	3
4	232	485.243762285156	4
4	234	496.430731378896	5
4	238	498.869864410954	6
4	240	500.849184752619	7
4	244	506.038526886384	8
4	248	529.03255173219	9
4	252	549.13126875251	10
4	254	549.829030414174	11
4	258	552.782456114895	12
4	261	558.884773278836	12
4	268	568.083617207115	10
4	270	568.383343501675	11
4	273	570.956829549864	12
4	276	576.920273206442	12
4	278	579.228099088614	13
4	280	580.025927210517	14
4	282	581.960803174712	15
4	286	583.433851699979	14
4	295	605.380070849932	11
4	300	616.36163040096	9
4	302	627.496320317452	10
4	327	668.91895575793	2
4	329	673.632126531543	3
4	338	692.737293312491	4
4	340	692.918810680698	5
4	342	698.208839881957	6
4	344	702.555790210454	7
4	346	710.703307436593	8
4	350	714.356468550313	9
4	359	737.620965960018	7
4	361	743.1260328442	8
4	372	765.352438260707	7
4	374	770.362943641312	8
4	377	772.590606204854	9
4	385	781.007393373859	8
4	389	785.519972651797	9
4	394	794.080819717003	8
4	399	810.378030875903	6
4	407	820.140635894339	6
4	421	841.166212997282	7
4	427	844.039921077412	8
4	435	848.302603167896	9
4	437	849.706097178447	10
4	439	858.520764046529	11
4	441	861.33210841493	12
4	447	881.28589739406	13
4	464	926.689134492761	14
4	467	952.159183579918	15
4	475	983.615274297069	16
4	481	985.450572638088	17
4	487	997.883823659565	18
4	491	1005.253755993298	19
4	497	1019.847206502666	20
4	500	1025.906087628769	21
4	502	1026.815700418062	22
4	504	1030.751785346012	23
4	513	1054.062849771534	24
4	518	1069.199323993526	25
4	523	1076.910443218145	26
4	530	1088.016501996055	27
4	532	1089.058385482649	28
4	537	1093.245356086608	29
4	543	1109.990164271915	30
4	547	1111.495252375282	31
4	549	1119.046614610703	32
4	552	1129.048153925745	33
4	554	1140.924912413329	34
4	556	1141.176407268333	35
4	559	1145.209157071525	36
4	562	1153.208662393435	37
4	573	1186.892623908681	33
4	575	1189.393137052777	34
4	579	1192.271530187622	33
4	583	1197.484946457018	32
4	588	1200.247521930234	30
4	591	1212.314244647592	30
4	593	1213.33421831449	31
4	596	1214.745160013319	31
4	600	1224.217229415423	30
4	604	1232.030075498215	29
4	612	1239.324803119424	24
4	614	1241.921592407204	25
4	617	1248.182563811562	25
4	619	1249.989371655212	26
4	626	1268.583645825222	22
4	632	1269.903191477051	23
4	635	1275.699501245044	24
4	638	1276.539094628564	25
4	643	1295.103409452435	26
4	646	1304.605261721148	26
4	648	1305.27584812283	27
4	652	1315.638127851192	26
4	656	1334.215975512914	25
4	658	1336.216146553867	26
4	664	1340.202387362151	23
4	669	1354.930411622285	23
4	673	1360.587040029986	23
4	676	1365.372416060755	23
4	679	1368.420623397465	23
4	684	1370.786550902306	23
4	690	1381.304519843128	24
4	696	1393.562697652392	25
4	698	1394.377663390847	26
4	709	1434.496305583305	27
4	711	1435.634050048171	28
4	714	1454.156554264205	29
4	718	1457.51916996784	29
4	734	1491.331558083045	23
4	736	1491.798302433568	24
4	753	1549.162095721887	21
4	768	1581.557356075964	9
4	772	1589.131202587709	10
4	774	1589.294164742861	11
4	776	1590.705176290522	12
4	780	1599.956013350065	13
4	790	1636.95698598887	13
4	794	1648.144304386084	13
4	804	1666.226233340729	9
4	816	1694.649658107823	6
4	820	1697.371471155653	5
4	827	1709.751706419028	4
4	835	1746.230053122328	1
4	837	1750.168781653657	2
4	841	1750.854767205996	3
4	843	1751.925694445872	4
4	845	1753.15717556659	5
4	848	1759.551241949131	6
4	858	1775.91823188014	2
4	860	1779.585498614743	3
4	870	1800.827451251764	1
4	874	1808.974265082063	2
4	878	1813.470520932614	1
4	881	1817.480747434096	1
4	884	1828.11134490128	1
4	886	1832.033704236289	2
4	888	1832.306448773937	3
4	895	1871.163604866137	1
4	897	1873.230586242004	2
4	903	1889.171303031015	3
4	910	1908.390896428453	4
4	928	1953.154341822785	2
4	934	1957.958807211611	1
4	936	1958.78621161249	2
4	945	1982.118910009493	2
4	947	1988.259230996169	3
4	949	1989.254752134088	4
4	953	2009.415578530733	4
4	958	2019.676921367552	4
4	964	2026.199892969346	5
4	973	2046.095534625078	5
4	980	2062.559819886271	3
4	984	2067.97077610183	4
4	986	2068.207186465525	5
4	988	2070.390746796148	6
4	992	2079.613808485977	7
4	1000	2106.43432796086	8
4	1002	2107.23919062207	9
4	1013	2121.979406440984	10
4	1017	2129.836419138046	11
4	1022	2139.755152732331	12
4	1025	2140.259631609512	13
4	1028	2157.627423304001	14
4	1031	2171.095969015303	15
4	1033	2175.570323536926	16
4	1035	2182.56237537649	17
4	1039	2190.052476805452	18
4	1041	2190.534655587643	19
4	1045	2199.206720632074	20
4	1047	2199.435648587307	21
4	1055	2218.126545013904	22
4	1059	2235.641893261106	23
4	1062	2235.989629010231	24
4	1066	2240.700158213268	23
4	1070	2246.420518575202	22
4	1072	2246.492313956009	23
4	1075	2249.465598681333	23
4	1077	2249.982771900026	24
4	1082	2254.26808561051	25
4	1087	2271.570851785134	23
4	1089	2272.325738493696	24
4	1101	2306.930094956021	18
4	1104	2309.771897382743	18
4	1109	2317.243445888437	19
4	1112	2323.095494087291	19
4	1116	2324.853037154747	18
4	1119	2325.960436090938	18
4	1124	2332.419764879063	16
4	1127	2336.351130649538	16
4	1129	2343.03888059311	17
4	1131	2343.960495122872	18
4	1133	2345.60143337475	19
4	1136	2352.841460758396	19
4	1140	2355.388540674754	18
4	1144	2360.859292971737	17
4	1146	2364.480158459102	18
4	1148	2366.840552200106	19
4	1151	2370.056817384359	19
4	1154	2374.281138577653	19
4	1158	2379.331653338291	20
4	1160	2383.233276973216	21
4	1164	2395.553949359182	21
4	1169	2399.420097252837	22
4	1175	2417.268262125275	22
4	1177	2419.133451329679	23
4	1184	2429.232149905465	22
4	1193	2441.783611930452	16
4	1197	2452.309464931063	17
4	1202	2455.406009742327	18
4	1204	2455.559475358924	19
4	1211	2462.114056386014	19
4	1214	2466.330720422387	19
4	1218	2467.218619836442	18
4	1222	2480.211963592418	17
5	151	368.8046549948	8
5	153	369.032996633138	9
5	159	382.213756200565	9
5	161	385.435273342652	9
5	169	395.504937079227	10
5	170	395.684654950158	10
5	171	397.086178735423	9
5	172	399.71730048485	8
5	182	406.002142878933	8
5	184	408.543864616083	9
5	187	412.164437928249	10
5	188	416.449179453213	10
5	189	417.220342363555	9
5	191	417.244564880827	9
5	192	422.588798412226	9
5	193	424.500431805738	8
5	197	428.55604282767	7
5	198	429.278010881223	6
5	199	429.43625336058	5
5	203	435.069822641035	5
5	205	438.165715596509	5
5	206	441.963149887224	4
5	208	444.73253469601	4
5	209	452.464659441539	4
5	211	455.434219047854	4
5	213	455.45372300501	5
5	214	456.891417894942	5
5	215	460.097888252984	4
5	216	464.310442008772	3
5	217	465.305680173113	2
5	218	467.556431489672	1
5	219	467.978798403961	0
5	223	478.347216278201	0
5	225	478.710433170724	1
5	227	480.515052140072	2
5	232	485.243762285156	3
5	234	496.430731378896	4
5	238	498.869864410954	5
5	240	500.849184752619	6
5	244	506.038526886384	7
5	248	529.03255173219	8
5	252	549.13126875251	9
5	254	549.829030414174	10
5	258	552.782456114895	11
5	259	557.382886733799	11
5	261	558.884773278836	11
5	262	562.374657090371	11
5	263	564.352038577263	10
5	264	564.806623913553	9
5	268	568.083617207115	9
5	270	568.383343501675	10
5	273	570.956829549864	11
5	274	573.161797457369	11
5	276	576.920273206442	11
5	278	579.228099088614	12
5	280	580.025927210517	13
5	282	581.960803174712	14
5	283	582.881661922016	14
5	284	583.334856935547	13
5	286	583.433851699979	13
5	287	586.320946071596	13
5	291	596.609910268086	12
5	292	598.97281279181	11
5	293	603.433325950557	10
5	295	605.380070849932	10
5	296	610.755368687065	10
5	297	611.547807898415	9
5	298	612.625816862767	8
5	300	616.36163040096	8
5	302	627.496320317452	9
5	303	629.435458209452	9
5	304	632.581514717114	8
5	308	635.761476885456	7
5	309	639.7398742088	6
5	310	640.500182013092	5
5	311	640.608251192756	4
5	312	643.804688436302	3
5	313	651.821527525788	2
5	314	651.943106098828	1
5	327	668.91895575793	1
5	329	673.632126531543	2
5	338	692.737293312491	3
5	340	692.918810680698	4
5	342	698.208839881957	5
5	344	702.555790210454	6
5	346	710.703307436593	7
5	350	714.356468550313	8
5	355	735.456812066127	8
5	356	736.23713862213	7
5	357	736.684402388898	6
5	359	737.620965960018	6
5	361	743.1260328442	7
5	362	749.10101240956	7
5	363	750.822966904124	6
5	372	765.352438260707	6
5	374	770.362943641312	7
5	377	772.590606204854	8
5	379	773.191125272844	8
5	383	778.658858458001	7
5	385	781.007393373859	7
5	389	785.519972651797	8
5	391	792.703221196835	8
5	392	793.217763939365	7
5	394	794.080819717003	7
5	395	803.906259550853	7
5	396	805.796753705167	6
5	397	806.105395702309	5
5	399	810.378030875903	5
5	400	810.641670588712	5
5	407	820.140635894339	5
5	421	841.166212997282	6
5	427	844.039921077412	7
5	435	848.302603167896	8
5	437	849.706097178447	9
5	439	858.520764046529	10
5	441	861.33210841493	11
5	447	881.28589739406	12
5	464	926.689134492761	13
5	467	952.159183579918	14
5	475	983.615274297069	15
5	481	985.450572638088	16
5	487	997.883823659565	17
5	491	1005.253755993298	18
5	497	1019.847206502666	19
5	500	1025.906087628769	20
5	502	1026.815700418062	21
5	504	1030.751785346012	22
5	513	1054.062849771534	23
5	518	1069.199323993526	24
5	523	1076.910443218145	25
5	530	1088.016501996055	26
5	532	1089.058385482649	27
5	537	1093.245356086608	28
5	543	1109.990164271915	29
5	547	1111.495252375282	30
5	549	1119.046614610703	31
5	552	1129.048153925745	32
5	554	1140.924912413329	33
5	556	1141.176407268333	34
5	559	1145.209157071525	35
5	562	1153.208662393435	36
5	564	1154.50109201346	36
5	565	1156.328313482676	35
5	566	1157.777720541219	34
5	567	1159.406458573445	33
5	571	1181.692502843551	32
5	573	1186.892623908681	32
5	575	1189.393137052777	33
5	576	1190.168246687168	33
5	577	1191.11984753814	32
5	579	1192.271530187622	32
5	580	1192.436763356482	32
5	581	1194.551747131418	31
5	583	1197.484946457018	31
5	584	1198.980413508162	31
5	585	1199.370249272392	30
5	586	1199.61343855489	29
5	588	1200.247521930234	29
5	589	1207.792463188658	29
5	591	1212.314244647592	29
5	593	1213.33421831449	30
5	594	1213.610999928801	30
5	596	1214.745160013319	30
5	597	1215.223581979547	30
5	598	1216.191203849511	29
5	600	1224.217229415423	29
5	601	1227.160833549241	29
5	602	1229.580508934309	28
5	604	1232.030075498215	28
5	605	1233.673464300247	28
5	606	1234.654893039312	27
5	607	1234.913118427548	26
5	608	1236.196797630688	25
5	609	1238.635517917137	24
5	610	1238.939744430118	23
5	612	1239.324803119424	23
5	614	1241.921592407204	24
5	615	1243.726271428429	24
5	617	1248.182563811562	24
5	619	1249.989371655212	25
5	620	1255.666768745144	25
5	621	1260.17971961718	24
5	622	1260.585381783487	23
5	623	1260.789946898907	22
5	624	1266.80345676579	21
5	626	1268.583645825222	21
5	632	1269.903191477051	22
5	635	1275.699501245044	23
5	638	1276.539094628564	24
5	643	1295.103409452435	25
5	644	1302.766191504389	25
5	646	1304.605261721148	25
5	648	1305.27584812283	26
5	649	1309.948519822138	26
5	650	1310.073332293572	25
5	652	1315.638127851192	25
5	653	1331.182297642283	25
5	654	1331.329455289862	24
5	656	1334.215975512914	24
5	658	1336.216146553867	25
5	659	1338.009841431143	25
5	660	1338.305627139685	24
5	661	1338.7623855943	23
5	662	1339.20706516606	22
5	664	1340.202387362151	22
5	665	1351.409351730167	22
5	669	1354.930411622285	22
5	671	1358.725387315896	22
5	673	1360.587040029986	22
5	674	1364.672585748283	22
5	676	1365.372416060755	22
5	677	1367.700771675553	22
5	679	1368.420623397465	22
5	680	1368.74197666571	22
5	684	1370.786550902306	22
5	690	1381.304519843128	23
5	696	1393.562697652392	24
5	698	1394.377663390847	25
5	709	1434.496305583305	26
5	711	1435.634050048171	27
5	714	1454.156554264205	28
5	716	1456.884939590272	28
5	718	1457.51916996784	28
5	719	1458.229184790497	28
5	720	1460.821625837112	27
5	721	1462.128069230864	26
5	722	1465.104361049639	25
5	723	1465.663627380256	24
5	727	1480.114569078276	23
5	728	1482.926361519246	22
5	734	1491.331558083045	22
5	736	1491.798302433568	23
5	745	1538.03351381974	23
5	749	1545.398542550592	22
5	750	1548.361663968205	21
5	751	1548.533668746591	20
5	753	1549.162095721887	20
5	754	1551.122226447272	20
5	755	1552.021357614794	19
5	756	1556.52572406691	18
5	757	1558.59100557285	17
5	758	1559.293205610121	16
5	759	1559.379882615653	15
5	760	1565.692348358041	14
5	761	1566.094427361693	13
5	762	1566.161067892619	12
5	763	1570.092211157981	11
5	764	1573.551885003794	10
5	765	1574.097153611263	9
5	766	1577.799884158314	8
5	768	1581.557356075964	8
5	772	1589.131202587709	9
5	774	1589.294164742861	10
5	776	1590.705176290522	11
5	780	1599.956013350065	12
5	786	1625.391779421112	12
5	790	1636.95698598887	12
5	792	1646.859801366439	12
5	794	1648.144304386084	12
5	795	1649.376696446829	12
5	796	1649.783000786307	11
5	797	1650.842426227351	10
5	798	1652.54267414132	9
5	802	1659.936526638376	8
5	804	1666.226233340729	8
5	805	1666.266433331028	8
5	806	1669.316081820861	7
5	813	1688.527308552556	6
5	814	1690.20702765798	5
5	816	1694.649658107823	5
5	817	1695.308664149114	5
5	818	1695.376658791031	4
5	820	1697.371471155653	4
5	824	1705.344888169554	4
5	825	1707.345254555982	3
5	827	1709.751706419028	3
5	828	1710.942095890071	3
5	829	1712.880291920936	2
5	830	1713.233808258798	1
5	831	1718.812867844157	0
5	835	1746.230053122328	0
5	837	1750.168781653657	1
5	841	1750.854767205996	2
5	843	1751.925694445872	3
5	845	1753.15717556659	4
5	848	1759.551241949131	5
5	850	1761.809445721078	5
5	851	1763.787726759505	4
5	852	1766.57523644889	3
5	853	1770.458947427074	2
5	854	1770.661962803736	1
5	858	1775.91823188014	1
5	860	1779.585498614743	2
5	862	1781.666022560127	2
5	863	1783.719324188469	1
5	864	1784.869590455963	0
5	870	1800.827451251764	0
5	874	1808.974265082063	1
5	875	1810.248549319608	1
5	876	1811.090458818139	0
5	878	1813.470520932614	0
5	879	1815.450818413427	0
5	881	1817.480747434096	0
5	882	1819.98889273088	0
5	884	1828.11134490128	0
5	886	1832.033704236289	1
5	888	1832.306448773937	2
5	889	1835.6135074158	2
5	890	1836.441102196741	1
5	891	1838.110748429151	0
5	895	1871.163604866137	0
5	897	1873.230586242004	1
5	903	1889.171303031015	2
5	910	1908.390896428453	3
5	915	1925.831514804136	3
5	919	1929.718757605935	2
5	920	1938.889772864351	1
5	928	1953.154341822785	1
5	929	1954.416242120376	1
5	930	1956.910915014929	0
5	934	1957.958807211611	0
5	936	1958.78621161249	1
5	938	1971.39814131293	1
5	945	1982.118910009493	1
5	947	1988.259230996169	2
5	949	1989.254752134088	3
5	951	2006.73247871118	3
5	953	2009.415578530733	3
5	954	2010.573491280778	3
5	958	2019.676921367552	3
5	964	2026.199892969346	4
5	971	2042.173706183536	4
5	973	2046.095534625078	4
5	974	2048.534300423693	4
5	975	2050.556488565639	3
5	976	2053.603855840633	2
5	980	2062.559819886271	2
5	984	2067.97077610183	3
5	986	2068.207186465525	4
5	988	2070.390746796148	5
5	992	2079.613808485977	6
5	1000	2106.43432796086	7
5	1002	2107.23919062207	8
5	1013	2121.979406440984	9
5	1017	2129.836419138046	10
5	1022	2139.755152732331	11
5	1025	2140.259631609512	12
5	1028	2157.627423304001	13
5	1031	2171.095969015303	14
5	1033	2175.570323536926	15
5	1035	2182.56237537649	16
5	1039	2190.052476805452	17
5	1041	2190.534655587643	18
5	1045	2199.206720632074	19
5	1047	2199.435648587307	20
5	1055	2218.126545013904	21
5	1059	2235.641893261106	22
5	1062	2235.989629010231	23
5	1063	2239.392846926989	23
5	1064	2240.13001322269	22
5	1066	2240.700158213268	22
5	1067	2240.899372284343	22
5	1068	2242.750156717774	21
5	1070	2246.420518575202	21
5	1072	2246.492313956009	22
5	1073	2247.007177615132	22
5	1075	2249.465598681333	22
5	1077	2249.982771900026	23
5	1082	2254.26808561051	24
5	1083	2254.317171688812	24
5	1084	2257.001968356921	23
5	1085	2258.919648467916	22
5	1087	2271.570851785134	22
5	1089	2272.325738493696	23
5	1090	2272.476938688173	23
5	1091	2276.553132814258	22
5	1092	2281.398048020007	21
5	1093	2289.181496515071	20
5	1097	2297.229993080542	19
5	1098	2298.114982523499	18
5	1099	2304.451050079369	17
5	1101	2306.930094956021	17
5	1102	2309.605109847914	17
5	1104	2309.771897382743	17
5	1109	2317.243445888437	18
5	1110	2317.854187268407	18
5	1112	2323.095494087291	18
5	1113	2324.160888059084	18
5	1114	2324.226291867056	17
5	1116	2324.853037154747	17
5	1117	2325.343653105164	17
5	1119	2325.960436090938	17
5	1120	2326.586344597685	17
5	1121	2329.103041664476	16
5	1122	2330.339226371024	15
5	1124	2332.419764879063	15
5	1125	2332.591628790409	15
5	1127	2336.351130649538	15
5	1129	2343.03888059311	16
5	1131	2343.960495122872	17
5	1133	2345.60143337475	18
5	1134	2346.117555481974	18
5	1136	2352.841460758396	18
5	1137	2352.943858397188	18
5	1138	2354.698169459546	17
5	1140	2355.388540674754	17
5	1141	2357.932217243241	17
5	1142	2359.104588009919	16
5	1144	2360.859292971737	16
5	1146	2364.480158459102	17
5	1148	2366.840552200106	18
5	1149	2369.906715771059	18
5	1151	2370.056817384359	18
5	1152	2372.379312988188	18
5	1154	2374.281138577653	18
5	1158	2379.331653338291	19
5	1160	2383.233276973216	20
5	1162	2386.04906979696	20
5	1164	2395.553949359182	20
5	1169	2399.420097252837	21
5	1170	2400.56459393925	21
5	1175	2417.268262125275	21
5	1177	2419.133451329679	22
5	1178	2425.107720522455	22
5	1179	2426.317532882998	21
5	1184	2429.232149905465	21
5	1185	2429.643115726559	21
5	1186	2430.909561804457	20
5	1187	2432.370834366414	19
5	1188	2434.056877429572	18
5	1189	2435.390568510039	17
5	1190	2438.861130434713	16
5	1191	2439.033018495927	15
5	1193	2441.783611930452	15
5	1197	2452.309464931063	16
5	1202	2455.406009742327	17
5	1204	2455.559475358924	18
5	1206	2457.578673954873	18
5	1211	2462.114056386014	18
5	1212	2465.578414396293	18
5	1214	2466.330720422387	18
5	1215	2466.915505286827	18
5	1216	2467.160645675779	17
5	1218	2467.218619836442	17
5	1219	2471.346052171819	17
5	1220	2472.086712754569	16
5	1222	2480.211963592418	16
5	1223	2480.232156801858	16
5	1224	2482.845077842026	15
5	1225	2488.628189563646	14
5	1226	2489.889730781299	13
5	1227	2491.160965544414	12
5	1228	2497.234840280683	11
6	155	369.138949755894	3
6	163	385.453117749827	1
6	166	392.547813056844	1
6	174	400.238876986431	1
6	176	400.875830780534	2
6	179	402.148108483634	2
6	195	424.812540692519	1
6	201	429.941475816797	1
6	221	476.703449272382	1
6	230	483.215547513179	1
6	236	497.665056686089	2
6	242	502.518415000999	3
6	246	518.010136143749	4
6	266	567.422534967774	1
6	289	589.254921646886	1
6	306	633.612335763276	1
6	316	653.717876567391	1
6	318	656.162405383807	2
6	321	664.883556027538	2
6	323	665.805119266422	3
6	325	666.345196335487	4
6	333	681.955333536092	3
6	335	685.56874799801	4
6	348	711.427100791882	4
6	365	753.719190786411	1
6	367	758.457762291243	2
6	369	759.862359115068	3
6	381	773.592507289388	1
6	387	782.804215248613	1
6	402	812.083228163358	1
6	404	814.53789680283	2
6	409	821.314613689265	2
6	411	823.339640693145	3
6	413	824.380758877111	4
6	415	826.130509309885	5
6	419	840.108369561828	4
6	423	841.927159132011	5
6	425	843.753911163271	6
6	430	844.204056085925	6
6	432	844.767347024862	7
6	443	874.251744450862	7
6	449	881.630829256108	6
6	451	882.640125728282	7
6	456	895.753310537335	5
6	459	908.271428453241	5
6	462	916.148443900527	5
6	470	972.831961978536	4
6	472	979.360375048207	5
6	478	984.240373431469	4
6	484	994.891896571427	3
6	489	1003.858883076407	3
6	493	1015.591232681327	4
6	495	1016.22762365404	5
6	506	1037.619457588496	5
6	508	1044.868849600906	6
6	516	1065.665815288377	3
6	520	1069.837508154843	4
6	525	1083.0195610608	4
6	528	1085.716712364398	4
6	534	1091.165896348159	5
6	541	1101.862008106945	3
6	545	1110.640880361671	4
6	569	1168.530077245097	1
6	628	1268.922055384295	1
6	630	1269.704014982941	2
6	640	1289.557095687291	1
6	667	1352.506855732944	1
6	682	1370.404388530883	1
6	686	1373.105114693269	2
6	688	1380.113067217977	3
6	692	1381.736131665	4
6	700	1398.191573523998	3
6	702	1401.824001929381	4
6	704	1411.331822722844	5
6	725	1473.250787678847	1
6	730	1484.54545862394	1
6	732	1490.786627567511	2
6	740	1515.939404877614	1
6	742	1518.058639666684	2
6	747	1541.328091502649	1
6	770	1588.998828454145	1
6	778	1591.826544490865	2
6	782	1607.947249559554	3
6	788	1626.570445940533	1
6	800	1654.192015298371	1
6	808	1674.039597021772	1
6	810	1676.296778732605	2
6	822	1704.085550962152	1
6	833	1734.959901667771	1
6	839	1750.512206608145	2
6	856	1772.016630625158	1
6	866	1784.953323999097	1
6	868	1793.940302291954	2
6	893	1863.116674614531	1
6	899	1884.1048210951	2
6	901	1886.579840852465	3
6	905	1891.821254052115	4
6	907	1901.129284237924	5
6	917	1926.365454818449	1
6	922	1944.433785012692	1
6	924	1950.622018393725	2
6	932	1957.125124651231	1
6	940	1976.624516113971	1
6	942	1977.707499429506	2
6	956	2011.380908373739	1
6	960	2024.89113310012	2
6	962	2025.694562311325	3
6	968	2037.032684837172	2
6	978	2054.92630997997	1
6	982	2066.558161474897	2
6	990	2074.312271274971	3
6	994	2085.148294294305	4
6	996	2099.473183195357	5
6	998	2102.146138877737	6
6	1008	2116.145782370907	3
6	1011	2121.486056362826	3
6	1015	2128.938193055579	4
6	1019	2138.670385373158	5
6	1037	2186.38555087349	2
6	1043	2196.988326593044	3
6	1051	2203.396636789965	2
6	1053	2217.082690419149	3
6	1079	2251.232106227058	1
6	1095	2294.752183040791	1
6	1106	2310.846390442859	1
6	1156	2378.277617112147	1
6	1166	2399.108451542096	1
6	1172	2403.159387325714	1
6	1181	2427.431392732234	1
6	1195	2444.598988443805	1
6	1199	2455.21295102021	2
6	1208	2458.382625969776	1
7	158	381.637420296903	114.04842696051
7	159	382.213756200565	113.2738417659
7	164	391.121578192386	120.34662998336
7	167	395.161844191495	120.20186305228
7	170	395.684654950158	90.680237835943
7	171	397.086178735423	91.784618386256
7	172	399.71730048485	65.639894051714
7	185	411.895580726397	75.476863471237
7	188	416.449179453213	47.644524458413
7	189	417.220342363555	48.187345730417
7	192	422.588798412226	37.153525069574
7	193	424.500431805738	39.047314055911
7	196	426.685040002322	34.137226945478
7	197	428.55604282767	33.051105748443
7	198	429.278010881223	29.039133894792
7	199	429.43625336058	23.434110481647
7	204	437.741189206426	29.197324590343
7	205	438.165715596509	26.00127766826
7	206	441.963149887224	24.718585006397
7	209	452.464659441539	27.65211874902
7	214	456.891417894942	26.949942078145
7	215	460.097888252984	25.028065611949
7	216	464.310442008772	19.577907312762
7	217	465.305680173113	9.871461125259
7	218	467.556431489672	12.102708484662
7	228	480.584926064283	2.237709786082
7	256	551.081652902008	72.371219731284
7	259	557.382886733799	76.867834593727
7	262	562.374657090371	79.159109577192
7	263	564.352038577263	79.108276292107
7	264	564.806623913553	68.375892534657
7	271	570.728477993193	71.858613582239
7	274	573.161797457369	72.31261270475
7	283	582.881661922016	76.843135035632
7	284	583.334856935547	54.302305203357
7	287	586.320946071596	37.189677319086
7	290	593.997341596154	44.16831118198
7	291	596.609910268086	43.827454153191
7	292	598.97281279181	40.088039512974
7	293	603.433325950557	36.010790982783
7	296	610.755368687065	42.67175147995
7	297	611.547807898415	43.16446439674
7	298	612.625816862767	41.668987312903
7	303	629.435458209452	52.51518500301
7	304	632.581514717114	53.3534156285
7	307	635.727556833656	55.701629623139
7	308	635.761476885456	53.800673710744
7	309	639.7398742088	56.306022508821
7	310	640.500182013092	51.245260366206
7	311	640.608251192756	35.228180342824
7	312	643.804688436302	27.443058035342
7	313	651.821527525788	24.325207208336
7	314	651.943106098828	18.330770335552
7	354	733.90902491972	80.191148352329
7	355	735.456812066127	66.537856308197
7	356	736.23713862213	62.605012090587
7	357	736.684402388898	43.947109076407
7	362	749.10101240956	56.182201728862
7	363	750.822966904124	52.614127022167
7	378	772.984250459787	70.428460249333
7	379	773.191125272844	62.487817836251
7	382	775.450093804946	61.093625254633
7	383	778.658858458001	41.037892497983
7	390	786.125610453948	42.999577609748
7	391	792.703221196835	38.984030410424
7	392	793.217763939365	27.865325678658
7	395	803.906259550853	33.543315909541
7	396	805.796753705167	33.206147500313
7	397	806.105395702309	32.512888412921
7	400	810.641670588712	29.634277214853
7	563	1154.47428801303	371.67007276442
7	564	1154.50109201346	368.98111936166
7	565	1156.328313482676	362.24749376567
7	566	1157.777720541219	347.39968966532
7	567	1159.406458573445	347.32323041009
7	570	1179.576608602475	359.43597270814
7	571	1181.692502843551	340.52628984627
7	576	1190.168246687168	346.12832560976
7	577	1191.11984753814	342.81724437024
7	580	1192.436763356482	342.73066617803
7	581	1194.551747131418	336.03098308489
7	584	1198.980413508162	337.64830509323
7	585	1199.370249272392	318.08435187833
7	586	1199.61343855489	272.92430406213
7	589	1207.792463188658	255.63327960874
7	594	1213.610999928801	229.99572563173
7	597	1215.223581979547	229.77300934146
7	598	1216.191203849511	218.30738018995
7	601	1227.160833549241	221.90707755594
7	602	1229.580508934309	209.73330243164
7	605	1233.673464300247	207.76737667148
7	606	1234.654893039312	207.83919262125
7	607	1234.913118427548	204.16133308154
7	608	1236.196797630688	182.13394785915
7	609	1238.635517917137	169.43619392361
7	610	1238.939744430118	162.02930121197
7	615	1243.726271428429	155.70976943237
7	620	1255.666768745144	166.6083832625
7	621	1260.17971961718	166.93436353057
7	622	1260.585381783487	150.59521751157
7	623	1260.789946898907	149.29469452362
7	624	1266.80345676579	147.75684215509
7	636	1276.14638256912	147.09822864337
7	641	1294.124183381421	153.19927096809
7	644	1302.766191504389	161.58978423606
7	649	1309.948519822138	164.73936275061
7	650	1310.073332293572	156.86466990014
7	653	1331.182297642283	162.65222039719
7	654	1331.329455289862	144.43683138118
7	659	1338.009841431143	148.61670437837
7	660	1338.305627139685	146.03409695206
7	661	1338.7623855943	141.27743913728
7	662	1339.20706516606	138.95954323583
7	665	1351.409351730167	139.09510708257
7	670	1355.084542427786	141.7503241133
7	671	1358.725387315896	143.98022730258
7	674	1364.672585748283	140.45535633286
7	677	1367.700771675553	135.67069617734
7	680	1368.74197666571	129.41717354629
7	715	1456.176891902435	214.25529949523
7	716	1456.884939590272	208.70237577871
7	719	1458.229184790497	208.23981313529
7	720	1460.821625837112	192.23798001189
7	721	1462.128069230864	193.20601384657
7	722	1465.104361049639	195.20116957259
7	723	1465.663627380256	189.96412613521
7	726	1473.326815050251	196.78772042169
7	727	1480.114569078276	190.55747339098
7	728	1482.926361519246	187.82295206681
7	738	1515.379323681774	210.77406196063
7	744	1536.503231092078	231.22738296925
7	745	1538.03351381974	222.39538596855
7	748	1544.780383325714	210.5644078128
7	749	1545.398542550592	209.18239599673
7	750	1548.361663968205	208.15927660605
7	751	1548.533668746591	196.02681301365
7	754	1551.122226447272	196.19181482499
7	755	1552.021357614794	191.43431758481
7	756	1556.52572406691	191.15330800615
7	757	1558.59100557285	190.17038217538
7	758	1559.293205610121	188.88881707924
7	759	1559.379882615653	188.59333171335
7	760	1565.692348358041	184.38782851491
7	761	1566.094427361693	172.5317297093
7	762	1566.161067892619	171.78340450177
7	763	1570.092211157981	135.59590557468
7	764	1573.551885003794	137.91783495562
7	765	1574.097153611263	119.94059934706
7	766	1577.799884158314	120.28071419047
7	785	1623.973712400037	150.72292472119
7	786	1625.391779421112	140.84632079717
7	791	1643.7874649952	152.45590691216
7	792	1646.859801366439	155.06149893287
7	795	1649.376696446829	133.43729156922
7	796	1649.783000786307	108.45490928366
7	797	1650.842426227351	101.68033050546
7	798	1652.54267414132	70.985318065356
7	801	1659.879657609193	70.880829155048
7	802	1659.936526638376	70.805324050667
7	805	1666.266433331028	76.972268588167
7	806	1669.316081820861	78.610905530339
7	812	1684.845611410245	84.88959806018
7	813	1688.527308552556	61.956862612023
7	814	1690.20702765798	53.25004166911
7	817	1695.308664149114	47.16435976303
7	818	1695.376658791031	41.18464349266
7	823	1704.489896445117	38.263663104388
7	824	1705.344888169554	31.305291147782
7	825	1707.345254555982	12.695596448159
7	828	1710.942095890071	13.570624734418
7	829	1712.880291920936	8.794740958784
7	830	1713.233808258798	3.48210183977
7	849	1760.678980605384	14.448927483056
7	850	1761.809445721078	11.640664067421
7	851	1763.787726759505	12.932959553509
7	852	1766.57523644889	14.649542003018
7	853	1770.458947427074	17.301771860484
7	854	1770.661962803736	11.110720854605
7	861	1781.269082605286	9.252451980128
7	862	1781.666022560127	5.747790679987
7	863	1783.719324188469	4.133825573726
7	872	1808.466433479317	7.638982227553
7	875	1810.248549319608	1.274284237545
7	878	1813.470520932614	0
7	881	1817.480747434096	0
7	884	1828.11134490128	0
7	889	1835.6135074158	3.579803179511
7	890	1836.441102196741	4.134653422804
7	914	1924.279491263996	53.115886397859
7	915	1925.831514804136	52.600928562132
7	918	1928.660189754969	39.488886723954
7	919	1929.718757605935	21.327861177482
7	920	1938.889772864351	12.524318045902
7	926	1952.623703407079	8.189918394387
7	929	1954.416242120376	1.261900297591
7	937	1961.805530877276	3.846723665665
7	938	1971.39814131293	12.61192970044
7	950	1996.373467656257	19.748951542286
7	951	2006.73247871118	24.613568701687
7	954	2010.573491280778	22.314260284609
7	970	2039.908355468776	50.653603334688
7	971	2042.173706183536	32.758127652803
7	974	2048.534300423693	37.153392049954
7	975	2050.556488565639	30.879567198087
7	976	2053.603855840633	27.403962871287
7	1060	2235.654352083103	189.55881745803
7	1063	2239.392846926989	184.46653694702
7	1064	2240.13001322269	177.57019333642
7	1067	2240.899372284343	172.92859618251
7	1068	2242.750156717774	174.54297025225
7	1073	2247.007177615132	176.61643081898
7	1080	2253.102818601524	173.48901011555
7	1083	2254.317171688812	147.88284372795
7	1084	2257.001968356921	149.76277773485
7	1085	2258.919648467916	136.94024202693
7	1090	2272.476938688173	142.64051955013
7	1091	2276.553132814258	136.79798008193
7	1092	2281.398048020007	141.13841641049
7	1093	2289.181496515071	131.55407321107
7	1096	2296.959891635449	125.86392262015
7	1097	2297.229993080542	121.65966954362
7	1098	2298.114982523499	115.55260714701
7	1099	2304.451050079369	114.39857327392
7	1102	2309.605109847914	119.07045426027
7	1107	2316.459078380733	117.25235774866
7	1110	2317.854187268407	118.4185386811
7	1113	2324.160888059084	106.03434304518
7	1114	2324.226291867056	88.58439860595
7	1117	2325.343653105164	89.354024094933
7	1120	2326.586344597685	85.886186384417
7	1121	2329.103041664476	82.682523089274
7	1122	2330.339226371024	83.846912415015
7	1125	2332.591628790409	83.126030109076
7	1134	2346.117555481974	96.134783581948
7	1137	2352.943858397188	101.71175217013
7	1138	2354.698169459546	100.43008384904
7	1141	2357.932217243241	86.361365458107
7	1142	2359.104588009919	86.778849516223
7	1149	2369.906715771059	75.154532730268
7	1152	2372.379312988188	65.449218032167
7	1161	2385.125223077185	75.353325694442
7	1162	2386.04906979696	75.202679354101
7	1167	2399.220872676807	81.97742678837
7	1170	2400.56459393925	77.469099851959
7	1173	2416.544317770643	91.691280615896
7	1178	2425.107720522455	99.147284431517
7	1179	2426.317532882998	93.897768003935
7	1182	2428.963620283468	92.61248963393
7	1185	2429.643115726559	86.604235133449
7	1186	2430.909561804457	86.949066681585
7	1187	2432.370834366414	86.769400991664
7	1188	2434.056877429572	81.215416671176
7	1189	2435.390568510039	80.002027835285
7	1190	2438.861130434713	78.001837462976
7	1191	2439.033018495927	74.552860036825
7	1205	2456.949233028479	90.108680828373
7	1206	2457.578673954873	87.521856570514
7	1209	2462.096906251709	87.815767674056
7	1212	2465.578414396293	87.300797284146
7	1215	2466.915505286827	87.583851948536
7	1216	2467.160645675779	83.927368702563
7	1219	2471.346052171819	75.792102812637
7	1220	2472.086712754569	72.978261212473
7	1223	2480.232156801858	80.812059549021
7	1224	2482.845077842026	79.685690516312
7	1225	2488.628189563646	71.359927438371
7	1226	2489.889730781299	70.75627945162
7	1227	2491.160965544414	63.72957281218
7	1228	2497.234840280683	68.002690375218
8	159	382.213756200565	24
8	170	395.684654950158	25
8	171	397.086178735423	26
8	172	399.71730048485	27
8	188	416.449179453213	28
8	189	417.220342363555	29
8	192	422.588798412226	30
8	193	424.500431805738	31
8	197	428.55604282767	32
8	198	429.278010881223	33
8	199	429.43625336058	34
8	205	438.165715596509	35
8	206	441.963149887224	36
8	209	452.464659441539	37
8	214	456.891417894942	38
8	215	460.097888252984	39
8	216	464.310442008772	40
8	217	465.305680173113	41
8	218	467.556431489672	42
8	219	467.978798403961	43
8	259	557.382886733799	44
8	262	562.374657090371	45
8	263	564.352038577263	46
8	264	564.806623913553	47
8	274	573.161797457369	48
8	283	582.881661922016	49
8	284	583.334856935547	50
8	287	586.320946071596	51
8	291	596.609910268086	52
8	292	598.97281279181	53
8	293	603.433325950557	54
8	296	610.755368687065	55
8	297	611.547807898415	56
8	298	612.625816862767	57
8	303	629.435458209452	58
8	304	632.581514717114	59
8	308	635.761476885456	60
8	309	639.7398742088	61
8	310	640.500182013092	62
8	311	640.608251192756	63
8	312	643.804688436302	64
8	313	651.821527525788	65
8	314	651.943106098828	66
8	355	735.456812066127	67
8	356	736.23713862213	68
8	357	736.684402388898	69
8	362	749.10101240956	70
8	363	750.822966904124	71
8	379	773.191125272844	72
8	383	778.658858458001	73
8	391	792.703221196835	74
8	392	793.217763939365	75
8	395	803.906259550853	76
8	396	805.796753705167	77
8	397	806.105395702309	78
8	400	810.641670588712	79
8	564	1154.50109201346	80
8	565	1156.328313482676	81
8	566	1157.777720541219	82
8	567	1159.406458573445	83
8	571	1181.692502843551	84
8	576	1190.168246687168	85
8	577	1191.11984753814	86
8	580	1192.436763356482	87
8	581	1194.551747131418	88
8	584	1198.980413508162	89
8	585	1199.370249272392	90
8	586	1199.61343855489	91
8	589	1207.792463188658	92
8	594	1213.610999928801	93
8	597	1215.223581979547	94
8	598	1216.191203849511	95
8	601	1227.160833549241	96
8	602	1229.580508934309	97
8	605	1233.673464300247	98
8	606	1234.654893039312	99
8	607	1234.913118427548	100
8	608	1236.196797630688	101
8	609	1238.635517917137	102
8	610	1238.939744430118	103
8	615	1243.726271428429	104
8	620	1255.666768745144	105
8	621	1260.17971961718	106
8	622	1260.585381783487	107
8	623	1260.789946898907	108
8	624	1266.80345676579	109
8	644	1302.766191504389	110
8	649	1309.948519822138	111
8	650	1310.073332293572	112
8	653	1331.182297642283	113
8	654	1331.329455289862	114
8	659	1338.009841431143	115
8	660	1338.305627139685	116
8	661	1338.7623855943	117
8	662	1339.20706516606	118
8	665	1351.409351730167	119
8	671	1358.725387315896	120
8	674	1364.672585748283	121
8	677	1367.700771675553	122
8	680	1368.74197666571	123
8	716	1456.884939590272	124
8	719	1458.229184790497	125
8	720	1460.821625837112	126
8	721	1462.128069230864	127
8	722	1465.104361049639	128
8	723	1465.663627380256	129
8	727	1480.114569078276	130
8	728	1482.926361519246	131
8	745	1538.03351381974	132
8	749	1545.398542550592	133
8	750	1548.361663968205	134
8	751	1548.533668746591	135
8	754	1551.122226447272	136
8	755	1552.021357614794	137
8	756	1556.52572406691	138
8	757	1558.59100557285	139
8	758	1559.293205610121	140
8	759	1559.379882615653	141
8	760	1565.692348358041	142
8	761	1566.094427361693	143
8	762	1566.161067892619	144
8	763	1570.092211157981	145
8	764	1573.551885003794	146
8	765	1574.097153611263	147
8	766	1577.799884158314	148
8	786	1625.391779421112	149
8	792	1646.859801366439	150
8	795	1649.376696446829	151
8	796	1649.783000786307	152
8	797	1650.842426227351	153
8	798	1652.54267414132	154
8	802	1659.936526638376	155
8	805	1666.266433331028	156
8	806	1669.316081820861	157
8	813	1688.527308552556	158
8	814	1690.20702765798	159
8	817	1695.308664149114	160
8	818	1695.376658791031	161
8	824	1705.344888169554	162
8	825	1707.345254555982	163
8	828	1710.942095890071	164
8	829	1712.880291920936	165
8	830	1713.233808258798	166
8	831	1718.812867844157	167
8	850	1761.809445721078	168
8	851	1763.787726759505	169
8	852	1766.57523644889	170
8	853	1770.458947427074	171
8	854	1770.661962803736	172
8	862	1781.666022560127	173
8	863	1783.719324188469	174
8	864	1784.869590455963	175
8	875	1810.248549319608	176
8	876	1811.090458818139	177
8	879	1815.450818413427	178
8	882	1819.98889273088	179
8	889	1835.6135074158	180
8	890	1836.441102196741	181
8	891	1838.110748429151	182
8	915	1925.831514804136	183
8	919	1929.718757605935	184
8	920	1938.889772864351	185
8	929	1954.416242120376	186
8	930	1956.910915014929	187
8	938	1971.39814131293	188
8	951	2006.73247871118	189
8	954	2010.573491280778	190
8	971	2042.173706183536	191
8	974	2048.534300423693	192
8	975	2050.556488565639	193
8	976	2053.603855840633	194
8	1063	2239.392846926989	195
8	1064	2240.13001322269	196
8	1067	2240.899372284343	197
8	1068	2242.750156717774	198
8	1073	2247.007177615132	199
8	1083	2254.317171688812	200
8	1084	2257.001968356921	201
8	1085	2258.919648467916	202
8	1090	2272.476938688173	203
8	1091	2276.553132814258	204
8	1092	2281.398048020007	205
8	1093	2289.181496515071	206
8	1097	2297.229993080542	207
8	1098	2298.114982523499	208
8	1099	2304.451050079369	209
8	1102	2309.605109847914	210
8	1110	2317.854187268407	211
8	1113	2324.160888059084	212
8	1114	2324.226291867056	213
8	1117	2325.343653105164	214
8	1120	2326.586344597685	215
8	1121	2329.103041664476	216
8	1122	2330.339226371024	217
8	1125	2332.591628790409	218
8	1134	2346.117555481974	219
8	1137	2352.943858397188	220
8	1138	2354.698169459546	221
8	1141	2357.932217243241	222
8	1142	2359.104588009919	223
8	1149	2369.906715771059	224
8	1152	2372.379312988188	225
8	1162	2386.04906979696	226
8	1170	2400.56459393925	227
8	1178	2425.107720522455	228
8	1179	2426.317532882998	229
8	1185	2429.643115726559	230
8	1186	2430.909561804457	231
8	1187	2432.370834366414	232
8	1188	2434.056877429572	233
8	1189	2435.390568510039	234
8	1190	2438.861130434713	235
8	1191	2439.033018495927	236
8	1206	2457.578673954873	237
8	1212	2465.578414396293	238
8	1215	2466.915505286827	239
8	1216	2467.160645675779	240
8	1219	2471.346052171819	241
8	1220	2472.086712754569	242
8	1223	2480.232156801858	243
8	1224	2482.845077842026	244
8	1225	2488.628189563646	245
8	1226	2489.889730781299	246
8	1227	2491.160965544414	247
8	1228	2497.234840280683	248
9	159	382.213756200565	114.62476286417
9	170	395.684654950158	120.72467381094
9	171	397.086178735423	92.081761621208
9	172	399.71730048485	94.415740135683
9	188	416.449179453213	80.030462198053
9	189	417.220342363555	48.415687368755
9	192	422.588798412226	53.555801779088
9	193	424.500431805738	39.065158463086
9	197	428.55604282767	36.008229770826
9	198	429.278010881223	33.773073801996
9	199	429.43625336058	29.197376374149
9	205	438.165715596509	29.621850980426
9	206	441.963149887224	29.798711958975
9	209	452.464659441539	35.220094560712
9	214	456.891417894942	32.078877202423
9	215	460.097888252984	30.156412436187
9	216	464.310442008772	29.240619367737
9	217	465.305680173113	20.573145477103
9	218	467.556431489672	12.122212441818
9	219	467.978798403961	12.525075398951
9	259	557.382886733799	78.672453563075
9	262	562.374657090371	81.859604950299
9	263	564.352038577263	81.136491064084
9	264	564.806623913553	79.562861628397
9	274	573.161797457369	74.291933046415
9	283	582.881661922016	82.032477169397
9	284	583.334856935547	77.296330049163
9	287	586.320946071596	57.288394339406
9	291	596.609910268086	46.780879853912
9	292	598.97281279181	46.190356676915
9	293	603.433325950557	44.548552671721
9	296	610.755368687065	43.332833719291
9	297	611.547807898415	43.4641906913
9	298	612.625816862767	44.242473361092
9	303	629.435458209452	58.478628659588
9	304	632.581514717114	55.661241510672
9	308	635.761476885456	55.735549674939
9	309	639.7398742088	57.779071034088
9	310	640.500182013092	57.066330313113
9	311	640.608251192756	51.35332954587
9	312	643.804688436302	38.42461758637
9	313	651.821527525788	35.459897124828
9	314	651.943106098828	24.446785781376
9	355	735.456812066127	81.738935498736
9	356	736.23713862213	67.3181828642
9	357	736.684402388898	63.052275857355
9	362	749.10101240956	56.363719097069
9	363	750.822966904124	57.904156223426
9	379	773.191125272844	70.63533506239
9	383	778.658858458001	64.302389907688
9	391	792.703221196835	49.577188352635
9	392	793.217763939365	39.498573152954
9	395	803.906259550853	38.553821290146
9	396	805.796753705167	35.433810063855
9	397	806.105395702309	33.514789497455
9	400	810.641670588712	37.049163299324
9	564	1154.50109201346	371.69687676485
9	565	1156.328313482676	370.80834083088
9	566	1157.777720541219	363.69690082422
9	567	1159.406458573445	349.02842769754
9	571	1181.692502843551	361.55186694921
9	576	1190.168246687168	349.00203368989
9	577	1191.11984753814	347.07992646073
9	580	1192.436763356482	344.13416018859
9	581	1194.551747131418	344.84564995297
9	584	1198.980413508162	340.45964946163
9	585	1199.370249272392	338.03814085746
9	586	1199.61343855489	318.32754116083
9	589	1207.792463188658	281.1033286959
9	594	1213.610999928801	261.45181634888
9	597	1215.223581979547	231.60830768248
9	598	1216.191203849511	230.74063121142
9	601	1227.160833549241	229.27700988968
9	602	1229.580508934309	224.32675294101
9	605	1233.673464300247	213.82625779758
9	606	1234.654893039312	208.74880541054
9	607	1234.913118427548	208.09741800949
9	608	1236.196797630688	205.44501228468
9	609	1238.635517917137	184.5726681456
9	610	1238.939744430118	169.74042043659
9	615	1243.726271428429	166.81582821028
9	620	1255.666768745144	167.65026674909
9	621	1260.17971961718	171.12133413453
9	622	1260.585381783487	167.34002569688
9	623	1260.789946898907	150.79978262699
9	624	1266.80345676579	155.30820439051
9	644	1302.766191504389	161.84127909106
9	649	1309.948519822138	168.7721125538
9	650	1310.073332293572	164.86417522205
9	653	1331.182297642283	177.97363524885
9	654	1331.329455289862	162.79937804477
9	659	1338.009841431143	151.11721752246
9	660	1338.305627139685	148.91249008691
9	661	1338.7623855943	146.49085540668
9	662	1339.20706516606	141.72211870904
9	665	1351.409351730167	151.16182979993
9	671	1358.725387315896	145.39116900141
9	674	1364.672585748283	149.92742573496
9	677	1367.700771675553	143.48354226013
9	680	1368.74197666571	136.7119011675
9	716	1456.884939590272	214.96334718307
9	719	1458.229184790497	210.04662097893
9	720	1460.821625837112	210.8322541819
9	721	1462.128069230864	193.54442340564
9	722	1465.104361049639	196.18230566534
9	723	1465.663627380256	195.76043590321
9	727	1480.114569078276	203.57547444971
9	728	1482.926361519246	193.36926583196
9	745	1538.03351381974	232.75766569691
9	749	1545.398542550592	211.18256703768
9	750	1548.361663968205	212.14551741434
9	751	1548.533668746591	208.33128138444
9	754	1551.122226447272	198.61537071433
9	755	1552.021357614794	197.09094599251
9	756	1556.52572406691	195.93868403692
9	757	1558.59100557285	193.2185895121
9	758	1559.293205610121	190.87258221266
9	759	1559.379882615653	188.97549408477
9	760	1565.692348358041	194.90579745573
9	761	1566.094427361693	184.78990751857
9	762	1566.161067892619	172.59837024023
9	763	1570.092211157981	175.71454776713
9	764	1573.551885003794	139.05557942049
9	765	1574.097153611263	138.46310356309
9	766	1577.799884158314	123.64332989411
9	786	1625.391779421112	152.14099174226
9	792	1646.859801366439	155.52824328339
9	795	1649.376696446829	157.57839401326
9	796	1649.783000786307	133.84359590869
9	797	1650.842426227351	109.5143347247
9	798	1652.54267414132	103.38057841943
9	802	1659.936526638376	70.937698184231
9	805	1666.266433331028	77.135230743319
9	806	1669.316081820861	80.021917078
9	813	1688.527308552556	88.571295202491
9	814	1690.20702765798	63.636581717447
9	817	1695.308664149114	58.351678160244
9	818	1695.376658791031	47.232354404947
9	824	1705.344888169554	39.118654828825
9	825	1707.345254555982	33.30565753421
9	828	1710.942095890071	16.292437782248
9	829	1712.880291920936	15.508820765283
9	830	1713.233808258798	9.148257296646
9	831	1718.812867844157	9.061161425129
9	850	1761.809445721078	15.57939259875
9	851	1763.787726759505	13.618945105848
9	852	1766.57523644889	15.720469242894
9	853	1770.458947427074	18.533252981202
9	854	1770.661962803736	17.504787237146
9	862	1781.666022560127	9.649391934969
9	863	1783.719324188469	7.801092308329
9	864	1784.869590455963	5.28409184122
9	875	1810.248549319608	9.421098067844
9	876	1811.090458818139	2.116193736076
9	879	1815.450818413427	1.980297480813
9	882	1819.98889273088	2.508145296784
9	889	1835.6135074158	7.50216251452
9	890	1836.441102196741	4.407397960452
9	891	1838.110748429151	5.804299655214
9	915	1925.831514804136	54.667909937999
9	919	1929.718757605935	40.54745457492
9	920	1938.889772864351	30.498876435898
9	929	1954.416242120376	9.982457107684
9	930	1956.910915014929	3.756573192144
9	938	1971.39814131293	13.439334101319
9	951	2006.73247871118	30.107962597209
9	954	2010.573491280778	28.454581271285
9	971	2042.173706183536	52.918954049448
9	974	2048.534300423693	39.11872189296
9	975	2050.556488565639	39.1755801919
9	976	2053.603855840633	33.926934473081
9	1063	2239.392846926989	193.29731230191
9	1064	2240.13001322269	185.20370324272
9	1067	2240.899372284343	178.33955239807
9	1068	2242.750156717774	174.77938061594
9	1073	2247.007177615132	178.79999114961
9	1083	2254.317171688812	174.70336320283
9	1084	2257.001968356921	150.56764039606
9	1085	2258.919648467916	151.68045784585
9	1090	2272.476938688173	150.49753224719
9	1091	2276.553132814258	146.71671367621
9	1092	2281.398048020007	141.64289528768
9	1093	2289.181496515071	148.92186490556
9	1097	2297.229993080542	126.13402406524
9	1098	2298.114982523499	122.54465898657
9	1099	2304.451050079369	121.88867470288
9	1102	2309.605109847914	119.55263304246
9	1110	2317.854187268407	118.64746663633
9	1113	2324.160888059084	124.72523947178
9	1114	2324.226291867056	106.09974685315
9	1117	2325.343653105164	89.701759844058
9	1120	2326.586344597685	90.596715587454
9	1121	2329.103041664476	88.402883451208
9	1122	2330.339226371024	83.918707795822
9	1125	2332.591628790409	86.0993148344
9	1134	2346.117555481974	96.651956800641
9	1137	2352.943858397188	102.96108649716
9	1138	2354.698169459546	103.46606323249
9	1141	2357.932217243241	103.66413163273
9	1142	2359.104588009919	87.533736224785
9	1149	2369.906715771059	97.580977277363
9	1152	2372.379312988188	77.627129947397
9	1162	2386.04906979696	76.277172414217
9	1170	2400.56459393925	83.321148050813
9	1178	2425.107720522455	100.25468336771
9	1179	2426.317532882998	100.35709679206
9	1185	2429.643115726559	93.291985077021
9	1186	2430.909561804457	87.870681211347
9	1187	2432.370834366414	88.410339243542
9	1188	2434.056877429572	88.455444054822
9	1189	2435.390568510039	82.549107751643
9	1190	2438.861130434713	83.472589759959
9	1191	2439.033018495927	78.17372552419
9	1206	2457.578673954873	90.738121754767
9	1212	2465.578414396293	91.29727581864
9	1215	2466.915505286827	88.63788817468
9	1216	2467.160645675779	87.828992337488
9	1219	2471.346052171819	88.112775198603
9	1220	2472.086712754569	76.532763395387
9	1223	2480.232156801858	81.123705259762
9	1224	2482.845077842026	83.424980589189
9	1225	2488.628189563646	85.468802237932
9	1226	2489.889730781299	72.621468656024
9	1227	2491.160965544414	72.027514214735
9	1228	2497.234840280683	69.803447548449
10	163	385.453117749827	4
10	166	392.547813056844	5
10	174	400.238876986431	6
10	195	424.812540692519	7
10	201	429.941475816797	8
10	230	483.215547513179	9
10	266	567.422534967774	10
10	289	589.254921646886	11
10	306	633.612335763276	12
10	316	653.717876567391	13
10	365	753.719190786411	14
10	381	773.592507289388	15
10	387	782.804215248613	16
10	402	812.083228163358	17
10	569	1168.530077245097	18
10	628	1268.922055384295	19
10	640	1289.557095687291	20
10	667	1352.506855732944	21
10	682	1370.404388530883	22
10	725	1473.250787678847	23
10	730	1484.54545862394	24
10	740	1515.939404877614	25
10	747	1541.328091502649	26
10	770	1588.998828454145	27
10	788	1626.570445940533	28
10	800	1654.192015298371	29
10	808	1674.039597021772	30
10	822	1704.085550962152	31
10	856	1772.016630625158	32
10	917	1926.365454818449	33
10	922	1944.433785012692	34
10	940	1976.624516113971	35
10	956	2011.380908373739	36
10	978	2054.92630997997	37
10	1079	2251.232106227058	38
10	1095	2294.752183040791	39
10	1106	2310.846390442859	40
10	1156	2378.277617112147	41
10	1166	2399.108451542096	42
10	1172	2403.159387325714	43
10	1181	2427.431392732234	44
10	1195	2444.598988443805	45
10	1208	2458.382625969776	46
11	1229	2500	0.0992
12	1229	2500	0.0616

