version 2
run experiments_hard_game_mode1-1481-20230311-19:44:49-12459
attr configname experiments_hard_game_mode1
attr datetime 20230311-19:44:49
attr experiment experiments_hard_game_mode1
attr inifile omnetpp.ini
attr iterationvars "$0=9.5, $1=7, $2=100"
attr iterationvarsf 9.5,7,100-
attr measurement "$0=9.5, $1=7, $2=100"
attr network Network
attr processid 12459
attr repetition 11
attr replication #11
attr resultdir results
attr runnumber 1481
attr seedset 11
param *.boss.arrival_mean 20
param *.boss.service_mean 9.5
param *.minion.arrival_mean 10
param *.minion.service_mean 7
param *.player.recover_rate_x 100
param **.minion.arrival_distribution 0
param **.minion.service_distribution 0
param **.boss.arrival_distribution 0
param **.boss.service_distribution 0

vector 0 Network.player minion_jobs_number_stat:vector ETV
attr source signal_minion_jobs_number
vector 1 Network.player minion_jobs_queue_number_stat:vector ETV
attr source signal_minion_jobs_queue_number
vector 2 Network.player boss_jobs_number_stat:vector ETV
attr source signal_boss_jobs_number
vector 3 Network.player boss_jobs_queue_number_stat:vector ETV
attr source signal_boss_jobs_queue_number
vector 4 Network.player boss_defeated_stat:vector ETV
attr source signal_boss_defeated
vector 5 Network.player boss_response_time_stat:vector ETV
attr source signal_boss_response_time
vector 6 Network.player boss_waiting_time_stat:vector ETV
attr source signal_boss_waiting_time
vector 7 Network.player minion_waiting_time_stat:vector ETV
attr source signal_minion_waiting_time
vector 8 Network.player minion_recovered_stat:vector ETV
attr source signal_minion_recovered
vector 9 Network.player minion_defeated_stat:vector ETV
attr source signal_minion_defeated
vector 10 Network.player minion_response_time_stat:vector ETV
attr source signal_minion_response_time
vector 11 Network.player minion_throughput:vector ETV
attr source signal_minion_throughput
vector 12 Network.player boss_throughput:vector ETV
attr source signal_boss_throughput
0	134	350.303694308731	17
0	138	352.709450616181	18
0	140	359.137739579226	19
0	144	369.266637427107	20
0	146	369.375412817191	21
0	148	370.873719345442	22
0	154	387.024720403828	23
0	157	393.162611874545	24
0	160	394.679426205505	25
0	163	415.383307801732	26
0	165	418.87213829018	27
0	169	421.862269267216	28
0	180	441.130071532625	29
0	183	452.061875109923	30
0	195	468.155898046976	30
0	199	488.009898807156	29
0	203	492.900364237022	30
0	205	494.512010483134	31
0	215	512.775260977005	31
0	218	521.052336852026	31
0	220	525.543254130801	32
0	223	527.276736677588	32
0	231	551.162666912064	32
0	234	553.060902280298	33
0	236	555.656423412936	34
0	240	556.754828330883	33
0	243	563.370178863217	33
0	245	565.638401836711	34
0	249	576.375778673491	33
0	254	582.448947497491	33
0	256	584.883224644294	34
0	259	600.709963063835	35
0	274	640.85141684619	29
0	285	687.76161823421	25
0	289	688.727931328968	26
0	293	705.076370722239	27
0	296	715.9480092005	28
0	298	720.686766845378	29
0	302	723.799091568504	30
0	304	731.050371694015	31
0	306	738.21519073483	32
0	308	738.822238024502	33
0	312	744.068287236785	34
0	323	756.484884622359	33
0	325	761.473385222325	34
0	327	762.226094275914	35
0	340	799.724576325184	34
0	350	821.147247013063	35
0	352	823.801422505266	36
0	355	836.749804546185	37
0	359	853.078903192315	38
0	366	870.998470699558	39
0	371	880.830733923947	40
0	380	893.217435194636	41
0	382	906.668866996905	42
0	385	918.623290573403	43
0	387	919.248349479899	44
0	394	945.855647726051	41
0	396	946.688111488124	42
0	400	968.031123308084	41
0	402	970.152406719344	42
0	404	971.150300432477	43
0	410	988.393433997575	42
0	412	994.490623682818	43
0	420	1027.125225611619	39
0	424	1033.912215976126	38
0	426	1043.308456436593	39
0	428	1044.462267627308	40
0	430	1045.632848180084	41
0	435	1047.302069123249	42
0	437	1047.837859487353	43
0	445	1089.368639708313	41
0	449	1100.071111898213	42
0	454	1103.239614144073	43
0	462	1121.983322707557	44
0	471	1144.728342827038	45
0	483	1167.137292667847	46
0	485	1168.93136648433	47
0	493	1208.632144335726	48
0	495	1210.051908615118	49
0	501	1219.258910902078	50
0	503	1223.076690675915	51
0	509	1234.450591372613	49
0	511	1238.123943579705	50
0	514	1242.928870294732	50
0	516	1248.411639262905	51
0	518	1251.379423845751	52
0	522	1255.399082031035	53
0	524	1263.372586817724	54
0	528	1271.767628511126	55
0	534	1293.504490813738	56
0	537	1294.505840097558	57
0	541	1310.016883361914	58
0	546	1326.010644670228	57
0	548	1326.130165290046	58
0	550	1329.258883718323	59
0	555	1339.996337954665	59
0	564	1364.234255218975	60
0	569	1385.251721740677	61
0	577	1408.453509734647	61
0	579	1410.541351761165	62
0	581	1410.701200519422	63
0	588	1437.916239710075	63
0	597	1457.135986058949	60
0	600	1463.863081362695	60
0	603	1475.121051293377	60
0	607	1485.698678768333	59
0	609	1486.082764281978	60
0	611	1488.654620302366	61
0	613	1492.350019974408	62
0	615	1494.481659191787	63
0	617	1502.788513431867	64
0	620	1521.305385869116	64
0	625	1530.321319216425	65
0	631	1541.740056958835	62
0	637	1553.159850998384	59
0	645	1568.578782640119	60
0	648	1578.587247343035	61
0	652	1589.573930396353	62
0	659	1617.49409152528	60
0	663	1622.843226805875	60
0	669	1636.203787737193	57
0	671	1636.223604907962	58
0	681	1649.882857743454	57
0	683	1652.748665399068	58
0	686	1653.901490038131	58
0	688	1656.281657010804	59
0	690	1663.086637639268	60
0	695	1676.909461828521	60
0	700	1697.064821415371	59
0	706	1713.323205912301	59
0	708	1713.507443854502	60
0	710	1714.315219406149	61
0	712	1716.335202817096	62
0	722	1734.695155229784	61
0	724	1735.890649832329	62
0	726	1738.477290119343	63
0	740	1757.670786796485	63
0	742	1759.030456891294	64
0	744	1759.527130891979	65
0	748	1773.983693338513	65
0	751	1780.903749549798	65
0	758	1790.216823658163	66
0	760	1797.21028462533	67
0	762	1799.390672298627	68
0	768	1813.860765463794	69
0	773	1823.203980516358	70
0	775	1827.473098799169	71
0	783	1841.446792750422	72
0	789	1868.244179735752	69
0	800	1887.669891032764	67
0	803	1891.225302871141	68
0	805	1893.784441518926	69
0	808	1901.79464966945	70
0	810	1903.376461398091	71
0	812	1903.969241316446	72
0	814	1905.924883769131	73
0	817	1914.971144170305	74
0	823	1921.532423523295	74
0	825	1931.833855161237	75
0	838	1961.983118157343	73
0	842	1975.499884752887	74
0	844	1976.122818012844	75
0	846	1977.164348844541	76
0	848	1979.50393054575	77
0	850	1983.731705496404	78
0	860	1999.351922660245	79
0	864	2011.039717619805	80
0	866	2026.168821835072	81
0	868	2028.179732084205	82
0	876	2033.048172808381	83
0	878	2033.073617590761	84
0	883	2050.459045601385	85
0	887	2053.572704547533	86
0	889	2053.957049572369	87
0	892	2065.96774147428	88
0	894	2066.468224913352	89
0	896	2071.897140969689	90
0	902	2095.309211991189	91
0	904	2099.152242455596	92
0	906	2111.494773923332	93
0	908	2113.8798162556	94
0	910	2116.269377278582	95
0	912	2120.023954379216	96
0	914	2123.122902361805	97
0	917	2127.750241830486	98
0	920	2130.078567183926	99
0	922	2131.495155404478	100
0	924	2132.624774988384	101
0	928	2143.935080643314	102
0	930	2150.616198935546	103
0	933	2157.745754046788	104
0	938	2176.601181932338	105
0	944	2196.080128418496	105
0	946	2196.648671677225	106
0	948	2196.652310126947	107
0	950	2197.452306147215	108
0	954	2212.554795247171	108
0	956	2220.065471877854	109
0	961	2235.781844994769	107
0	970	2247.258262670889	108
0	972	2247.921152751817	109
0	976	2262.60975715086	110
0	980	2268.231280023979	109
0	987	2284.362463945471	109
0	990	2288.616964143479	110
0	992	2288.768008539858	111
0	998	2307.199077728286	112
0	1003	2320.835344432854	113
0	1009	2327.454243526653	114
0	1011	2334.651959635471	115
0	1014	2337.646540715213	116
0	1025	2382.030018921152	117
0	1027	2383.273477274161	118
0	1029	2384.450095936471	119
0	1033	2394.024967628115	120
0	1035	2397.913866535143	121
0	1037	2402.248345995042	122
0	1041	2423.668402161838	123
0	1043	2430.87271779238	124
0	1045	2431.065062749537	125
0	1048	2435.567579352682	125
0	1054	2447.658637715971	125
0	1067	2487.122538059349	119
1	134	350.303694308731	16
1	138	352.709450616181	17
1	140	359.137739579226	18
1	144	369.266637427107	19
1	146	369.375412817191	20
1	148	370.873719345442	21
1	154	387.024720403828	22
1	157	393.162611874545	23
1	160	394.679426205505	24
1	163	415.383307801732	25
1	165	418.87213829018	26
1	169	421.862269267216	27
1	180	441.130071532625	28
1	183	452.061875109923	29
1	184	453.61841582257	29
1	195	468.155898046976	29
1	196	476.886049640864	29
1	197	479.211557425227	28
1	199	488.009898807156	28
1	203	492.900364237022	29
1	205	494.512010483134	30
1	207	496.805962591702	30
1	215	512.775260977005	30
1	216	518.421429409094	30
1	218	521.052336852026	30
1	220	525.543254130801	31
1	221	526.247450974633	31
1	223	527.276736677588	31
1	224	533.263431194558	31
1	231	551.162666912064	31
1	234	553.060902280298	32
1	236	555.656423412936	33
1	237	556.506315683969	33
1	238	556.542388995051	32
1	240	556.754828330883	32
1	241	558.936739299523	32
1	243	563.370178863217	32
1	245	565.638401836711	33
1	246	566.068863568085	33
1	247	571.058023823757	32
1	249	576.375778673491	32
1	250	576.727759893291	32
1	254	582.448947497491	32
1	256	584.883224644294	33
1	259	600.709963063835	34
1	260	604.646213826678	34
1	261	606.448138063953	33
1	262	607.873585575201	32
1	263	612.431609749616	31
1	264	612.871118460818	30
1	268	627.605707610626	29
1	272	638.74644990815	28
1	274	640.85141684619	28
1	275	642.183410944145	28
1	276	653.94943748408	27
1	277	660.470603175978	26
1	278	660.590298417557	25
1	279	672.550212634211	24
1	285	687.76161823421	24
1	289	688.727931328968	25
1	293	705.076370722239	26
1	296	715.9480092005	27
1	298	720.686766845378	28
1	302	723.799091568504	29
1	304	731.050371694015	30
1	306	738.21519073483	31
1	308	738.822238024502	32
1	312	744.068287236785	33
1	315	748.255585504657	33
1	319	755.462961098196	32
1	323	756.484884622359	32
1	325	761.473385222325	33
1	327	762.226094275914	34
1	332	787.929649607742	34
1	333	789.712956839222	33
1	340	799.724576325184	33
1	350	821.147247013063	34
1	352	823.801422505266	35
1	355	836.749804546185	36
1	359	853.078903192315	37
1	366	870.998470699558	38
1	371	880.830733923947	39
1	380	893.217435194636	40
1	382	906.668866996905	41
1	385	918.623290573403	42
1	387	919.248349479899	43
1	389	924.950433125959	43
1	390	933.528512142811	42
1	391	944.389080426556	41
1	392	945.209265986914	40
1	394	945.855647726051	40
1	396	946.688111488124	41
1	397	948.823518919409	41
1	398	955.255148234471	40
1	400	968.031123308084	40
1	402	970.152406719344	41
1	404	971.150300432477	42
1	405	981.944648308854	42
1	406	982.685684499277	41
1	410	988.393433997575	41
1	412	994.490623682818	42
1	414	999.390803275123	42
1	415	1012.08151827766	41
1	416	1016.759651633242	40
1	417	1018.289232493044	39
1	418	1024.043724607815	38
1	420	1027.125225611619	38
1	421	1031.196772810039	38
1	422	1033.210831264897	37
1	424	1033.912215976126	37
1	426	1043.308456436593	38
1	428	1044.462267627308	39
1	430	1045.632848180084	40
1	435	1047.302069123249	41
1	437	1047.837859487353	42
1	438	1051.435071364227	42
1	439	1053.293149869301	41
1	443	1083.827787116539	40
1	445	1089.368639708313	40
1	449	1100.071111898213	41
1	454	1103.239614144073	42
1	462	1121.983322707557	43
1	471	1144.728342827038	44
1	483	1167.137292667847	45
1	485	1168.93136648433	46
1	493	1208.632144335726	47
1	495	1210.051908615118	48
1	501	1219.258910902078	49
1	503	1223.076690675915	50
1	505	1226.575055116971	50
1	506	1229.979905778396	49
1	507	1230.79754075908	48
1	509	1234.450591372613	48
1	511	1238.123943579705	49
1	512	1242.284851228346	49
1	514	1242.928870294732	49
1	516	1248.411639262905	50
1	518	1251.379423845751	51
1	522	1255.399082031035	52
1	524	1263.372586817724	53
1	528	1271.767628511126	54
1	534	1293.504490813738	55
1	537	1294.505840097558	56
1	541	1310.016883361914	57
1	543	1317.431761693412	57
1	544	1320.029957622492	56
1	546	1326.010644670228	56
1	548	1326.130165290046	57
1	550	1329.258883718323	58
1	551	1334.039528787615	58
1	555	1339.996337954665	58
1	564	1364.234255218975	59
1	569	1385.251721740677	60
1	573	1402.988192749	60
1	577	1408.453509734647	60
1	579	1410.541351761165	61
1	581	1410.701200519422	62
1	586	1437.888531987032	62
1	588	1437.916239710075	62
1	589	1442.094633600115	62
1	590	1442.237137543198	61
1	591	1442.929222877928	60
1	592	1444.320267944631	59
1	597	1457.135986058949	59
1	598	1461.062014905401	59
1	600	1463.863081362695	59
1	601	1470.538916979395	59
1	603	1475.121051293377	59
1	604	1481.446614699091	59
1	605	1482.35683552321	58
1	607	1485.698678768333	58
1	609	1486.082764281978	59
1	611	1488.654620302366	60
1	613	1492.350019974408	61
1	615	1494.481659191787	62
1	617	1502.788513431867	63
1	618	1509.309693147683	63
1	620	1521.305385869116	63
1	625	1530.321319216425	64
1	626	1531.82008363275	64
1	627	1532.305071051985	63
1	628	1532.476015672429	62
1	629	1540.346717251003	61
1	631	1541.740056958835	61
1	632	1541.769691852625	61
1	633	1548.234412520522	60
1	634	1549.557017863848	59
1	635	1549.959385997747	58
1	637	1553.159850998384	58
1	645	1568.578782640119	59
1	648	1578.587247343035	60
1	652	1589.573930396353	61
1	653	1591.642512286545	61
1	654	1606.230809650735	60
1	655	1613.914081091833	59
1	659	1617.49409152528	59
1	661	1622.178696698157	59
1	663	1622.843226805875	59
1	664	1624.239827449763	59
1	665	1630.839783581552	58
1	666	1632.510761482984	57
1	667	1634.536831820516	56
1	669	1636.203787737193	56
1	671	1636.223604907962	57
1	672	1638.920094361114	57
1	679	1645.704501578551	56
1	681	1649.882857743454	56
1	683	1652.748665399068	57
1	684	1653.654239836848	57
1	686	1653.901490038131	57
1	688	1656.281657010804	58
1	690	1663.086637639268	59
1	691	1671.316110197471	59
1	695	1676.909461828521	59
1	697	1691.164766787033	59
1	698	1691.629034036158	58
1	700	1697.064821415371	58
1	704	1708.851144364325	58
1	706	1713.323205912301	58
1	708	1713.507443854502	59
1	710	1714.315219406149	60
1	712	1716.335202817096	61
1	713	1717.784516886132	61
1	714	1719.408850165666	60
1	722	1734.695155229784	60
1	724	1735.890649832329	61
1	726	1738.477290119343	62
1	730	1746.056474221751	62
1	740	1757.670786796485	62
1	742	1759.030456891294	63
1	744	1759.527130891979	64
1	746	1770.78850490818	64
1	748	1773.983693338513	64
1	749	1777.578113428517	64
1	751	1780.903749549798	64
1	758	1790.216823658163	65
1	760	1797.21028462533	66
1	762	1799.390672298627	67
1	768	1813.860765463794	68
1	773	1823.203980516358	69
1	775	1827.473098799169	70
1	783	1841.446792750422	71
1	784	1845.291378336105	71
1	785	1849.713537209416	70
1	786	1859.170450781757	69
1	787	1860.62604370722	68
1	789	1868.244179735752	68
1	790	1878.546728692362	68
1	791	1879.085828885678	67
1	792	1881.54652073726	66
1	800	1887.669891032764	66
1	803	1891.225302871141	67
1	805	1893.784441518926	68
1	808	1901.79464966945	69
1	810	1903.376461398091	70
1	812	1903.969241316446	71
1	814	1905.924883769131	72
1	817	1914.971144170305	73
1	821	1920.467205179032	73
1	823	1921.532423523295	73
1	825	1931.833855161237	74
1	826	1941.565184896933	74
1	827	1942.262145858011	73
1	828	1943.831581805963	72
1	838	1961.983118157343	72
1	842	1975.499884752887	73
1	844	1976.122818012844	74
1	846	1977.164348844541	75
1	848	1979.50393054575	76
1	850	1983.731705496404	77
1	860	1999.351922660245	78
1	864	2011.039717619805	79
1	866	2026.168821835072	80
1	868	2028.179732084205	81
1	876	2033.048172808381	82
1	878	2033.073617590761	83
1	883	2050.459045601385	84
1	887	2053.572704547533	85
1	889	2053.957049572369	86
1	892	2065.96774147428	87
1	894	2066.468224913352	88
1	896	2071.897140969689	89
1	902	2095.309211991189	90
1	904	2099.152242455596	91
1	906	2111.494773923332	92
1	908	2113.8798162556	93
1	910	2116.269377278582	94
1	912	2120.023954379216	95
1	914	2123.122902361805	96
1	917	2127.750241830486	97
1	920	2130.078567183926	98
1	922	2131.495155404478	99
1	924	2132.624774988384	100
1	928	2143.935080643314	101
1	930	2150.616198935546	102
1	933	2157.745754046788	103
1	938	2176.601181932338	104
1	940	2185.027538338019	104
1	944	2196.080128418496	104
1	946	2196.648671677225	105
1	948	2196.652310126947	106
1	950	2197.452306147215	107
1	952	2205.263863292063	107
1	954	2212.554795247171	107
1	956	2220.065471877854	108
1	957	2220.094838692624	108
1	958	2226.345389751326	107
1	959	2227.576528392697	106
1	961	2235.781844994769	106
1	970	2247.258262670889	107
1	972	2247.921152751817	108
1	976	2262.60975715086	109
1	977	2264.847194872054	109
1	978	2265.483431724108	108
1	980	2268.231280023979	108
1	981	2271.981890111503	108
1	987	2284.362463945471	108
1	990	2288.616964143479	109
1	992	2288.768008539858	110
1	998	2307.199077728286	111
1	1003	2320.835344432854	112
1	1009	2327.454243526653	113
1	1011	2334.651959635471	114
1	1014	2337.646540715213	115
1	1025	2382.030018921152	116
1	1027	2383.273477274161	117
1	1029	2384.450095936471	118
1	1033	2394.024967628115	119
1	1035	2397.913866535143	120
1	1037	2402.248345995042	121
1	1041	2423.668402161838	122
1	1043	2430.87271779238	123
1	1045	2431.065062749537	124
1	1046	2432.050339187813	124
1	1048	2435.567579352682	124
1	1052	2445.707153856188	124
1	1054	2447.658637715971	124
1	1055	2454.953833795886	124
1	1056	2463.863966226741	123
1	1057	2466.970151914641	122
1	1058	2467.251676561761	121
1	1059	2470.616043341651	120
1	1060	2471.836204021045	119
1	1061	2472.194725642067	118
1	1067	2487.122538059349	118
2	136	350.810908640399	3
2	142	362.43827406384	4
2	150	372.457831806101	5
2	167	421.231036863725	1
2	171	422.258155636236	2
2	174	434.397689262197	2
2	178	439.610663971992	1
2	186	453.793526523054	1
2	189	457.822166656212	1
2	191	459.596779139852	2
2	201	490.031856445978	1
2	209	501.146565597212	1
2	212	507.998940490456	1
2	226	535.385086866618	1
2	228	536.647697750317	2
2	252	577.008063714078	1
2	266	625.155745667831	1
2	270	632.977105340681	1
2	281	682.961103942653	1
2	283	685.159062044213	2
2	287	688.41788609212	3
2	300	720.818567622802	1
2	310	742.34700746987	2
2	317	752.391989375619	1
2	321	755.897324484502	1
2	330	775.662088383508	1
2	335	790.080534832881	1
2	337	790.813576755962	2
2	342	807.051325263327	2
2	344	814.182191414584	3
2	346	819.651339178744	4
2	348	820.627860029246	5
2	361	860.996806993361	3
2	364	870.307832749627	3
2	368	874.759940419569	4
2	373	880.847424649465	4
2	378	893.070156380368	2
2	408	986.254666555407	1
2	432	1045.839946687533	1
2	441	1055.895288500736	1
2	447	1094.128034977528	1
2	451	1101.478109745127	2
2	456	1103.51526631821	2
2	458	1108.512747814944	3
2	460	1112.452693155669	4
2	464	1126.078054653729	5
2	467	1137.278937592869	5
2	469	1138.471287941422	6
2	474	1150.749150558914	6
2	477	1157.590509079489	6
2	481	1163.830009180747	5
2	487	1169.18630106408	6
2	490	1188.666672010308	6
2	520	1254.837442024195	1
2	526	1264.436041734011	2
2	532	1283.561317743566	1
2	539	1294.924141858317	1
2	553	1334.618986807489	1
2	557	1351.449230121806	2
2	559	1353.337317539997	3
2	562	1364.007868382867	3
2	566	1367.234470496	4
2	575	1407.623308105574	1
2	583	1429.953231197204	2
2	594	1445.290017857441	1
2	622	1522.546985036706	1
2	639	1564.732089783015	1
2	641	1565.20203831387	2
2	643	1567.158129871605	3
2	657	1614.815752662296	1
2	674	1641.723510214391	1
2	676	1642.919599835408	2
2	693	1672.309207478826	1
2	702	1700.493543879694	1
2	716	1725.771804747797	1
2	718	1727.107486985558	2
2	728	1741.765106934903	1
2	732	1747.672227176383	1
2	734	1750.165771003638	2
2	738	1753.882913231852	1
2	753	1785.856777205899	1
2	756	1790.198200156219	1
2	764	1801.790227424367	2
2	766	1804.043678835036	3
2	770	1816.226235181707	4
2	779	1830.93854574318	2
2	794	1884.186922687865	1
2	796	1884.312240102275	2
2	798	1884.679389480801	3
2	819	1915.950055390832	1
2	830	1947.126132806161	1
2	832	1950.112634598494	2
2	834	1951.560215154763	3
2	836	1953.826841268356	4
2	840	1975.34125048369	5
2	852	1986.569639472766	6
2	854	1989.237686142385	7
2	856	1994.180594181578	8
2	858	1996.175709749868	9
2	870	2032.315413499591	8
2	872	2032.713617515447	9
2	874	2032.831458324909	10
2	881	2050.075995185237	10
2	885	2053.286951205201	11
2	936	2166.547424019246	1
2	942	2190.516773128762	1
2	963	2238.342644924639	1
2	966	2241.536865042855	1
2	968	2242.466596596854	2
2	983	2283.392076793466	1
2	985	2283.943439539722	2
2	994	2298.37380560479	2
2	996	2304.187980098955	3
2	1001	2315.248738444814	3
2	1005	2320.865879407701	4
2	1007	2321.248891173496	5
2	1016	2341.447019352221	5
2	1018	2355.084277993321	6
2	1023	2379.095213703034	4
2	1050	2437.703142205419	1
2	1063	2475.022752058164	1
2	1065	2483.50970015636	2
2	1069	2493.644976029564	3
3	136	350.810908640399	2
3	142	362.43827406384	3
3	150	372.457831806101	4
3	151	373.803861668643	4
3	152	383.657465275131	3
3	155	388.440418250036	2
3	158	393.527281020129	1
3	161	397.004157311434	0
3	167	421.231036863725	0
3	171	422.258155636236	1
3	172	432.861706482241	1
3	174	434.397689262197	1
3	175	435.352147461241	1
3	176	438.042780479385	0
3	178	439.610663971992	0
3	181	449.169633862163	0
3	186	453.793526523054	0
3	187	456.602715219067	0
3	189	457.822166656212	0
3	191	459.596779139852	1
3	192	464.677028188853	1
3	193	464.907919302032	0
3	201	490.031856445978	0
3	206	494.878269403277	0
3	209	501.146565597212	0
3	210	502.134051745579	0
3	212	507.998940490456	0
3	213	512.156462892041	0
3	226	535.385086866618	0
3	228	536.647697750317	1
3	229	538.779423683882	1
3	232	552.440946931307	0
3	252	577.008063714078	0
3	257	586.736357949523	0
3	266	625.155745667831	0
3	267	625.659199399616	0
3	270	632.977105340681	0
3	271	636.671795381918	0
3	281	682.961103942653	0
3	283	685.159062044213	1
3	287	688.41788609212	2
3	290	695.521138155056	2
3	291	697.47028780664	1
3	294	711.426606416671	0
3	300	720.818567622802	0
3	310	742.34700746987	1
3	313	744.485435879273	1
3	314	747.713329018633	0
3	317	752.391989375619	0
3	318	755.393732099528	0
3	321	755.897324484502	0
3	328	767.237289202036	0
3	330	775.662088383508	0
3	331	778.698124177811	0
3	335	790.080534832881	0
3	337	790.813576755962	1
3	338	796.845782637503	1
3	342	807.051325263327	1
3	344	814.182191414584	2
3	346	819.651339178744	3
3	348	820.627860029246	4
3	353	826.182976733845	4
3	356	841.757984845782	3
3	357	843.049519009499	2
3	361	860.996806993361	2
3	362	867.436956168862	2
3	364	870.307832749627	2
3	368	874.759940419569	3
3	369	880.503381291508	3
3	373	880.847424649465	3
3	374	884.818670348368	3
3	375	884.86856170307	2
3	376	891.709022810658	1
3	378	893.070156380368	1
3	383	910.171773523537	1
3	388	923.701475589403	0
3	408	986.254666555407	0
3	413	997.565210040484	0
3	432	1045.839946687533	0
3	433	1047.15102950034	0
3	441	1055.895288500736	0
3	442	1063.545203272471	0
3	447	1094.128034977528	0
3	451	1101.478109745127	1
3	452	1101.670911934737	1
3	456	1103.51526631821	1
3	458	1108.512747814944	2
3	460	1112.452693155669	3
3	464	1126.078054653729	4
3	465	1127.672433280499	4
3	467	1137.278937592869	4
3	469	1138.471287941422	5
3	472	1147.655500027539	5
3	474	1150.749150558914	5
3	475	1154.483325009027	5
3	477	1157.590509079489	5
3	478	1160.723424189513	5
3	479	1162.581083163533	4
3	481	1163.830009180747	4
3	487	1169.18630106408	5
3	488	1185.420108967654	5
3	490	1188.666672010308	5
3	491	1192.732623665576	5
3	496	1215.144430658561	4
3	497	1218.444495156705	3
3	498	1218.719718972018	2
3	499	1218.820976171901	1
3	504	1224.543055026772	0
3	520	1254.837442024195	0
3	526	1264.436041734011	1
3	529	1275.28570421509	1
3	530	1279.332134011023	0
3	532	1283.561317743566	0
3	535	1293.710244448419	0
3	539	1294.924141858317	0
3	542	1311.544241877942	0
3	553	1334.618986807489	0
3	557	1351.449230121806	1
3	559	1353.337317539997	2
3	560	1361.71047266515	2
3	562	1364.007868382867	2
3	566	1367.234470496	3
3	567	1379.308899420986	3
3	570	1392.288533260696	2
3	571	1396.395122800945	1
3	572	1399.348641587469	0
3	575	1407.623308105574	0
3	583	1429.953231197204	1
3	584	1432.597629541027	1
3	585	1436.865049403729	0
3	594	1445.290017857441	0
3	595	1448.811461498073	0
3	622	1522.546985036706	0
3	623	1529.647288881219	0
3	639	1564.732089783015	0
3	641	1565.20203831387	1
3	643	1567.158129871605	2
3	646	1571.94441258644	2
3	649	1579.464700542377	1
3	650	1582.761277077376	0
3	657	1614.815752662296	0
3	660	1617.659196256472	0
3	674	1641.723510214391	0
3	676	1642.919599835408	1
3	677	1643.67980324444	1
3	678	1645.503149568724	0
3	693	1672.309207478826	0
3	696	1685.652948503305	0
3	702	1700.493543879694	0
3	703	1704.743820082491	0
3	716	1725.771804747797	0
3	718	1727.107486985558	1
3	719	1728.231753937553	1
3	720	1729.666585027618	0
3	728	1741.765106934903	0
3	729	1743.33012470681	0
3	732	1747.672227176383	0
3	734	1750.165771003638	1
3	735	1752.353704320156	1
3	736	1753.436807637511	0
3	738	1753.882913231852	0
3	745	1759.948164858316	0
3	753	1785.856777205899	0
3	754	1786.636039123162	0
3	756	1790.198200156219	0
3	764	1801.790227424367	1
3	766	1804.043678835036	2
3	770	1816.226235181707	3
3	771	1823.146105875748	3
3	776	1828.546709465478	2
3	777	1830.041227735688	1
3	779	1830.93854574318	1
3	780	1834.091853128318	1
3	781	1840.951526846162	0
3	794	1884.186922687865	0
3	796	1884.312240102275	1
3	798	1884.679389480801	2
3	801	1888.555757286959	2
3	806	1895.681126963416	1
3	815	1910.793941729669	0
3	819	1915.950055390832	0
3	820	1919.409883532794	0
3	830	1947.126132806161	0
3	832	1950.112634598494	1
3	834	1951.560215154763	2
3	836	1953.826841268356	3
3	840	1975.34125048369	4
3	852	1986.569639472766	5
3	854	1989.237686142385	6
3	856	1994.180594181578	7
3	858	1996.175709749868	8
3	861	2002.553472081479	8
3	862	2004.206151555945	7
3	870	2032.315413499591	7
3	872	2032.713617515447	8
3	874	2032.831458324909	9
3	879	2047.417396282573	9
3	881	2050.075995185237	9
3	885	2053.286951205201	10
3	890	2056.04908862685	10
3	897	2072.741596701343	9
3	898	2073.781963058588	8
3	899	2077.208972017556	7
3	900	2085.181858209356	6
3	915	2123.375270273882	5
3	918	2128.013735228309	4
3	925	2140.851847464704	3
3	926	2141.692858598969	2
3	931	2154.838817382483	1
3	934	2162.681394990398	0
3	936	2166.547424019246	0
3	939	2177.659852117983	0
3	942	2190.516773128762	0
3	951	2200.437886903243	0
3	963	2238.342644924639	0
3	964	2241.416851784157	0
3	966	2241.536865042855	0
3	968	2242.466596596854	1
3	973	2251.83974788438	1
3	974	2253.952058287812	0
3	983	2283.392076793466	0
3	985	2283.943439539722	1
3	988	2285.38505006403	1
3	994	2298.37380560479	1
3	996	2304.187980098955	2
3	999	2307.652525596922	2
3	1001	2315.248738444814	2
3	1005	2320.865879407701	3
3	1007	2321.248891173496	4
3	1012	2336.926633455672	4
3	1016	2341.447019352221	4
3	1018	2355.084277993321	5
3	1019	2360.565567624421	5
3	1020	2361.143529885769	4
3	1021	2366.268616506711	3
3	1023	2379.095213703034	3
3	1030	2386.427461230749	3
3	1031	2388.133223184058	2
3	1038	2402.681123009986	1
3	1039	2412.320833178757	0
3	1050	2437.703142205419	0
3	1051	2440.467554419512	0
3	1063	2475.022752058164	0
3	1065	2483.50970015636	1
3	1069	2493.644976029564	2
4	151	373.803861668643	12
4	152	383.657465275131	13
4	155	388.440418250036	14
4	158	393.527281020129	15
4	161	397.004157311434	16
4	172	432.861706482241	17
4	175	435.352147461241	18
4	176	438.042780479385	19
4	181	449.169633862163	20
4	187	456.602715219067	21
4	192	464.677028188853	22
4	193	464.907919302032	23
4	206	494.878269403277	24
4	210	502.134051745579	25
4	213	512.156462892041	26
4	229	538.779423683882	27
4	232	552.440946931307	28
4	257	586.736357949523	29
4	267	625.659199399616	30
4	271	636.671795381918	31
4	290	695.521138155056	32
4	291	697.47028780664	33
4	294	711.426606416671	34
4	313	744.485435879273	35
4	314	747.713329018633	36
4	318	755.393732099528	37
4	328	767.237289202036	38
4	331	778.698124177811	39
4	338	796.845782637503	40
4	353	826.182976733845	41
4	356	841.757984845782	42
4	357	843.049519009499	43
4	362	867.436956168862	44
4	369	880.503381291508	45
4	374	884.818670348368	46
4	375	884.86856170307	47
4	376	891.709022810658	48
4	383	910.171773523537	49
4	388	923.701475589403	50
4	413	997.565210040484	51
4	433	1047.15102950034	52
4	442	1063.545203272471	53
4	452	1101.670911934737	54
4	465	1127.672433280499	55
4	472	1147.655500027539	56
4	475	1154.483325009027	57
4	478	1160.723424189513	58
4	479	1162.581083163533	59
4	488	1185.420108967654	60
4	491	1192.732623665576	61
4	496	1215.144430658561	62
4	497	1218.444495156705	63
4	498	1218.719718972018	64
4	499	1218.820976171901	65
4	504	1224.543055026772	66
4	529	1275.28570421509	67
4	530	1279.332134011023	68
4	535	1293.710244448419	69
4	542	1311.544241877942	70
4	560	1361.71047266515	71
4	567	1379.308899420986	72
4	570	1392.288533260696	73
4	571	1396.395122800945	74
4	572	1399.348641587469	75
4	584	1432.597629541027	76
4	585	1436.865049403729	77
4	595	1448.811461498073	78
4	623	1529.647288881219	79
4	646	1571.94441258644	80
4	649	1579.464700542377	81
4	650	1582.761277077376	82
4	660	1617.659196256472	83
4	677	1643.67980324444	84
4	678	1645.503149568724	85
4	696	1685.652948503305	86
4	703	1704.743820082491	87
4	719	1728.231753937553	88
4	720	1729.666585027618	89
4	729	1743.33012470681	90
4	735	1752.353704320156	91
4	736	1753.436807637511	92
4	745	1759.948164858316	93
4	754	1786.636039123162	94
4	771	1823.146105875748	95
4	776	1828.546709465478	96
4	777	1830.041227735688	97
4	780	1834.091853128318	98
4	781	1840.951526846162	99
4	801	1888.555757286959	100
4	806	1895.681126963416	101
4	815	1910.793941729669	102
4	820	1919.409883532794	103
4	861	2002.553472081479	104
4	862	2004.206151555945	105
4	879	2047.417396282573	106
4	890	2056.04908862685	107
4	897	2072.741596701343	108
4	898	2073.781963058588	109
4	899	2077.208972017556	110
4	900	2085.181858209356	111
4	915	2123.375270273882	112
4	918	2128.013735228309	113
4	925	2140.851847464704	114
4	926	2141.692858598969	115
4	931	2154.838817382483	116
4	934	2162.681394990398	117
4	939	2177.659852117983	118
4	951	2200.437886903243	119
4	964	2241.416851784157	120
4	973	2251.83974788438	121
4	974	2253.952058287812	122
4	988	2285.38505006403	123
4	999	2307.652525596922	124
4	1012	2336.926633455672	125
4	1019	2360.565567624421	126
4	1020	2361.143529885769	127
4	1021	2366.268616506711	128
4	1030	2386.427461230749	129
4	1031	2388.133223184058	130
4	1038	2402.681123009986	131
4	1039	2412.320833178757	132
4	1051	2440.467554419512	133
5	151	373.803861668643	25.70144803591
5	152	383.657465275131	34.67882560093
5	155	388.440418250036	37.629509609637
5	158	393.527281020129	31.089006956289
5	161	397.004157311434	24.546325505333
5	172	432.861706482241	11.630669618516
5	175	435.352147461241	13.093991825005
5	176	438.042780479385	3.645091217188
5	181	449.169633862163	9.558969890171
5	187	456.602715219067	2.809188696013
5	192	464.677028188853	6.854861532641
5	193	464.907919302032	5.31114016218
5	206	494.878269403277	4.846412957299
5	210	502.134051745579	0.987486148367
5	213	512.156462892041	4.157522401585
5	229	538.779423683882	3.394336817264
5	232	552.440946931307	15.79324918099
5	257	586.736357949523	9.728294235445
5	267	625.659199399616	0.503453731785
5	271	636.671795381918	3.694690041237
5	290	695.521138155056	12.560034212403
5	291	697.47028780664	12.311225762427
5	294	711.426606416671	23.008720324551
5	313	744.485435879273	23.666868256471
5	314	747.713329018633	5.366321548763
5	318	755.393732099528	3.001742723909
5	328	767.237289202036	11.339964717534
5	331	778.698124177811	3.036035794303
5	338	796.845782637503	6.765247804622
5	353	826.182976733845	35.369399977883
5	356	841.757984845782	34.706659582455
5	357	843.049519009499	28.867327594915
5	362	867.436956168862	47.785616990118
5	369	880.503381291508	59.875521262262
5	374	884.818670348368	23.821863355007
5	375	884.86856170307	14.560728953443
5	376	891.709022810658	16.949082391089
5	383	910.171773523537	29.324348874072
5	388	923.701475589403	30.631319209035
5	413	997.565210040484	11.310543485077
5	433	1047.15102950034	1.311082812807
5	442	1063.545203272471	7.649914771735
5	452	1101.670911934737	7.542876957209
5	465	1127.672433280499	26.194323535372
5	472	1147.655500027539	44.140233709329
5	475	1154.483325009027	45.970577194083
5	478	1160.723424189513	48.270731033844
5	479	1162.581083163533	36.503028509804
5	488	1185.420108967654	48.141171374785
5	491	1192.732623665576	54.261335724154
5	496	1215.144430658561	64.395280099647
5	497	1218.444495156705	60.853986077216
5	498	1218.719718972018	54.889709791271
5	499	1218.820976171901	49.634675107821
5	504	1224.543055026772	35.876383016464
5	529	1275.28570421509	20.448262190895
5	530	1279.332134011023	14.896092277012
5	535	1293.710244448419	10.148926704853
5	542	1311.544241877942	16.620100019625
5	560	1361.71047266515	27.091485857661
5	567	1379.308899420986	27.85966929918
5	570	1392.288533260696	38.951215720699
5	571	1396.395122800945	32.387254418078
5	572	1399.348641587469	32.114171091469
5	584	1432.597629541027	24.974321435453
5	585	1436.865049403729	6.911818206525
5	595	1448.811461498073	3.521443640632
5	623	1529.647288881219	7.100303844513
5	646	1571.94441258644	7.212322803425
5	649	1579.464700542377	14.262662228507
5	650	1582.761277077376	15.603147205771
5	660	1617.659196256472	2.843443594176
5	677	1643.67980324444	1.956293030049
5	678	1645.503149568724	2.583549733316
5	696	1685.652948503305	13.343741024479
5	703	1704.743820082491	4.250276202797
5	719	1728.231753937553	2.459949189756
5	720	1729.666585027618	2.55909804206
5	729	1743.33012470681	1.565017771907
5	735	1752.353704320156	4.681477143773
5	736	1753.436807637511	3.271036633873
5	745	1759.948164858316	6.065251626464
5	754	1786.636039123162	0.779261917263
5	771	1823.146105875748	32.947905719529
5	776	1828.546709465478	26.756482041111
5	777	1830.041227735688	25.997548900652
5	780	1834.091853128318	17.865617946611
5	781	1840.951526846162	10.012981102982
5	801	1888.555757286959	4.368834599094
5	806	1895.681126963416	11.368886861141
5	815	1910.793941729669	26.114552248868
5	820	1919.409883532794	3.459828141962
5	861	2002.553472081479	55.427339275318
5	862	2004.206151555945	54.093516957451
5	879	2047.417396282573	95.85718112781
5	890	2056.04908862685	102.22224735849
5	897	2072.741596701343	97.400346217653
5	898	2073.781963058588	87.212323585822
5	899	2077.208972017556	87.971285875171
5	900	2085.181858209356	91.001264027778
5	915	2123.375270273882	127.19956052401
5	918	2128.013735228309	95.698321728718
5	925	2140.851847464704	108.13822994926
5	926	2141.692858598969	108.86140027406
5	931	2154.838817382483	104.76282219725
5	934	2162.681394990398	109.3944437852
5	939	2177.659852117983	11.112428098737
5	951	2200.437886903243	9.921113774481
5	964	2241.416851784157	3.074206859518
5	973	2251.83974788438	10.302882841525
5	974	2253.952058287812	11.485461690958
5	988	2285.38505006403	1.992973270564
5	999	2307.652525596922	23.7090860572
5	1012	2336.926633455672	38.552827850882
5	1019	2360.565567624421	56.377587525466
5	1020	2361.143529885769	45.894791440955
5	1021	2366.268616506711	45.40273709901
5	1030	2386.427461230749	65.178570057253
5	1031	2388.133223184058	46.686203831837
5	1038	2402.681123009986	47.596845016665
5	1039	2412.320833178757	33.225619475723
5	1051	2440.467554419512	2.764412214093
6	151	373.803861668643	24.825221994442
6	152	383.657465275131	32.846556634732
6	155	388.440418250036	26.002144186196
6	158	393.527281020129	21.069449214028
6	167	421.231036863725	0
6	172	432.861706482241	10.603550846005
6	175	435.352147461241	0.954458199044
6	178	439.610663971992	0
6	186	453.793526523054	0
6	189	457.822166656212	0
6	192	464.677028188853	5.080249049001
6	201	490.031856445978	0
6	209	501.146565597212	0
6	212	507.998940490456	0
6	226	535.385086866618	0
6	229	538.779423683882	2.131725933565
6	252	577.008063714078	0
6	266	625.155745667831	0
6	270	632.977105340681	0
6	281	682.961103942653	0
6	290	695.521138155056	10.362076110843
6	291	697.47028780664	9.05240171452
6	300	720.818567622802	0
6	313	744.485435879273	2.138428409403
6	317	752.391989375619	0
6	321	755.897324484502	0
6	330	775.662088383508	0
6	335	790.080534832881	0
6	338	796.845782637503	6.032205881541
6	353	826.182976733845	19.131651470518
6	356	841.757984845782	27.575793431198
6	357	843.049519009499	23.398179830755
6	362	867.436956168862	46.809096139616
6	369	880.503381291508	19.506574298147
6	374	884.818670348368	14.510837598741
6	375	884.86856170307	10.108621283501
6	376	891.709022810658	10.861598161193
6	383	910.171773523537	17.101617143169
6	408	986.254666555407	0
6	432	1045.839946687533	0
6	441	1055.895288500736	0
6	447	1094.128034977528	0
6	452	1101.670911934737	0.19280218961
6	465	1127.672433280499	24.157166962289
6	472	1147.655500027539	39.142752212595
6	475	1154.483325009027	42.030631853358
6	478	1160.723424189513	34.645369535784
6	479	1162.581083163533	25.302145570664
6	488	1185.420108967654	46.948821026232
6	491	1192.732623665576	41.983473106662
6	496	1215.144430658561	57.553921579072
6	497	1218.444495156705	54.614485975958
6	498	1218.719718972018	49.533417907938
6	499	1218.820976171901	30.154304161593
6	520	1254.837442024195	0
6	529	1275.28570421509	10.849662481079
6	532	1283.561317743566	0
6	539	1294.924141858317	0
6	553	1334.618986807489	0
6	560	1361.71047266515	10.261242543344
6	567	1379.308899420986	25.971581880989
6	570	1392.288533260696	28.280664877829
6	571	1396.395122800945	29.160652304945
6	575	1407.623308105574	0
6	584	1432.597629541027	2.644398343823
6	594	1445.290017857441	0
6	622	1522.546985036706	0
6	639	1564.732089783015	0
6	646	1571.94441258644	6.74237427257
6	649	1579.464700542377	12.306570670772
6	657	1614.815752662296	0
6	674	1641.723510214391	0
6	677	1643.67980324444	0.760203409032
6	693	1672.309207478826	0
6	702	1700.493543879694	0
6	716	1725.771804747797	0
6	719	1728.231753937553	1.124266951995
6	728	1741.765106934903	0
6	732	1747.672227176383	0
6	735	1752.353704320156	2.187933316518
6	738	1753.882913231852	0
6	753	1785.856777205899	0
6	756	1790.198200156219	0
6	771	1823.146105875748	21.355878451381
6	776	1828.546709465478	24.503030630442
6	777	1830.041227735688	13.814992553981
6	780	1834.091853128318	3.153307385138
6	794	1884.186922687865	0
6	801	1888.555757286959	4.243517184684
6	806	1895.681126963416	11.001737482615
6	819	1915.950055390832	0
6	830	1947.126132806161	0
6	861	2002.553472081479	52.440837482985
6	862	2004.206151555945	52.645936401182
6	879	2047.417396282573	93.590555014217
6	890	2056.04908862685	80.70783814316
6	897	2072.741596701343	86.171957228577
6	898	2073.781963058588	84.544276916203
6	899	2077.208972017556	83.028377835978
6	900	2085.181858209356	89.006148459488
6	915	2123.375270273882	91.059856774291
6	918	2128.013735228309	95.300117712862
6	925	2140.851847464704	108.0203891398
6	926	2141.692858598969	91.616863413732
6	931	2154.838817382483	101.55186617728
6	936	2166.547424019246	0
6	942	2190.516773128762	0
6	963	2238.342644924639	0
6	966	2241.536865042855	0
6	973	2251.83974788438	9.373151287526
6	983	2283.392076793466	0
6	988	2285.38505006403	1.441610524308
6	999	2307.652525596922	9.278719992132
6	1012	2336.926633455672	32.738653356717
6	1019	2360.565567624421	45.316829179607
6	1020	2361.143529885769	40.277650478068
6	1021	2366.268616506711	45.019725333215
6	1030	2386.427461230749	44.980441878528
6	1031	2388.133223184058	33.048945190737
6	1038	2402.681123009986	23.585909306952
6	1050	2437.703142205419	0
6	1063	2475.022752058164	0
7	161	397.004157311434	179.81350177326
7	176	438.042780479385	213.2457135129
7	181	449.169633862163	223.16823482751
7	184	453.61841582257	225.69580075927
7	187	456.602715219067	226.2223878641
7	193	464.907919302032	232.57401851797
7	196	476.886049640864	212.97620771819
7	197	479.211557425227	211.85200552704
7	206	494.878269403277	217.73504577352
7	207	496.805962591702	190.95397854123
7	210	502.134051745579	191.17645862196
7	213	512.156462892041	189.42900575773
7	216	518.421429409094	186.10801041383
7	221	526.247450974633	186.75843778952
7	224	533.263431194558	185.16101756182
7	232	552.440946931307	202.55574553134
7	237	556.506315683969	206.20262137524
7	238	556.542388995051	203.83293837887
7	241	558.936739299523	199.7989997203
7	246	566.068863568085	196.80222614098
7	247	571.058023823757	201.68261100657
7	250	576.727759893291	205.85404054785
7	257	586.736357949523	199.71163754569
7	260	604.646213826678	211.48360195213
7	261	606.448138063953	211.76871185845
7	262	607.873585575201	192.49027777347
7	263	612.431609749616	193.55947145944
7	264	612.871118460818	191.64008159709
7	267	625.659199399616	203.7969301324
7	268	627.605707610626	187.99504363863
7	271	636.671795381918	195.54172384929
7	272	638.74644990815	186.68457479823
7	275	642.183410944145	188.38988442109
7	276	653.94943748408	196.12727082787
7	277	660.470603175978	192.314705129
7	278	660.590298417557	172.5803996104
7	279	672.550212634211	182.51835618823
7	294	711.426606416671	218.52624217965
7	314	747.713329018633	253.2013185355
7	315	748.255585504657	247.10901990745
7	318	755.393732099528	247.39479160907
7	319	755.462961098196	242.68770012119
7	328	767.237289202036	246.18495235001
7	331	778.698124177811	253.15487004701
7	332	787.929649607742	260.65291293015
7	333	789.712956839222	254.3278699726
7	388	923.701475589403	372.53880867734
7	389	924.950433125959	371.88953084566
7	390	933.528512142811	377.87208872987
7	391	944.389080426556	387.63425209567
7	392	945.209265986914	381.8390871237
7	397	948.823518919409	383.1851170827
7	398	955.255148234471	378.87936956098
7	405	981.944648308854	404.93658459478
7	406	982.685684499277	400.23673700179
7	413	997.565210040484	412.68198539619
7	414	999.390803275123	398.68084021129
7	415	1012.08151827766	386.92577260983
7	416	1016.759651633242	383.78254629256
7	417	1018.289232493044	377.43781564685
7	418	1024.043724607815	341.08262066516
7	421	1031.196772810039	343.43515457583
7	422	1033.210831264897	344.48289993593
7	433	1047.15102950034	342.0746587781
7	438	1051.435071364227	335.48706216373
7	439	1053.293149869301	332.60638302392
7	442	1063.545203272471	342.72663564967
7	443	1083.827787116539	360.02869554803
7	504	1224.543055026772	493.49268333276
7	505	1226.575055116971	488.35986438214
7	506	1229.979905778396	491.15766775389
7	507	1230.79754075908	486.72925352229
7	512	1242.284851228346	489.89286185273
7	530	1279.332134011023	523.43480952652
7	535	1293.710244448419	537.22535982606
7	542	1311.544241877942	550.07085665562
7	543	1317.431761693412	555.2056674175
7	544	1320.029957622492	544.36786923898
7	551	1334.039528787615	543.95899395473
7	572	1399.348641587469	599.62406526228
7	573	1402.988192749	581.84094573594
7	585	1436.865049403729	613.06362689846
7	586	1437.888531987032	601.13872744085
7	589	1442.094633600115	589.0157304078
7	590	1442.237137543198	571.23866684364
7	591	1442.929222877928	562.09848895398
7	592	1444.320267944631	551.10283274999
7	595	1448.811461498073	542.14259450117
7	598	1461.062014905401	542.438724332
7	601	1470.538916979395	551.2905674995
7	604	1481.446614699091	535.59096697304
7	605	1482.35683552321	535.66872403509
7	618	1509.309693147683	541.2785698396
7	623	1529.647288881219	559.49488216188
7	626	1531.82008363275	560.66978320027
7	627	1532.305071051985	546.05040449658
7	628	1532.476015672429	544.08258167485
7	629	1540.346717251003	545.85609356818
7	632	1541.769691852625	514.64446624101
7	633	1548.234412520522	514.3221965444
7	634	1549.557017863848	506.24856142725
7	635	1549.959385997747	505.49711837044
7	650	1582.761277077376	537.12842889729
7	653	1591.642512286545	545.80256559901
7	654	1606.230809650735	558.92874052749
7	655	1613.914081091833	566.07622160448
7	660	1617.659196256472	561.76390775574
7	661	1622.178696698157	532.81005698984
7	664	1624.239827449763	530.11179247224
7	665	1630.839783581552	530.76867168334
7	666	1632.510761482984	529.27114733891
7	667	1634.536831820516	512.55350911296
7	672	1638.920094361114	494.19175153408
7	678	1645.503149568724	478.36585690088
7	679	1645.704501578551	476.77313509422
7	684	1653.654239836848	445.02209550112
7	691	1671.316110197471	461.26420158235
7	696	1685.652948503305	466.39403760123
7	697	1691.164766787033	468.08807611112
7	698	1691.629034036158	457.17844266355
7	703	1704.743820082491	466.61987650279
7	704	1708.851144364325	465.92227406959
7	713	1717.784516886132	469.37287762323
7	714	1719.408850165666	468.02942631991
7	720	1729.666585027618	474.82914300342
7	729	1743.33012470681	487.93104267578
7	730	1746.056474221751	482.68388740403
7	736	1753.436807637511	481.66917912639
7	745	1759.948164858316	476.38684711475
7	746	1770.78850490818	477.28401409444
7	749	1777.578113428517	483.07227333096
7	754	1786.636039123162	491.71189726484
7	781	1840.951526846162	530.93464348425
7	784	1845.291378336105	519.28073366588
7	785	1849.713537209416	523.58337191937
7	786	1859.170450781757	529.91156706343
7	787	1860.62604370722	526.00705689973
7	790	1878.546728692362	538.5503907377
7	791	1879.085828885678	514.8515736667
7	792	1881.54652073726	496.29479899658
7	815	1910.793941729669	503.17063362409
7	820	1919.409883532794	510.95637379815
7	821	1920.467205179032	509.92585341787
7	826	1941.565184896933	530.86398437751
7	827	1942.262145858011	504.34590614794
7	828	1943.831581805963	498.54156394852
7	934	2162.681394990398	705.54540893145
7	939	2177.659852117983	713.79677075529
7	940	2185.027538338019	709.90648704464
7	951	2200.437886903243	714.73920813491
7	952	2205.263863292063	719.18109901008
7	957	2220.094838692624	731.44021839026
7	958	2226.345389751326	733.99536977692
7	959	2227.576528392697	733.09486920091
7	964	2241.416851784157	738.62833835229
7	974	2253.952058287812	732.6466724187
7	977	2264.847194872054	742.30020983535
7	978	2265.483431724108	735.16211250768
7	981	2271.981890111503	730.24183315267
7	1039	2412.320833178757	859.16098218037
7	1046	2432.050339187813	867.3182494048
7	1051	2440.467554419512	871.88877177939
7	1052	2445.707153856188	867.11990651315
7	1055	2454.953833795886	865.37990339953
7	1056	2463.863966226741	849.04821356444
7	1057	2466.970151914641	849.47606038936
7	1058	2467.251676561761	844.40844975589
7	1059	2470.616043341651	834.41225560446
7	1060	2471.836204021045	835.61259911308
7	1061	2472.194725642067	830.47121542768
8	167	421.231036863725	11
8	178	439.610663971992	12
8	186	453.793526523054	13
8	189	457.822166656212	14
8	201	490.031856445978	15
8	209	501.146565597212	16
8	212	507.998940490456	17
8	226	535.385086866618	18
8	252	577.008063714078	19
8	266	625.155745667831	20
8	270	632.977105340681	21
8	281	682.961103942653	22
8	300	720.818567622802	23
8	317	752.391989375619	24
8	321	755.897324484502	25
8	330	775.662088383508	26
8	335	790.080534832881	27
8	408	986.254666555407	28
8	432	1045.839946687533	29
8	441	1055.895288500736	30
8	447	1094.128034977528	31
8	520	1254.837442024195	32
8	532	1283.561317743566	33
8	539	1294.924141858317	34
8	553	1334.618986807489	35
8	575	1407.623308105574	36
8	594	1445.290017857441	37
8	622	1522.546985036706	38
8	639	1564.732089783015	39
8	657	1614.815752662296	40
8	674	1641.723510214391	41
8	693	1672.309207478826	42
8	702	1700.493543879694	43
8	716	1725.771804747797	44
8	728	1741.765106934903	45
8	732	1747.672227176383	46
8	738	1753.882913231852	47
8	753	1785.856777205899	48
8	756	1790.198200156219	49
8	794	1884.186922687865	50
8	819	1915.950055390832	51
8	830	1947.126132806161	52
8	936	2166.547424019246	53
8	942	2190.516773128762	54
8	963	2238.342644924639	55
8	966	2241.536865042855	56
8	983	2283.392076793466	57
8	1050	2437.703142205419	58
8	1063	2475.022752058164	59
9	184	453.61841582257	22
9	196	476.886049640864	23
9	197	479.211557425227	24
9	207	496.805962591702	25
9	216	518.421429409094	26
9	221	526.247450974633	27
9	224	533.263431194558	28
9	237	556.506315683969	29
9	238	556.542388995051	30
9	241	558.936739299523	31
9	246	566.068863568085	32
9	247	571.058023823757	33
9	250	576.727759893291	34
9	260	604.646213826678	35
9	261	606.448138063953	36
9	262	607.873585575201	37
9	263	612.431609749616	38
9	264	612.871118460818	39
9	268	627.605707610626	40
9	272	638.74644990815	41
9	275	642.183410944145	42
9	276	653.94943748408	43
9	277	660.470603175978	44
9	278	660.590298417557	45
9	279	672.550212634211	46
9	315	748.255585504657	47
9	319	755.462961098196	48
9	332	787.929649607742	49
9	333	789.712956839222	50
9	389	924.950433125959	51
9	390	933.528512142811	52
9	391	944.389080426556	53
9	392	945.209265986914	54
9	397	948.823518919409	55
9	398	955.255148234471	56
9	405	981.944648308854	57
9	406	982.685684499277	58
9	414	999.390803275123	59
9	415	1012.08151827766	60
9	416	1016.759651633242	61
9	417	1018.289232493044	62
9	418	1024.043724607815	63
9	421	1031.196772810039	64
9	422	1033.210831264897	65
9	438	1051.435071364227	66
9	439	1053.293149869301	67
9	443	1083.827787116539	68
9	505	1226.575055116971	69
9	506	1229.979905778396	70
9	507	1230.79754075908	71
9	512	1242.284851228346	72
9	543	1317.431761693412	73
9	544	1320.029957622492	74
9	551	1334.039528787615	75
9	573	1402.988192749	76
9	586	1437.888531987032	77
9	589	1442.094633600115	78
9	590	1442.237137543198	79
9	591	1442.929222877928	80
9	592	1444.320267944631	81
9	598	1461.062014905401	82
9	601	1470.538916979395	83
9	604	1481.446614699091	84
9	605	1482.35683552321	85
9	618	1509.309693147683	86
9	626	1531.82008363275	87
9	627	1532.305071051985	88
9	628	1532.476015672429	89
9	629	1540.346717251003	90
9	632	1541.769691852625	91
9	633	1548.234412520522	92
9	634	1549.557017863848	93
9	635	1549.959385997747	94
9	653	1591.642512286545	95
9	654	1606.230809650735	96
9	655	1613.914081091833	97
9	661	1622.178696698157	98
9	664	1624.239827449763	99
9	665	1630.839783581552	100
9	666	1632.510761482984	101
9	667	1634.536831820516	102
9	672	1638.920094361114	103
9	679	1645.704501578551	104
9	684	1653.654239836848	105
9	691	1671.316110197471	106
9	697	1691.164766787033	107
9	698	1691.629034036158	108
9	704	1708.851144364325	109
9	713	1717.784516886132	110
9	714	1719.408850165666	111
9	730	1746.056474221751	112
9	746	1770.78850490818	113
9	749	1777.578113428517	114
9	784	1845.291378336105	115
9	785	1849.713537209416	116
9	786	1859.170450781757	117
9	787	1860.62604370722	118
9	790	1878.546728692362	119
9	791	1879.085828885678	120
9	792	1881.54652073726	121
9	821	1920.467205179032	122
9	826	1941.565184896933	123
9	827	1942.262145858011	124
9	828	1943.831581805963	125
9	940	2185.027538338019	126
9	952	2205.263863292063	127
9	957	2220.094838692624	128
9	958	2226.345389751326	129
9	959	2227.576528392697	130
9	977	2264.847194872054	131
9	978	2265.483431724108	132
9	981	2271.981890111503	133
9	1046	2432.050339187813	134
9	1052	2445.707153856188	135
9	1055	2454.953833795886	136
9	1056	2463.863966226741	137
9	1057	2466.970151914641	138
9	1058	2467.251676561761	139
9	1059	2470.616043341651	140
9	1060	2471.836204021045	141
9	1061	2472.194725642067	142
10	184	453.61841582257	227.61701678792
10	196	476.886049640864	244.5521488568
10	197	479.211557425227	215.30171550255
10	207	496.805962591702	219.66273896194
10	216	518.421429409094	195.69397227479
10	221	526.247450974633	193.93403197937
10	224	533.263431194558	193.77441800944
10	237	556.506315683969	206.621114284
10	238	556.542388995051	206.23869468632
10	241	558.936739299523	206.22728868334
10	246	566.068863568085	206.93112398886
10	247	571.058023823757	201.79138639665
10	250	576.727759893291	207.3523470761
10	260	604.646213826678	217.62149342285
10	261	606.448138063953	213.28552618941
10	262	607.873585575201	213.1941593697
10	263	612.431609749616	197.04830194788
10	264	612.871118460818	193.99898017064
10	268	627.605707610626	205.74343834341
10	272	638.74644990815	197.61637837552
10	275	642.183410944145	190.12153583422
10	276	653.94943748408	200.15591096103
10	277	660.470603175978	202.64843651977
10	278	660.590298417557	192.43440037058
10	279	672.550212634211	184.54031382706
10	315	748.255585504657	253.74357502152
10	319	755.462961098196	247.46402060774
10	332	787.929649607742	262.38639547694
10	333	789.712956839222	262.43622016163
10	389	924.950433125959	373.78776621389
10	390	933.528512142811	380.46760986251
10	391	944.389080426556	388.73265701362
10	392	945.209265986914	388.45443765603
10	397	948.823518919409	385.45334005619
10	398	955.255148234471	389.61674639776
10	405	981.944648308854	405.56886963536
10	406	982.685684499277	405.6776207852
10	414	999.390803275123	414.50757863083
10	415	1012.08151827766	411.37155521382
10	416	1016.759651633242	391.60390596541
10	417	1018.289232493044	385.31212715236
10	418	1024.043724607815	383.19230776162
10	421	1031.196772810039	348.23566886739
10	422	1033.210831264897	345.44921303069
10	438	1051.435071364227	346.35870064199
10	439	1053.293149869301	337.3451406688
10	443	1083.827787116539	363.00921949374
10	505	1226.575055116971	495.52468342296
10	506	1229.979905778396	491.76471504357
10	507	1230.79754075908	491.97530273458
10	512	1242.284851228346	498.21656399156
10	543	1317.431761693412	555.95837647109
10	544	1320.029957622492	557.80386334658
10	551	1334.039528787615	558.37744040411
10	573	1402.988192749	603.26361642382
10	586	1437.888531987032	614.08710948177
10	589	1442.094633600115	605.34482905393
10	590	1442.237137543198	589.15823435088
10	591	1442.929222877928	571.93075217837
10	592	1444.320267944631	563.48953402068
10	598	1461.062014905401	554.3931479085
10	601	1470.538916979395	551.91562640599
10	604	1481.446614699091	562.19826521919
10	605	1482.35683552321	536.50118779716
10	618	1509.309693147683	562.62158165956
10	626	1531.82008363275	561.66767691341
10	627	1532.305071051985	561.15477061951
10	628	1532.476015672429	546.22134911702
10	629	1540.346717251003	551.95328325343
10	632	1541.769691852625	547.27906816981
10	633	1548.234412520522	521.1091869089
10	634	1549.557017863848	515.64480188772
10	635	1549.959385997747	506.65092956115
10	653	1591.642512286545	546.00966410646
10	654	1606.230809650735	560.3908629632
10	655	1613.914081091833	566.61201196858
10	661	1622.178696698157	566.28340819742
10	664	1624.239827449763	534.87118774145
10	665	1630.839783581552	536.71174860402
10	666	1632.510761482984	532.43964958477
10	667	1634.536831820516	531.29721767644
10	672	1638.920094361114	516.93677165356
10	679	1645.704501578551	478.5672089107
10	684	1653.654239836848	484.72287335252
10	691	1671.316110197471	462.68396586174
10	697	1691.164766787033	471.90585588495
10	698	1691.629034036158	468.55234336024
10	704	1708.851144364325	470.72720078462
10	713	1717.784516886132	474.8556465914
10	714	1719.408850165666	470.99721090276
10	730	1746.056474221751	490.65739219072
10	746	1770.78850490818	487.22718716461
10	749	1777.578113428517	484.07362261478
10	784	1845.291378336105	535.27449497419
10	785	1849.713537209416	523.70289253919
10	786	1859.170450781757	533.04028549171
10	787	1860.62604370722	531.3671599889
10	790	1878.546728692362	543.92774188487
10	791	1879.085828885678	539.08949093101
10	792	1881.54652073726	517.31226551829
10	821	1920.467205179032	512.01369544439
10	826	1941.565184896933	531.02383313577
10	827	1942.262145858011	531.56094533859
10	828	1943.831581805963	505.91534209589
10	940	2185.027538338019	721.16445697532
10	952	2205.263863292063	719.56518452373
10	957	2220.094838692624	734.01207441065
10	958	2226.345389751326	737.69076944896
10	959	2227.576528392697	735.22650841829
10	977	2264.847194872054	743.54180900294
10	978	2265.483431724108	742.9364466874
10	981	2271.981890111503	741.66057089508
10	1046	2432.050339187813	878.89048818943
10	1052	2445.707153856188	877.12837121607
10	1055	2454.953833795886	876.36658645285
10	1056	2463.863966226741	874.29003583039
10	1057	2466.970151914641	852.15439925235
10	1058	2467.251676561761	849.75758503648
10	1059	2470.616043341651	847.77281653578
10	1060	2471.836204021045	835.63241628385
10	1061	2472.194725642067	835.9711207341
11	1070	2500	0.0568
12	1070	2500	0.0532

