version 2
run experiments_hard_game_mode1-374-20230311-19:40:41-6541
attr configname experiments_hard_game_mode1
attr datetime 20230311-19:40:41
attr experiment experiments_hard_game_mode1
attr inifile omnetpp.ini
attr iterationvars "$0=8, $1=4, $2=0"
attr iterationvarsf 8,4,0-
attr measurement "$0=8, $1=4, $2=0"
attr network Network
attr processid 6541
attr repetition 14
attr replication #14
attr resultdir results
attr runnumber 374
attr seedset 14
param *.boss.arrival_mean 20
param *.boss.service_mean 8
param *.minion.arrival_mean 10
param *.minion.service_mean 4
param *.player.recover_rate_x 0
param **.minion.arrival_distribution 0
param **.minion.service_distribution 0
param **.boss.arrival_distribution 0
param **.boss.service_distribution 0

vector 0 Network.player minion_jobs_number_stat:vector ETV
attr source signal_minion_jobs_number
vector 1 Network.player minion_jobs_queue_number_stat:vector ETV
attr source signal_minion_jobs_queue_number
vector 2 Network.player boss_defeated_stat:vector ETV
attr source signal_boss_defeated
vector 3 Network.player boss_jobs_queue_number_stat:vector ETV
attr source signal_boss_jobs_queue_number
vector 4 Network.player boss_response_time_stat:vector ETV
attr source signal_boss_response_time
vector 5 Network.player minion_waiting_time_stat:vector ETV
attr source signal_minion_waiting_time
vector 6 Network.player minion_defeated_stat:vector ETV
attr source signal_minion_defeated
vector 7 Network.player minion_response_time_stat:vector ETV
attr source signal_minion_response_time
vector 8 Network.player boss_jobs_number_stat:vector ETV
attr source signal_boss_jobs_number
vector 9 Network.player minion_recovered_stat:vector ETV
attr source signal_minion_recovered
vector 10 Network.player boss_waiting_time_stat:vector ETV
attr source signal_boss_waiting_time
vector 11 Network.player minion_throughput:vector ETV
attr source signal_minion_throughput
vector 12 Network.player boss_throughput:vector ETV
attr source signal_boss_throughput
0	149	355.033945535691	3
0	156	360.847648264445	2
0	160	365.819027899354	2
0	164	387.095718742011	1
0	172	398.088058073479	1
0	175	411.419678450139	2
0	177	413.093427385525	3
0	181	425.563623459991	2
0	185	437.666459119456	1
0	187	438.029696684342	2
0	190	447.815078122995	2
0	192	448.014362986578	3
0	195	460.719474807882	3
0	199	464.691421886986	2
0	203	468.31375369647	3
0	209	476.592355171942	4
0	212	480.99996210736	4
0	218	494.693038600887	1
0	223	510.591329069228	1
0	226	523.668671067401	2
0	229	527.598294093744	2
0	239	573.842969895357	1
0	242	578.455437527969	1
0	245	611.555413684417	1
0	250	615.939352714958	1
0	255	623.928771261495	2
0	260	640.673975379459	1
0	271	685.122935878473	1
0	273	687.110961404252	2
0	278	694.229259922791	1
0	281	701.444758777024	1
0	284	705.749087531437	1
0	290	725.2216939068	1
0	293	752.004625109296	1
0	296	755.485935073437	1
0	299	757.769784631013	1
0	311	800.144084995374	1
0	313	805.271801913546	2
0	318	807.820099495089	3
0	321	814.210414154197	3
0	325	816.643396720179	4
0	327	818.126394379828	5
0	337	834.316834260483	6
0	339	847.234050476089	7
0	342	851.786460812176	8
0	348	860.598996821791	9
0	355	894.948001405393	5
0	358	896.650259971945	5
0	373	934.819959063106	1
0	382	950.241304898061	2
0	386	958.062632827699	1
0	389	959.86991923007	1
0	392	976.77582752251	1
0	395	990.414800602808	1
0	401	1002.459897149837	1
0	403	1005.460868939708	2
0	405	1006.451086213564	3
0	413	1020.40415877667	1
0	419	1030.872134027189	1
0	421	1032.252396590645	2
0	423	1033.053287518108	3
0	425	1033.310784231591	4
0	427	1033.610600588183	5
0	429	1035.553503453612	6
0	433	1041.240048900413	7
0	442	1075.493779429228	2
0	445	1082.115014041595	2
0	449	1085.432242173332	1
0	452	1092.014265008028	1
0	455	1109.518560920317	1
0	458	1114.688937990352	1
0	460	1119.343587080697	2
0	462	1124.314779321839	3
0	467	1130.644362471608	4
0	479	1143.781660615884	5
0	481	1145.868995392401	6
0	483	1153.73048230477	7
0	485	1155.387906672459	8
0	488	1160.734199300354	9
0	490	1160.750637223976	10
0	492	1161.396249084582	11
0	498	1167.5326024227	11
0	500	1167.598052850385	12
0	502	1167.993915492425	13
0	504	1173.20143576488	14
0	507	1186.418747567496	15
0	511	1189.947228181589	14
0	518	1201.319841001969	10
0	526	1216.520669937629	10
0	528	1218.100005335566	11
0	534	1226.703128561465	9
0	539	1234.366186994145	10
0	541	1236.615598461658	11
0	557	1269.362910494722	7
0	562	1283.054924494812	7
0	567	1296.441175643018	8
0	570	1297.069316463925	9
0	579	1324.647391818103	8
0	590	1374.056657797941	6
0	594	1378.022606618429	7
0	601	1398.933525870826	8
0	613	1417.818834180346	7
0	615	1418.731874372363	8
0	622	1439.388948369657	9
0	626	1447.509081999705	10
0	629	1449.142914548495	10
0	633	1456.225271383588	11
0	635	1456.400941635302	12
0	637	1461.965053672528	13
0	639	1467.67103100862	14
0	644	1474.515807855272	15
0	648	1479.677835639554	15
0	672	1554.358948512642	2
0	674	1558.420695990465	3
0	679	1562.464946648262	4
0	681	1562.828090074808	5
0	683	1572.194378599458	6
0	685	1574.705130952569	7
0	695	1594.176936871932	1
0	700	1598.708315021286	1
0	710	1613.903273049395	1
0	713	1621.40366481471	1
0	716	1630.241630788371	1
0	719	1644.260086479798	1
0	722	1669.832094513945	1
0	725	1681.611071161843	1
0	732	1713.472986293194	1
0	735	1714.640646851212	2
0	737	1721.30860318063	3
0	752	1766.226882172695	3
0	756	1779.98537330806	4
0	764	1807.823965274978	3
0	770	1819.60630046076	3
0	775	1826.548979276419	4
0	777	1826.651877243888	5
0	785	1838.134966215622	1
0	790	1847.293015477357	1
0	792	1853.976238258592	2
0	795	1855.10675154571	3
0	797	1857.631578485873	4
0	800	1860.606685251931	4
0	802	1865.691340515226	5
0	812	1880.814585492101	1
0	816	1887.931572451922	2
0	819	1903.497259501524	3
0	828	1937.445960383169	1
0	830	1938.859698529189	2
0	833	1941.176329864383	3
0	835	1943.536124637245	4
0	838	1950.784732485768	5
0	846	1967.794394560158	5
0	851	1976.287166789391	4
0	857	1985.897270703852	1
0	860	2007.719498988818	1
0	862	2010.177268959809	2
0	868	2021.901711754506	2
0	871	2031.30342569397	2
0	875	2037.136179608095	1
0	877	2040.809530510809	2
0	881	2053.674137517185	1
0	886	2059.816619114803	1
0	888	2060.448777503511	2
0	890	2063.058595777536	3
0	892	2063.394189174223	4
0	895	2072.07663982243	5
0	897	2072.759239173926	6
0	902	2083.275534212787	4
0	908	2122.161339140629	1
0	914	2140.78073805428	1
0	919	2163.337331253465	1
0	925	2177.74862608756	2
0	930	2189.633811910056	3
0	933	2193.770199773401	3
0	935	2194.819181776313	4
0	937	2195.465914992879	5
0	943	2211.311766695371	2
0	945	2215.304386083665	3
0	950	2226.004219507096	1
0	953	2251.224778920485	1
0	955	2254.497456116578	2
0	959	2256.847869803007	1
0	962	2257.714496912013	1
0	968	2273.201925482636	1
0	971	2280.192910292888	1
0	973	2284.721547061188	2
0	977	2287.575491926138	1
0	979	2287.868131191911	2
0	981	2296.617862611394	3
0	990	2325.974203586855	3
0	994	2334.310906074741	4
0	996	2334.384825843069	5
0	998	2343.657463510586	6
0	1003	2365.52260337468	7
0	1011	2377.755021187577	8
0	1018	2398.406299735043	5
0	1023	2410.564342124642	3
0	1025	2410.626546255374	4
0	1029	2413.549859208002	5
0	1031	2418.857725134264	6
0	1043	2458.946133014052	1
0	1045	2459.312248017999	2
0	1047	2463.17615093269	3
0	1053	2469.069714972963	3
0	1058	2478.484167057322	1
0	1061	2491.184429780078	1
0	1063	2493.000563500548	2
1	149	355.033945535691	2
1	151	355.665498511654	2
1	152	355.766759740389	1
1	156	360.847648264445	1
1	158	365.0511425803	1
1	160	365.819027899354	1
1	161	375.536131996607	1
1	162	377.871549390695	0
1	164	387.095718742011	0
1	165	387.79783430798	0
1	172	398.088058073479	0
1	175	411.419678450139	1
1	177	413.093427385525	2
1	178	413.35084241316	2
1	179	421.65564336448	1
1	181	425.563623459991	1
1	182	429.440376447882	1
1	183	429.654654948984	0
1	185	437.666459119456	0
1	187	438.029696684342	1
1	188	439.231916581074	1
1	190	447.815078122995	1
1	192	448.014362986578	2
1	193	458.687455924486	2
1	195	460.719474807882	2
1	196	460.919836888713	2
1	197	461.364221557866	1
1	199	464.691421886986	1
1	203	468.31375369647	2
1	209	476.592355171942	3
1	210	479.197359673351	3
1	212	480.99996210736	3
1	213	484.387924654749	3
1	214	484.695814558182	2
1	215	484.994004306326	1
1	216	485.525478125781	0
1	218	494.693038600887	0
1	219	494.770557056848	0
1	223	510.591329069228	0
1	226	523.668671067401	1
1	227	524.33260682607	1
1	229	527.598294093744	1
1	230	529.443287166658	1
1	231	543.242391373869	0
1	239	573.842969895357	0
1	240	574.012370334406	0
1	242	578.455437527969	0
1	243	579.41919305331	0
1	245	611.555413684417	0
1	246	611.630720272713	0
1	250	615.939352714958	0
1	255	623.928771261495	1
1	257	631.032090950802	1
1	258	631.37841058242	0
1	260	640.673975379459	0
1	261	649.398251104464	0
1	271	685.122935878473	0
1	273	687.110961404252	1
1	275	690.934735252391	1
1	276	690.949792862042	0
1	278	694.229259922791	0
1	279	696.471717054479	0
1	281	701.444758777024	0
1	282	701.479016300976	0
1	284	705.749087531437	0
1	285	705.828797867561	0
1	290	725.2216939068	0
1	291	735.32483444883	0
1	293	752.004625109296	0
1	294	754.481743616742	0
1	296	755.485935073437	0
1	297	756.383808409405	0
1	299	757.769784631013	0
1	303	763.444720841198	0
1	311	800.144084995374	0
1	313	805.271801913546	1
1	318	807.820099495089	2
1	319	811.494533816172	2
1	321	814.210414154197	2
1	325	816.643396720179	3
1	327	818.126394379828	4
1	337	834.316834260483	5
1	339	847.234050476089	6
1	342	851.786460812176	7
1	348	860.598996821791	8
1	349	865.741692692666	8
1	350	870.138533200978	7
1	351	879.606791242668	6
1	352	879.956525441449	5
1	353	887.188312397429	4
1	355	894.948001405393	4
1	356	896.198692819584	4
1	358	896.650259971945	4
1	359	897.664928986875	4
1	360	900.990138871037	3
1	361	907.170497510401	2
1	362	909.577181198917	1
1	366	916.635549684595	0
1	373	934.819959063106	0
1	382	950.241304898061	1
1	383	950.338329215384	1
1	384	957.998893460559	0
1	386	958.062632827699	0
1	387	958.498566466869	0
1	389	959.86991923007	0
1	390	963.014373539497	0
1	392	976.77582752251	0
1	393	977.361504160614	0
1	395	990.414800602808	0
1	396	991.294751773556	0
1	401	1002.459897149837	0
1	403	1005.460868939708	1
1	405	1006.451086213564	2
1	406	1007.244944600651	2
1	407	1010.339852278343	1
1	408	1013.641587553099	0
1	413	1020.40415877667	0
1	417	1030.156325017061	0
1	419	1030.872134027189	0
1	421	1032.252396590645	1
1	423	1033.053287518108	2
1	425	1033.310784231591	3
1	427	1033.610600588183	4
1	429	1035.553503453612	5
1	433	1041.240048900413	6
1	435	1051.575109069427	6
1	436	1054.380576657435	5
1	437	1058.796896228252	4
1	438	1060.780247079035	3
1	439	1066.037739724834	2
1	440	1073.776765672149	1
1	442	1075.493779429228	1
1	443	1078.190876916804	1
1	445	1082.115014041595	1
1	446	1082.910782427595	1
1	447	1084.553988780367	0
1	449	1085.432242173332	0
1	450	1089.090054409315	0
1	452	1092.014265008028	0
1	453	1100.305225395703	0
1	455	1109.518560920317	0
1	456	1110.392368191017	0
1	458	1114.688937990352	0
1	460	1119.343587080697	1
1	462	1124.314779321839	2
1	467	1130.644362471608	3
1	479	1143.781660615884	4
1	481	1145.868995392401	5
1	483	1153.73048230477	6
1	485	1155.387906672459	7
1	488	1160.734199300354	8
1	490	1160.750637223976	9
1	492	1161.396249084582	10
1	494	1164.810070757115	10
1	498	1167.5326024227	10
1	500	1167.598052850385	11
1	502	1167.993915492425	12
1	504	1173.20143576488	13
1	507	1186.418747567496	14
1	508	1188.003792453641	14
1	509	1189.139790982127	13
1	511	1189.947228181589	13
1	512	1189.969348739524	13
1	513	1191.813498606227	12
1	514	1192.367453487822	11
1	515	1193.708137091841	10
1	516	1199.468952665039	9
1	518	1201.319841001969	9
1	519	1209.944560468128	9
1	526	1216.520669937629	9
1	528	1218.100005335566	10
1	530	1219.940899022726	10
1	531	1225.916803713176	9
1	532	1226.21435730584	8
1	534	1226.703128561465	8
1	539	1234.366186994145	9
1	541	1236.615598461658	10
1	545	1243.399579904158	10
1	546	1243.430697219538	9
1	553	1266.568576767312	8
1	554	1268.483824338503	7
1	555	1269.061931680525	6
1	557	1269.362910494722	6
1	558	1271.28491615067	6
1	562	1283.054924494812	6
1	567	1296.441175643018	7
1	570	1297.069316463925	8
1	571	1299.345492765431	8
1	572	1299.891636502092	7
1	579	1324.647391818103	7
1	581	1329.352058667689	7
1	582	1333.514363599575	6
1	583	1335.309267256429	5
1	590	1374.056657797941	5
1	594	1378.022606618429	6
1	601	1398.933525870826	7
1	605	1406.636395366182	7
1	609	1414.805858677122	6
1	613	1417.818834180346	6
1	615	1418.731874372363	7
1	622	1439.388948369657	8
1	626	1447.509081999705	9
1	627	1447.939400107232	9
1	629	1449.142914548495	9
1	633	1456.225271383588	10
1	635	1456.400941635302	11
1	637	1461.965053672528	12
1	639	1467.67103100862	13
1	644	1474.515807855272	14
1	646	1477.026654836675	14
1	648	1479.677835639554	14
1	652	1503.44921936963	14
1	653	1505.880632926019	13
1	654	1506.495116548699	12
1	655	1511.19281496247	11
1	656	1512.980338916526	10
1	657	1517.89829319594	9
1	658	1520.858295910719	8
1	659	1521.893769995742	7
1	660	1523.793893084311	6
1	661	1524.273924091596	5
1	662	1527.757813735741	4
1	663	1537.16854567325	3
1	664	1538.178922025512	2
1	668	1551.078034622676	1
1	672	1554.358948512642	1
1	674	1558.420695990465	2
1	679	1562.464946648262	3
1	681	1562.828090074808	4
1	683	1572.194378599458	5
1	685	1574.705130952569	6
1	687	1575.773842694534	6
1	688	1577.14946327438	5
1	689	1577.618098142886	4
1	690	1578.125723246645	3
1	691	1582.464551594307	2
1	692	1583.019227289363	1
1	693	1586.476787034269	0
1	695	1594.176936871932	0
1	696	1594.340832852109	0
1	700	1598.708315021286	0
1	702	1601.854755597912	0
1	710	1613.903273049395	0
1	711	1615.1008294211	0
1	713	1621.40366481471	0
1	714	1623.388802448255	0
1	716	1630.241630788371	0
1	717	1634.709711675376	0
1	719	1644.260086479798	0
1	720	1646.391975628126	0
1	722	1669.832094513945	0
1	723	1670.234892645116	0
1	725	1681.611071161843	0
1	726	1692.154219335673	0
1	732	1713.472986293194	0
1	735	1714.640646851212	1
1	737	1721.30860318063	2
1	745	1752.79049478224	2
1	752	1766.226882172695	2
1	756	1779.98537330806	3
1	759	1793.978485822376	3
1	760	1804.446934132641	2
1	764	1807.823965274978	2
1	766	1810.772467956007	2
1	770	1819.60630046076	2
1	775	1826.548979276419	3
1	777	1826.651877243888	4
1	779	1828.984957162858	4
1	780	1832.849580267891	3
1	781	1833.610903429965	2
1	782	1834.137073205883	1
1	783	1837.42405225389	0
1	785	1838.134966215622	0
1	786	1839.011470054128	0
1	790	1847.293015477357	0
1	792	1853.976238258592	1
1	795	1855.10675154571	2
1	797	1857.631578485873	3
1	798	1858.045702283376	3
1	800	1860.606685251931	3
1	802	1865.691340515226	4
1	803	1865.728369714166	4
1	804	1866.301560918917	3
1	808	1874.452989658392	2
1	809	1877.650860301665	1
1	810	1878.840124419136	0
1	812	1880.814585492101	0
1	816	1887.931572451922	1
1	819	1903.497259501524	2
1	820	1905.53208333496	2
1	821	1918.351986896995	1
1	822	1927.727284315889	0
1	828	1937.445960383169	0
1	830	1938.859698529189	1
1	833	1941.176329864383	2
1	835	1943.536124637245	3
1	838	1950.784732485768	4
1	839	1954.427309379125	4
1	846	1967.794394560158	4
1	848	1974.724614725756	4
1	849	1975.67453839634	3
1	851	1976.287166789391	3
1	852	1976.416744440025	3
1	853	1981.565135386294	2
1	854	1982.805491107142	1
1	855	1984.210945250746	0
1	857	1985.897270703852	0
1	858	1986.648981114289	0
1	860	2007.719498988818	0
1	862	2010.177268959809	1
1	863	2010.821716657651	1
1	868	2021.901711754506	1
1	869	2028.336580373384	1
1	871	2031.30342569397	1
1	872	2034.064245080304	1
1	873	2034.235717637128	0
1	875	2037.136179608095	0
1	877	2040.809530510809	1
1	878	2045.941084546789	1
1	879	2047.754238700522	0
1	881	2053.674137517185	0
1	882	2057.029580945329	0
1	886	2059.816619114803	0
1	888	2060.448777503511	1
1	890	2063.058595777536	2
1	892	2063.394189174223	3
1	895	2072.07663982243	4
1	897	2072.759239173926	5
1	898	2072.767373805728	5
1	899	2075.340521902358	4
1	900	2079.105375605488	3
1	902	2083.275534212787	3
1	903	2084.879266562762	3
1	904	2093.080814990777	2
1	905	2099.864757601986	1
1	906	2103.316513327741	0
1	908	2122.161339140629	0
1	909	2122.802601029568	0
1	914	2140.78073805428	0
1	915	2147.154590856799	0
1	919	2163.337331253465	0
1	925	2177.74862608756	1
1	930	2189.633811910056	2
1	931	2192.755748698376	2
1	933	2193.770199773401	2
1	935	2194.819181776313	3
1	937	2195.465914992879	4
1	938	2196.367920679546	4
1	939	2199.84063827644	3
1	940	2202.7280206481	2
1	941	2204.573355777005	1
1	943	2211.311766695371	1
1	945	2215.304386083665	2
1	946	2222.426848041656	2
1	947	2223.016212118246	1
1	948	2223.5067646325	0
1	950	2226.004219507096	0
1	951	2233.825070383965	0
1	953	2251.224778920485	0
1	955	2254.497456116578	1
1	956	2254.888432480784	1
1	957	2256.190309961348	0
1	959	2256.847869803007	0
1	960	2257.389156143932	0
1	962	2257.714496912013	0
1	963	2259.93253328145	0
1	968	2273.201925482636	0
1	969	2274.153833793115	0
1	971	2280.192910292888	0
1	973	2284.721547061188	1
1	974	2285.4903299626	1
1	975	2287.254821987197	0
1	977	2287.575491926138	0
1	979	2287.868131191911	1
1	981	2296.617862611394	2
1	988	2322.185044578527	2
1	990	2325.974203586855	2
1	994	2334.310906074741	3
1	996	2334.384825843069	4
1	998	2343.657463510586	5
1	1003	2365.52260337468	6
1	1011	2377.755021187577	7
1	1013	2384.808676741414	7
1	1014	2387.830492133277	6
1	1015	2391.933166684973	5
1	1016	2393.69705966302	4
1	1018	2398.406299735043	4
1	1019	2403.299912442821	4
1	1020	2405.884928008437	3
1	1021	2407.152164875162	2
1	1023	2410.564342124642	2
1	1025	2410.626546255374	3
1	1029	2413.549859208002	4
1	1031	2418.857725134264	5
1	1033	2422.270295513107	5
1	1034	2423.241417468331	4
1	1035	2424.148946262471	3
1	1036	2424.324778726659	2
1	1037	2434.389157090818	1
1	1041	2451.792430392245	0
1	1043	2458.946133014052	0
1	1045	2459.312248017999	1
1	1047	2463.17615093269	2
1	1048	2463.940518076781	2
1	1053	2469.069714972963	2
1	1054	2471.955479005099	2
1	1055	2471.988798683064	1
1	1056	2473.346871761083	0
1	1058	2478.484167057322	0
1	1059	2481.284993398888	0
1	1061	2491.184429780078	0
1	1063	2493.000563500548	1
1	1064	2497.699349311195	1
2	150	355.241223634241	15
2	157	363.239011721531	16
2	168	393.033203587324	17
2	173	410.692258881923	18
2	204	473.644404859693	19
2	207	475.833149691272	20
2	224	514.405356739846	21
2	236	562.453751800604	22
2	237	566.688037009891	23
2	253	623.191511092201	24
2	256	627.312099541489	25
2	266	678.685461427426	26
2	269	683.470515221801	27
2	274	689.615690515733	28
2	288	714.608894793642	29
2	302	759.817545969386	30
2	306	766.861027668212	31
2	309	785.87410502079	32
2	316	807.022816747134	33
2	332	824.902289751798	34
2	335	830.026579200051	35
2	340	851.083885732361	36
2	343	852.05081580279	37
2	346	859.364167387599	38
2	365	914.179292777793	39
2	371	925.602591041102	40
2	376	940.174323361731	41
2	379	944.740775336826	42
2	380	947.75665286658	43
2	399	1001.530267362835	44
2	411	1016.786379208392	45
2	416	1029.315465836742	46
2	434	1050.275749007439	47
2	465	1129.60521176703	48
2	470	1133.357452521799	49
2	473	1137.894775993113	50
2	486	1160.517536994352	51
2	493	1163.333874180257	52
2	505	1179.749050050727	53
2	524	1215.467426345455	54
2	529	1218.735138489658	55
2	537	1230.83994905036	56
2	544	1242.051738519098	57
2	551	1261.889839991447	58
2	552	1263.905622203034	59
2	565	1292.058577050721	60
2	568	1296.61537501907	61
2	577	1318.4643918808	62
2	580	1326.735845411063	63
2	586	1361.527223215639	64
2	597	1391.440939136804	65
2	598	1392.556154076201	66
2	599	1397.187451369063	67
2	604	1403.594132727748	68
2	608	1413.157870511644	69
2	618	1433.406246963733	70
2	623	1441.584526572314	71
2	624	1445.915609763127	72
2	640	1471.141178973551	73
2	645	1475.558430272803	74
2	651	1498.185568176779	75
2	667	1543.625361811914	76
2	677	1560.035198091155	77
2	686	1574.734576722752	78
2	701	1600.366801318437	79
2	707	1612.634989603765	80
2	708	1613.83348068022	81
2	733	1713.568741858552	82
2	740	1735.48250514609	83
2	741	1740.227320640178	84
2	744	1751.314273445611	85
2	748	1754.857353662978	86
2	757	1782.299245533172	87
2	758	1793.685563174693	88
2	765	1809.685054631676	89
2	771	1824.012054464344	90
2	778	1828.396241153584	91
2	793	1854.231996152983	92
2	807	1874.207771741241	93
2	817	1899.587067630593	94
2	831	1938.984358399633	95
2	836	1945.746120174648	96
2	844	1967.424394330805	97
2	847	1972.320390754149	98
2	866	2018.885696712816	99
2	893	2068.681864178905	100
2	912	2133.265601876545	101
2	926	2181.97212192545	102
2	927	2183.761156295915	103
2	928	2188.273990060444	104
2	966	2266.162633896398	105
2	986	2308.416751568166	106
2	987	2318.035693203323	107
2	1001	2353.235430049996	108
2	1008	2373.738293488774	109
2	1009	2375.020438316033	110
2	1012	2378.356938984477	111
2	1032	2419.775383929667	112
2	1040	2448.176122026289	113
2	1051	2468.419358098661	114
3	150	355.241223634241	0
3	154	357.206506079018	0
3	157	363.239011721531	0
3	167	391.047324288703	0
3	168	393.033203587324	0
3	170	395.908292557247	0
3	173	410.692258881923	0
3	201	465.277290456284	0
3	204	473.644404859693	0
3	206	475.393105182559	0
3	207	475.833149691272	0
3	221	506.499791779649	0
3	224	514.405356739846	0
3	233	552.180011467169	0
3	235	561.762733894234	1
3	236	562.453751800604	1
3	237	566.688037009891	0
3	248	615.348425057337	0
3	252	618.900269317537	1
3	253	623.191511092201	1
3	256	627.312099541489	0
3	263	659.041663215175	0
3	265	674.896049565265	1
3	266	678.685461427426	1
3	268	682.19995766715	1
3	269	683.470515221801	1
3	274	689.615690515733	0
3	287	712.477119971921	0
3	288	714.608894793642	0
3	301	758.572252174628	0
3	302	759.817545969386	0
3	305	765.706999917469	0
3	306	766.861027668212	0
3	308	784.978755077148	0
3	309	785.87410502079	0
3	315	806.137931290683	0
3	316	807.022816747134	0
3	323	814.592706334832	0
3	329	821.626426792798	1
3	331	824.836198466085	2
3	332	824.902289751798	2
3	334	825.499667755023	2
3	335	830.026579200051	2
3	340	851.083885732361	1
3	343	852.05081580279	0
3	345	852.060948218651	0
3	346	859.364167387599	0
3	364	911.483787810045	0
3	365	914.179292777793	0
3	368	917.070564889174	0
3	370	920.385567146477	1
3	371	925.602591041102	1
3	375	935.754445185036	1
3	376	940.174323361731	1
3	378	942.293628006038	1
3	379	944.740775336826	1
3	380	947.75665286658	0
3	398	999.060599541854	0
3	399	1001.530267362835	0
3	410	1016.150775054257	0
3	411	1016.786379208392	0
3	415	1022.394637542636	0
3	416	1029.315465836742	0
3	431	1038.538246586789	0
3	434	1050.275749007439	0
3	464	1129.314636342715	0
3	465	1129.60521176703	0
3	469	1130.970527845427	0
3	470	1133.357452521799	0
3	472	1135.120469468102	0
3	473	1137.894775993113	0
3	475	1138.721968208374	0
3	477	1140.538363023018	1
3	486	1160.517536994352	1
3	493	1163.333874180257	0
3	496	1166.545317567146	0
3	505	1179.749050050727	0
3	521	1212.235030563073	0
3	523	1214.859992130296	1
3	524	1215.467426345455	1
3	529	1218.735138489658	0
3	536	1227.485883194672	0
3	537	1230.83994905036	0
3	543	1236.643816917823	0
3	544	1242.051738519098	0
3	548	1245.185824588694	0
3	550	1245.473148778668	1
3	551	1261.889839991447	1
3	552	1263.905622203034	0
3	560	1272.319734415131	0
3	564	1286.83813706964	1
3	565	1292.058577050721	1
3	568	1296.61537501907	0
3	574	1305.235701771402	0
3	576	1310.732245537385	1
3	577	1318.4643918808	1
3	580	1326.735845411063	0
3	585	1351.241493944332	0
3	586	1361.527223215639	0
3	588	1365.328541869756	0
3	592	1375.741575967684	1
3	596	1385.026190838092	2
3	597	1391.440939136804	2
3	598	1392.556154076201	1
3	599	1397.187451369063	0
3	603	1399.267833290923	0
3	604	1403.594132727748	0
3	607	1408.531804252156	0
3	608	1413.157870511644	0
3	611	1416.866283432641	0
3	617	1427.924704791414	1
3	618	1433.406246963733	1
3	620	1434.313057492983	1
3	623	1441.584526572314	1
3	624	1445.915609763127	0
3	631	1451.59723784495	0
3	640	1471.141178973551	0
3	642	1473.378666856534	0
3	645	1475.558430272803	0
3	650	1491.689037357241	0
3	651	1498.185568176779	0
3	666	1538.272590616996	0
3	667	1543.625361811914	0
3	670	1553.901690264833	0
3	676	1558.54260141757	1
3	677	1560.035198091155	1
3	686	1574.734576722752	0
3	698	1595.681554309851	0
3	701	1600.366801318437	0
3	704	1603.998637226888	0
3	706	1610.690213821691	1
3	707	1612.634989603765	1
3	708	1613.83348068022	0
3	728	1706.356756001619	0
3	730	1708.08451424638	1
3	733	1713.568741858552	1
3	739	1721.710537312419	1
3	740	1735.48250514609	1
3	741	1740.227320640178	0
3	743	1743.189173685306	0
3	744	1751.314273445611	0
3	747	1753.349503705846	0
3	748	1754.857353662978	0
3	750	1758.340419657439	0
3	754	1770.084095394452	1
3	757	1782.299245533172	1
3	758	1793.685563174693	0
3	762	1804.85575399758	0
3	765	1809.685054631676	0
3	768	1814.320946502234	0
3	771	1824.012054464344	0
3	773	1824.452226560445	0
3	778	1828.396241153584	0
3	788	1844.071205200833	0
3	793	1854.231996152983	0
3	806	1866.574068671975	0
3	807	1874.207771741241	0
3	814	1882.268336137148	0
3	817	1899.587067630593	0
3	824	1930.068896973113	0
3	826	1932.893391889637	1
3	831	1938.984358399633	1
3	836	1945.746120174648	0
3	841	1955.889998953772	0
3	843	1959.222495235312	1
3	844	1967.424394330805	1
3	847	1972.320390754149	0
3	865	2015.913112375529	0
3	866	2018.885696712816	0
3	884	2059.313257916285	0
3	893	2068.681864178905	0
3	911	2130.479222310669	0
3	912	2133.265601876545	0
3	917	2152.854575283436	0
3	921	2170.102954966602	1
3	923	2172.239960610976	2
3	926	2181.97212192545	2
3	927	2183.761156295915	1
3	928	2188.273990060444	0
3	965	2263.481900039759	0
3	966	2266.162633896398	0
3	983	2300.279199629124	0
3	985	2306.50332956852	1
3	986	2308.416751568166	1
3	987	2318.035693203323	0
3	992	2330.823323660804	0
3	1000	2347.179264871828	1
3	1001	2353.235430049996	1
3	1005	2366.470211685635	1
3	1007	2366.72911705343	2
3	1008	2373.738293488774	2
3	1009	2375.020438316033	1
3	1012	2378.356938984477	0
3	1027	2410.9013658636	0
3	1032	2419.775383929667	0
3	1039	2438.53470917593	0
3	1040	2448.176122026289	0
3	1050	2464.141668652333	0
3	1051	2468.419358098661	0
4	150	355.241223634241	6.640544862674
4	157	363.239011721531	6.032505642513
4	168	393.033203587324	1.985879298621
4	173	410.692258881923	14.783966324676
4	204	473.644404859693	8.367114403409
4	207	475.833149691272	0.440044508713
4	224	514.405356739846	7.905564960197
4	236	562.453751800604	10.273740333435
4	237	566.688037009891	4.925303115657
4	253	623.191511092201	7.843086034864
4	256	627.312099541489	8.411830223952
4	266	678.685461427426	19.643798212251
4	269	683.470515221801	8.574465656536
4	274	689.615690515733	7.415732848583
4	288	714.608894793642	2.131774821721
4	302	759.817545969386	1.245293794758
4	306	766.861027668212	1.154027750743
4	309	785.87410502079	0.895349943642
4	316	807.022816747134	0.884885456451
4	332	824.902289751798	10.309583416966
4	335	830.026579200051	8.400152407253
4	340	851.083885732361	26.247687266276
4	343	852.05081580279	26.551148047767
4	346	859.364167387599	7.303219168948
4	365	914.179292777793	2.695504967748
4	371	925.602591041102	8.532026151928
4	376	940.174323361731	19.788756215254
4	379	944.740775336826	8.98633015179
4	380	947.75665286658	5.463024860542
4	399	1001.530267362835	2.469667820981
4	411	1016.786379208392	0.635604154135
4	416	1029.315465836742	6.920828294106
4	434	1050.275749007439	11.73750242065
4	465	1129.60521176703	0.290575424315
4	470	1133.357452521799	2.386924676372
4	473	1137.894775993113	2.774306525011
4	486	1160.517536994352	21.795568785978
4	493	1163.333874180257	22.795511157239
4	505	1179.749050050727	13.203732483581
4	524	1215.467426345455	3.232395782382
4	529	1218.735138489658	3.875146359362
4	537	1230.83994905036	3.354065855688
4	544	1242.051738519098	5.407921601275
4	551	1261.889839991447	16.704015402753
4	552	1263.905622203034	18.432473424366
4	565	1292.058577050721	19.73884263559
4	568	1296.61537501907	9.77723794943
4	577	1318.4643918808	13.228690109398
4	580	1326.735845411063	16.003599873678
4	586	1361.527223215639	10.285729271307
4	597	1391.440939136804	26.112397267048
4	598	1392.556154076201	16.814578108517
4	599	1397.187451369063	12.161260530971
4	604	1403.594132727748	4.326299436825
4	608	1413.157870511644	4.626066259488
4	618	1433.406246963733	16.539963531092
4	623	1441.584526572314	13.6598217809
4	624	1445.915609763127	11.602552270144
4	640	1471.141178973551	19.543941128601
4	645	1475.558430272803	2.179763416269
4	651	1498.185568176779	6.496530819538
4	667	1543.625361811914	5.352771194918
4	677	1560.035198091155	6.133507826322
4	686	1574.734576722752	16.191975305182
4	701	1600.366801318437	4.685247008586
4	707	1612.634989603765	8.636352376877
4	708	1613.83348068022	3.143266858529
4	733	1713.568741858552	7.211985856933
4	740	1735.48250514609	27.39799089971
4	741	1740.227320640178	18.516783327759
4	744	1751.314273445611	8.125099760305
4	748	1754.857353662978	1.507849957132
4	757	1782.299245533172	23.958825875733
4	758	1793.685563174693	23.601467780241
4	765	1809.685054631676	4.829300634096
4	771	1824.012054464344	9.69110796211
4	778	1828.396241153584	3.944014593139
4	793	1854.231996152983	10.16079095215
4	807	1874.207771741241	7.633703069266
4	817	1899.587067630593	17.318731493445
4	831	1938.984358399633	8.91546142652
4	836	1945.746120174648	12.852728285011
4	844	1967.424394330805	11.534395377033
4	847	1972.320390754149	13.097895518837
4	866	2018.885696712816	2.972584337287
4	893	2068.681864178905	9.36860626262
4	912	2133.265601876545	2.786379565876
4	926	2181.97212192545	29.117546642014
4	927	2183.761156295915	13.658201329313
4	928	2188.273990060444	16.034029449468
4	966	2266.162633896398	2.680733856639
4	986	2308.416751568166	8.137551939042
4	987	2318.035693203323	11.532363634803
4	1001	2353.235430049996	22.412106389192
4	1008	2373.738293488774	26.559028616946
4	1009	2375.020438316033	8.550226630398
4	1012	2378.356938984477	11.627821931047
4	1032	2419.775383929667	8.874018066067
4	1040	2448.176122026289	9.641412850359
4	1051	2468.419358098661	4.277689446328
5	150	355.241223634241	10.737633942172
5	151	355.665498511654	7.064819740087
5	152	355.766759740389	0.732814204698
5	157	363.239011721531	6.032505642513
5	158	365.0511425803	4.203494315855
5	161	375.536131996607	9.717104097253
5	164	387.095718742011	0
5	173	410.692258881923	12.604200808444
5	178	413.35084241316	1.931163963021
5	179	421.65564336448	8.562215978955
5	182	429.440376447882	3.876752987891
5	185	437.666459119456	0
5	188	439.231916581074	1.202219896732
5	193	458.687455924486	10.872377801491
5	196	460.919836888713	12.905473902135
5	197	461.364221557866	0.644746749984
5	204	473.644404859693	8.952982972707
5	207	475.833149691272	10.555859234988
5	210	479.197359673351	10.883605976881
5	213	484.387924654749	8.99481947219
5	214	484.695814558182	8.10345938624
5	215	484.994004306326	3.994042198966
5	218	494.693038600887	0
5	224	514.405356739846	3.814027670618
5	227	524.33260682607	0.663935758669
5	230	529.443287166658	1.844993072914
5	239	573.842969895357	0
5	242	578.455437527969	0
5	245	611.555413684417	0
5	256	627.312099541489	11.372746826531
5	257	631.032090950802	7.103319689307
5	260	640.673975379459	0
5	274	689.615690515733	4.49275463726
5	275	690.934735252391	3.823773848139
5	278	694.229259922791	0
5	281	701.444758777024	0
5	284	705.749087531437	0
5	290	725.2216939068	0
5	293	752.004625109296	0
5	296	755.485935073437	0
5	299	757.769784631013	0
5	302	759.817545969386	1.245293794758
5	311	800.144084995374	0
5	316	807.022816747134	1.751014833588
5	319	811.494533816172	5.356602525489
5	343	852.05081580279	44.230716307701
5	346	859.364167387599	45.153753233402
5	349	865.741692692666	51.148986357834
5	350	870.138533200978	53.495136480799
5	351	879.606791242668	61.48039686284
5	352	879.956525441449	45.639691180966
5	353	887.188312397429	39.95426192134
5	356	896.198692819584	44.412232007408
5	359	897.664928986875	45.603980768224
5	360	900.990138871037	40.391142049246
5	361	907.170497510401	12.222496105008
5	362	909.577181198917	12.926921226972
5	365	914.179292777793	2.695504967748
5	380	947.75665286658	12.936693803474
5	383	950.338329215384	0.097024317323
5	386	958.062632827699	0
5	389	959.86991923007	0
5	392	976.77582752251	0
5	395	990.414800602808	0
5	401	1002.459897149837	0
5	406	1007.244944600651	1.784075660943
5	407	1010.339852278343	3.888766064779
5	413	1020.40415877667	0
5	416	1029.315465836742	6.920828294106
5	419	1030.872134027189	0
5	434	1050.275749007439	18.023352416794
5	435	1051.575109069427	18.521821551319
5	436	1054.380576657435	21.069792425844
5	437	1058.796896228252	25.186295640069
5	438	1060.780247079035	25.226743625423
5	439	1066.037739724834	27.499493138045
5	440	1073.776765672149	32.536716771736
5	443	1078.190876916804	2.697097487576
5	446	1082.910782427595	0.795768386
5	449	1085.432242173332	0
5	452	1092.014265008028	0
5	455	1109.518560920317	0
5	458	1114.688937990352	0
5	465	1129.60521176703	10.261624686333
5	470	1133.357452521799	9.04267319996
5	473	1137.894775993113	8.580139650398
5	493	1163.333874180257	32.689511708649
5	494	1164.810070757115	33.839542911688
5	505	1179.749050050727	44.628580582625
5	508	1188.003792453641	49.281824245267
5	509	1189.139790982127	45.358130366243
5	512	1189.969348739524	44.100353347123
5	513	1191.813498606227	38.083016301457
5	514	1192.367453487822	36.979546815363
5	515	1193.708137091841	32.973937791487
5	516	1199.468952665039	38.718315441063
5	519	1209.944560468128	48.548311383546
5	529	1218.735138489658	52.189820922512
5	530	1219.940899022726	52.408296600026
5	531	1225.916803713176	58.318750862791
5	532	1226.21435730584	58.220441813415
5	537	1230.83994905036	57.63851328548
5	544	1242.051738519098	55.632990951602
5	545	1243.399579904158	53.452351722569
5	546	1243.430697219538	42.110856217569
5	552	1263.905622203034	51.670591639961
5	553	1266.568576767312	50.047906829683
5	554	1268.483824338503	50.383819002937
5	555	1269.061931680525	42.35880311906
5	558	1271.28491615067	43.799032955998
5	568	1296.61537501907	62.249188024925
5	571	1299.345492765431	62.729894303773
5	572	1299.891636502092	63.247819584269
5	580	1326.735845411063	81.550020822369
5	581	1329.352058667689	59.989148172967
5	582	1333.514363599575	61.194629184444
5	583	1335.309267256429	52.254342761617
5	586	1361.527223215639	65.086047572621
5	599	1397.187451369063	100.11813490514
5	604	1403.594132727748	98.358430956346
5	605	1406.636395366182	81.989003548079
5	608	1413.157870511644	61.916376567312
5	609	1414.805858677122	49.477316807366
5	624	1445.915609763127	71.858951965186
5	627	1447.939400107232	69.916793488803
5	640	1471.141178973551	72.207653102725
5	645	1475.558430272803	76.29059698188
5	646	1477.026654836675	68.494850584519
5	651	1498.185568176779	81.319284744138
5	652	1503.44921936963	85.630385189284
5	653	1505.880632926019	87.148758553656
5	654	1506.495116548699	67.106168179042
5	655	1511.19281496247	63.683732962765
5	656	1512.980338916526	63.837424368031
5	657	1517.89829319594	66.30105535099
5	658	1520.858295910719	64.633024527131
5	659	1521.893769995742	65.49282836044
5	660	1523.793893084311	61.828839411783
5	661	1524.273924091596	56.602893082976
5	662	1527.757813735741	54.379146879207
5	663	1537.16854567325	62.652737817978
5	664	1538.178922025512	58.501086385958
5	667	1543.625361811914	51.936324454673
5	668	1551.078034622676	12.80544400568
5	686	1574.734576722752	20.832886457919
5	687	1575.773842694534	21.414894181892
5	688	1577.14946327438	18.728767283915
5	689	1577.618098142886	15.153151494624
5	690	1578.125723246645	15.297633171837
5	691	1582.464551594307	10.270172994849
5	692	1583.019227289363	8.314096336794
5	695	1594.176936871932	0
5	701	1600.366801318437	1.658486297151
5	710	1613.903273049395	0
5	713	1621.40366481471	0
5	716	1630.241630788371	0
5	719	1644.260086479798	0
5	722	1669.832094513945	0
5	725	1681.611071161843	0
5	741	1740.227320640178	26.754334346984
5	744	1751.314273445611	36.673626594399
5	745	1752.79049478224	31.48189160161
5	748	1754.857353662978	11.668179977672
5	758	1793.685563174693	40.336059468847
5	759	1793.978485822376	35.638066164937
5	760	1804.446934132641	38.220051959946
5	765	1809.685054631676	29.699681323616
5	766	1810.772467956007	5.916713958427
5	771	1824.012054464344	16.188089189366
5	778	1828.396241153584	14.07529465135
5	779	1828.984957162858	9.378656702098
5	780	1832.849580267891	8.397353707446
5	781	1833.610903429965	7.061924153546
5	782	1834.137073205883	7.485195961995
5	785	1838.134966215622	0
5	793	1854.231996152983	6.938980675626
5	798	1858.045702283376	4.069464024784
5	803	1865.728369714166	10.621618168456
5	804	1866.301560918917	8.669982433044
5	807	1874.207771741241	13.60108648931
5	808	1874.452989658392	8.761649143166
5	809	1877.650860301665	11.07679162969
5	812	1880.814585492101	0
5	817	1899.587067630593	17.318731493445
5	820	1905.53208333496	17.600510883038
5	821	1918.351986896995	14.854727395471
5	836	1945.746120174648	8.300159791479
5	839	1954.427309379125	15.567610849936
5	847	1972.320390754149	31.144060889766
5	848	1974.724614725756	31.188490088511
5	849	1975.67453839634	24.889805910572
5	852	1976.416744440025	20.526745486253
5	853	1981.565135386294	13.770740826136
5	854	1982.805491107142	6.518324317751
5	857	1985.897270703852	0
5	860	2007.719498988818	0
5	863	2010.821716657651	0.644447697842
5	866	2018.885696712816	2.972584337287
5	869	2028.336580373384	6.434868618878
5	872	2034.064245080304	2.760819386334
5	875	2037.136179608095	0
5	878	2045.941084546789	5.13155403598
5	881	2053.674137517185	0
5	893	2068.681864178905	8.865245064102
5	898	2072.767373805728	12.318596302217
5	899	2075.340521902358	12.281926124822
5	900	2079.105375605488	15.711186431265
5	903	2084.879266562762	12.802626740332
5	904	2093.080814990777	20.321575816851
5	905	2099.864757601986	16.589223389199
5	908	2122.161339140629	0
5	914	2140.78073805428	0
5	928	2188.273990060444	24.936658806979
5	931	2192.755748698376	15.007122610816
5	938	2196.367920679546	6.73410876949
5	939	2199.84063827644	6.070438503039
5	940	2202.7280206481	7.908838871787
5	941	2204.573355777005	9.107440784126
5	946	2222.426848041656	11.115081346285
5	947	2223.016212118246	7.711826034581
5	950	2226.004219507096	0
5	953	2251.224778920485	0
5	956	2254.888432480784	0.390976364206
5	959	2256.847869803007	0
5	962	2257.714496912013	0
5	968	2273.201925482636	0
5	971	2280.192910292888	0
5	974	2285.4903299626	0.768782901412
5	977	2287.575491926138	0
5	987	2318.035693203323	30.167562011412
5	988	2322.185044578527	25.567181967133
5	1012	2378.356938984477	78.077739355353
5	1013	2384.808676741414	58.834473154559
5	1014	2387.830492133277	57.007168472473
5	1015	2391.933166684973	57.622260610232
5	1016	2393.69705966302	59.312233819951
5	1019	2403.299912442821	59.642448932235
5	1020	2405.884928008437	40.362324633757
5	1021	2407.152164875162	29.397143687585
5	1032	2419.775383929667	21.369084194624
5	1033	2422.270295513107	11.705953388465
5	1034	2423.241417468331	12.614871212957
5	1035	2424.148946262471	13.247580398871
5	1036	2424.324778726659	10.774919518657
5	1037	2434.389157090818	15.531431956554
5	1040	2448.176122026289	9.641412850359
5	1043	2458.946133014052	0
5	1048	2463.940518076781	4.628270058782
5	1051	2468.419358098661	5.243207165971
5	1054	2471.955479005099	7.813810352766
5	1055	2471.988798683064	2.919083710101
5	1058	2478.484167057322	0
5	1061	2491.184429780078	0
5	1064	2497.699349311195	4.698785810647
6	151	355.665498511654	34
6	152	355.766759740389	35
6	158	365.0511425803	36
6	161	375.536131996607	37
6	162	377.871549390695	38
6	165	387.79783430798	39
6	178	413.35084241316	40
6	179	421.65564336448	41
6	182	429.440376447882	42
6	183	429.654654948984	43
6	188	439.231916581074	44
6	193	458.687455924486	45
6	196	460.919836888713	46
6	197	461.364221557866	47
6	210	479.197359673351	48
6	213	484.387924654749	49
6	214	484.695814558182	50
6	215	484.994004306326	51
6	216	485.525478125781	52
6	219	494.770557056848	53
6	227	524.33260682607	54
6	230	529.443287166658	55
6	231	543.242391373869	56
6	240	574.012370334406	57
6	243	579.41919305331	58
6	246	611.630720272713	59
6	257	631.032090950802	60
6	258	631.37841058242	61
6	261	649.398251104464	62
6	275	690.934735252391	63
6	276	690.949792862042	64
6	279	696.471717054479	65
6	282	701.479016300976	66
6	285	705.828797867561	67
6	291	735.32483444883	68
6	294	754.481743616742	69
6	297	756.383808409405	70
6	303	763.444720841198	71
6	319	811.494533816172	72
6	349	865.741692692666	73
6	350	870.138533200978	74
6	351	879.606791242668	75
6	352	879.956525441449	76
6	353	887.188312397429	77
6	356	896.198692819584	78
6	359	897.664928986875	79
6	360	900.990138871037	80
6	361	907.170497510401	81
6	362	909.577181198917	82
6	366	916.635549684595	83
6	383	950.338329215384	84
6	384	957.998893460559	85
6	387	958.498566466869	86
6	390	963.014373539497	87
6	393	977.361504160614	88
6	396	991.294751773556	89
6	406	1007.244944600651	90
6	407	1010.339852278343	91
6	408	1013.641587553099	92
6	417	1030.156325017061	93
6	435	1051.575109069427	94
6	436	1054.380576657435	95
6	437	1058.796896228252	96
6	438	1060.780247079035	97
6	439	1066.037739724834	98
6	440	1073.776765672149	99
6	443	1078.190876916804	100
6	446	1082.910782427595	101
6	447	1084.553988780367	102
6	450	1089.090054409315	103
6	453	1100.305225395703	104
6	456	1110.392368191017	105
6	494	1164.810070757115	106
6	508	1188.003792453641	107
6	509	1189.139790982127	108
6	512	1189.969348739524	109
6	513	1191.813498606227	110
6	514	1192.367453487822	111
6	515	1193.708137091841	112
6	516	1199.468952665039	113
6	519	1209.944560468128	114
6	530	1219.940899022726	115
6	531	1225.916803713176	116
6	532	1226.21435730584	117
6	545	1243.399579904158	118
6	546	1243.430697219538	119
6	553	1266.568576767312	120
6	554	1268.483824338503	121
6	555	1269.061931680525	122
6	558	1271.28491615067	123
6	571	1299.345492765431	124
6	572	1299.891636502092	125
6	581	1329.352058667689	126
6	582	1333.514363599575	127
6	583	1335.309267256429	128
6	605	1406.636395366182	129
6	609	1414.805858677122	130
6	627	1447.939400107232	131
6	646	1477.026654836675	132
6	652	1503.44921936963	133
6	653	1505.880632926019	134
6	654	1506.495116548699	135
6	655	1511.19281496247	136
6	656	1512.980338916526	137
6	657	1517.89829319594	138
6	658	1520.858295910719	139
6	659	1521.893769995742	140
6	660	1523.793893084311	141
6	661	1524.273924091596	142
6	662	1527.757813735741	143
6	663	1537.16854567325	144
6	664	1538.178922025512	145
6	668	1551.078034622676	146
6	687	1575.773842694534	147
6	688	1577.14946327438	148
6	689	1577.618098142886	149
6	690	1578.125723246645	150
6	691	1582.464551594307	151
6	692	1583.019227289363	152
6	693	1586.476787034269	153
6	696	1594.340832852109	154
6	702	1601.854755597912	155
6	711	1615.1008294211	156
6	714	1623.388802448255	157
6	717	1634.709711675376	158
6	720	1646.391975628126	159
6	723	1670.234892645116	160
6	726	1692.154219335673	161
6	745	1752.79049478224	162
6	759	1793.978485822376	163
6	760	1804.446934132641	164
6	766	1810.772467956007	165
6	779	1828.984957162858	166
6	780	1832.849580267891	167
6	781	1833.610903429965	168
6	782	1834.137073205883	169
6	783	1837.42405225389	170
6	786	1839.011470054128	171
6	798	1858.045702283376	172
6	803	1865.728369714166	173
6	804	1866.301560918917	174
6	808	1874.452989658392	175
6	809	1877.650860301665	176
6	810	1878.840124419136	177
6	820	1905.53208333496	178
6	821	1918.351986896995	179
6	822	1927.727284315889	180
6	839	1954.427309379125	181
6	848	1974.724614725756	182
6	849	1975.67453839634	183
6	852	1976.416744440025	184
6	853	1981.565135386294	185
6	854	1982.805491107142	186
6	855	1984.210945250746	187
6	858	1986.648981114289	188
6	863	2010.821716657651	189
6	869	2028.336580373384	190
6	872	2034.064245080304	191
6	873	2034.235717637128	192
6	878	2045.941084546789	193
6	879	2047.754238700522	194
6	882	2057.029580945329	195
6	898	2072.767373805728	196
6	899	2075.340521902358	197
6	900	2079.105375605488	198
6	903	2084.879266562762	199
6	904	2093.080814990777	200
6	905	2099.864757601986	201
6	906	2103.316513327741	202
6	909	2122.802601029568	203
6	915	2147.154590856799	204
6	931	2192.755748698376	205
6	938	2196.367920679546	206
6	939	2199.84063827644	207
6	940	2202.7280206481	208
6	941	2204.573355777005	209
6	946	2222.426848041656	210
6	947	2223.016212118246	211
6	948	2223.5067646325	212
6	951	2233.825070383965	213
6	956	2254.888432480784	214
6	957	2256.190309961348	215
6	960	2257.389156143932	216
6	963	2259.93253328145	217
6	969	2274.153833793115	218
6	974	2285.4903299626	219
6	975	2287.254821987197	220
6	988	2322.185044578527	221
6	1013	2384.808676741414	222
6	1014	2387.830492133277	223
6	1015	2391.933166684973	224
6	1016	2393.69705966302	225
6	1019	2403.299912442821	226
6	1020	2405.884928008437	227
6	1021	2407.152164875162	228
6	1033	2422.270295513107	229
6	1034	2423.241417468331	230
6	1035	2424.148946262471	231
6	1036	2424.324778726659	232
6	1037	2434.389157090818	233
6	1041	2451.792430392245	234
6	1048	2463.940518076781	235
6	1054	2471.955479005099	236
6	1055	2471.988798683064	237
6	1056	2473.346871761083	238
6	1059	2481.284993398888	239
6	1064	2497.699349311195	240
7	151	355.665498511654	11.161908819585
7	152	355.766759740389	7.166080968822
7	158	365.0511425803	7.844636501282
7	161	375.536131996607	14.688483732162
7	162	377.871549390695	12.052521491341
7	165	387.79783430798	0.702115565969
7	178	413.35084241316	15.262784339681
7	179	421.65564336448	10.235964914341
7	182	429.440376447882	16.346949062357
7	183	429.654654948984	4.091031488993
7	188	439.231916581074	1.565457461618
7	193	458.687455924486	20.657759240144
7	196	460.919836888713	13.104758765718
7	197	461.364221557866	13.349858571288
7	210	479.197359673351	13.920069217067
7	213	484.387924654749	16.074170958279
7	214	484.695814558182	9.302709375623
7	215	484.994004306326	8.401649134384
7	216	485.525478125781	4.525516018421
7	219	494.770557056848	0.077518455961
7	227	524.33260682607	13.741277756842
7	230	529.443287166658	5.774616099257
7	231	543.242391373869	15.644097280125
7	240	574.012370334406	0.169400439049
7	243	579.41919305331	0.963755525341
7	246	611.630720272713	0.075306588296
7	257	631.032090950802	15.092738235844
7	258	631.37841058242	7.449639320925
7	261	649.398251104464	8.724275725005
7	275	690.934735252391	5.811799373918
7	276	690.949792862042	3.83883145779
7	279	696.471717054479	2.242457131688
7	282	701.479016300976	0.034257523952
7	285	705.828797867561	0.079710336124
7	291	735.32483444883	10.10314054203
7	294	754.481743616742	2.477118507446
7	297	756.383808409405	0.897873335968
7	303	763.444720841198	4.87246866657
7	319	811.494533816172	6.222731902626
7	349	865.741692692666	51.531278538469
7	350	870.138533200978	55.545826866146
7	351	879.606791242668	62.963394522489
7	352	879.956525441449	61.830131061621
7	353	887.188312397429	52.871478136946
7	356	896.198692819584	48.964642343495
7	359	897.664928986875	45.878468174699
7	360	900.990138871037	48.929190652386
7	361	907.170497510401	46.57150068861
7	362	909.577181198917	14.629179793524
7	366	916.635549684595	5.15176187455
7	383	950.338329215384	15.518370152278
7	384	957.998893460559	7.757588562498
7	387	958.498566466869	0.43593363917
7	390	963.014373539497	3.144454309427
7	393	977.361504160614	0.585676638104
7	396	991.294751773556	0.879951170748
7	406	1007.244944600651	4.785047450814
7	407	1010.339852278343	4.878983338635
7	408	1013.641587553099	7.190501339535
7	417	1030.156325017061	7.761687474425
7	435	1051.575109069427	19.322712478782
7	436	1054.380576657435	21.327289139327
7	437	1058.796896228252	25.486111996661
7	438	1060.780247079035	27.169646490852
7	439	1066.037739724834	30.484236271222
7	440	1073.776765672149	35.23851908536
7	443	1078.190876916804	36.950828016391
7	446	1082.910782427595	7.417002998367
7	447	1084.553988780367	2.438974738772
7	450	1089.090054409315	3.657812235983
7	453	1100.305225395703	8.290960387675
7	456	1110.392368191017	0.8738072707
7	494	1164.810070757115	34.165708285507
7	508	1188.003792453641	52.883322985539
7	509	1189.139790982127	50.417822773753
7	512	1189.969348739524	46.18768812364
7	513	1191.813498606227	45.944503213826
7	514	1192.367453487822	38.636971183052
7	515	1193.708137091841	38.320230419382
7	516	1199.468952665039	38.734753364685
7	519	1209.944560468128	49.193923244152
7	530	1219.940899022726	53.39558145558
7	531	1225.916803713176	58.384201290476
7	532	1226.21435730584	58.616304455455
7	545	1243.399579904158	56.980832336662
7	546	1243.430697219538	53.483469037949
7	553	1266.568576767312	54.333546204239
7	554	1268.483824338503	51.963154400874
7	555	1269.061931680525	50.961926344959
7	558	1271.28491615067	44.581787589205
7	571	1299.345492765431	64.979305771286
7	572	1299.891636502092	63.276038040434
7	581	1329.352058667689	84.166234078995
7	582	1333.514363599575	64.151453104853
7	583	1335.309267256429	62.989532841298
7	605	1406.636395366182	101.40069359478
7	609	1414.805858677122	63.56436473279
7	627	1447.939400107232	73.882742309291
7	646	1477.026654836675	77.758821545752
7	652	1503.44921936963	86.582935936989
7	653	1505.880632926019	88.061798745673
7	654	1506.495116548699	87.763242176336
7	655	1511.19281496247	71.803866592813
7	656	1512.980338916526	65.471256916821
7	657	1517.89829319594	68.755378647445
7	658	1520.858295910719	69.261058065769
7	659	1521.893769995742	65.668498612154
7	660	1523.793893084311	67.392951449009
7	661	1524.273924091596	62.308870419068
7	662	1527.757813735741	60.086782727121
7	663	1537.16854567325	63.789878816716
7	664	1538.178922025512	63.66311417024
7	668	1551.078034622676	59.388997265435
7	687	1575.773842694534	21.872152429701
7	688	1577.14946327438	22.790514761738
7	689	1577.618098142886	19.197402152421
7	690	1578.125723246645	15.660776598383
7	691	1582.464551594307	19.636461519499
7	692	1583.019227289363	10.824848689905
7	693	1586.476787034269	11.7716560817
7	696	1594.340832852109	0.163895980177
7	702	1601.854755597912	3.146440576626
7	711	1615.1008294211	1.197556371705
7	714	1623.388802448255	1.985137633545
7	717	1634.709711675376	4.468080887005
7	720	1646.391975628126	2.131889148328
7	723	1670.234892645116	0.402798131171
7	726	1692.154219335673	10.54314817383
7	745	1752.79049478224	38.149847931028
7	759	1793.978485822376	40.62898211653
7	760	1804.446934132641	46.106514475202
7	766	1810.772467956007	30.787094647947
7	779	1828.984957162858	14.664010660624
7	780	1832.849580267891	13.243279807131
7	781	1833.610903429965	9.15867686952
7	782	1834.137073205883	7.588093929464
7	783	1837.42405225389	10.772175010002
7	786	1839.011470054128	0.876503838506
7	798	1858.045702283376	10.752686806019
7	803	1865.728369714166	11.752131455574
7	804	1866.301560918917	11.194809373207
7	808	1874.452989658392	13.846304406461
7	809	1877.650860301665	11.959519786439
7	810	1878.840124419136	12.266055747161
7	820	1905.53208333496	23.263747197812
7	821	1918.351986896995	30.420414445073
7	822	1927.727284315889	24.230024814365
7	839	1954.427309379125	16.981348995956
7	848	1974.724614725756	33.548284861373
7	849	1975.67453839634	32.138413759095
7	852	1976.416744440025	25.632011954257
7	853	1981.565135386294	25.675136432522
7	854	1982.805491107142	15.011096546984
7	855	1984.210945250746	7.923778461355
7	858	1986.648981114289	0.751710410437
7	863	2010.821716657651	3.102217668833
7	869	2028.336580373384	12.423467997855
7	872	2034.064245080304	12.162533325798
7	873	2034.235717637128	2.932291943158
7	878	2045.941084546789	8.804904938694
7	879	2047.754238700522	6.944708189713
7	882	2057.029580945329	3.355443428144
7	898	2072.767373805728	12.950754690925
7	899	2075.340521902358	14.891744398847
7	900	2079.105375605488	16.046779827952
7	903	2084.879266562762	21.485077388539
7	904	2093.080814990777	21.004175168347
7	905	2099.864757601986	27.10551842806
7	906	2103.316513327741	20.040979114954
7	909	2122.802601029568	0.641261888939
7	915	2147.154590856799	6.373852802519
7	931	2192.755748698376	29.418417444911
7	938	2196.367920679546	18.619294591986
7	939	2199.84063827644	10.206826366384
7	940	2202.7280206481	8.957820874699
7	941	2204.573355777005	9.754174000692
7	946	2222.426848041656	26.960933048777
7	947	2223.016212118246	11.704445422875
7	948	2223.5067646325	8.202378548835
7	951	2233.825070383965	7.820850876869
7	956	2254.888432480784	3.663653560299
7	957	2256.190309961348	1.69285384477
7	960	2257.389156143932	0.541286340925
7	963	2259.93253328145	2.218036369437
7	969	2274.153833793115	0.951908310479
7	974	2285.4903299626	5.297419669712
7	975	2287.254821987197	2.533274926009
7	988	2322.185044578527	34.316913386616
7	1013	2384.808676741414	84.52947711229
7	1014	2387.830492133277	61.856288546422
7	1015	2391.933166684973	61.109843024169
7	1016	2393.69705966302	59.386153588279
7	1019	2403.299912442821	68.915086599752
7	1020	2405.884928008437	62.227464497851
7	1021	2407.152164875162	41.629561500482
7	1033	2422.270295513107	23.863995778064
7	1034	2423.241417468331	12.677075343689
7	1035	2424.148946262471	13.522400007097
7	1036	2424.324778726659	13.423412863059
7	1037	2434.389157090818	20.839297882816
7	1041	2451.792430392245	13.257721216315
7	1048	2463.940518076781	4.994385062729
7	1054	2471.955479005099	8.779328072409
7	1055	2471.988798683064	7.847130030731
7	1056	2473.346871761083	4.27715678812
7	1059	2481.284993398888	2.800826341566
7	1064	2497.699349311195	6.514919531117
8	154	357.206506079018	1
8	167	391.047324288703	1
8	170	395.908292557247	1
8	201	465.277290456284	1
8	206	475.393105182559	1
8	221	506.499791779649	1
8	233	552.180011467169	1
8	235	561.762733894234	2
8	248	615.348425057337	1
8	252	618.900269317537	2
8	263	659.041663215175	1
8	265	674.896049565265	2
8	268	682.19995766715	2
8	287	712.477119971921	1
8	301	758.572252174628	1
8	305	765.706999917469	1
8	308	784.978755077148	1
8	315	806.137931290683	1
8	323	814.592706334832	1
8	329	821.626426792798	2
8	331	824.836198466085	3
8	334	825.499667755023	3
8	345	852.060948218651	1
8	364	911.483787810045	1
8	368	917.070564889174	1
8	370	920.385567146477	2
8	375	935.754445185036	2
8	378	942.293628006038	2
8	398	999.060599541854	1
8	410	1016.150775054257	1
8	415	1022.394637542636	1
8	431	1038.538246586789	1
8	464	1129.314636342715	1
8	469	1130.970527845427	1
8	472	1135.120469468102	1
8	475	1138.721968208374	1
8	477	1140.538363023018	2
8	496	1166.545317567146	1
8	521	1212.235030563073	1
8	523	1214.859992130296	2
8	536	1227.485883194672	1
8	543	1236.643816917823	1
8	548	1245.185824588694	1
8	550	1245.473148778668	2
8	560	1272.319734415131	1
8	564	1286.83813706964	2
8	574	1305.235701771402	1
8	576	1310.732245537385	2
8	585	1351.241493944332	1
8	588	1365.328541869756	1
8	592	1375.741575967684	2
8	596	1385.026190838092	3
8	603	1399.267833290923	1
8	607	1408.531804252156	1
8	611	1416.866283432641	1
8	617	1427.924704791414	2
8	620	1434.313057492983	2
8	631	1451.59723784495	1
8	642	1473.378666856534	1
8	650	1491.689037357241	1
8	666	1538.272590616996	1
8	670	1553.901690264833	1
8	676	1558.54260141757	2
8	698	1595.681554309851	1
8	704	1603.998637226888	1
8	706	1610.690213821691	2
8	728	1706.356756001619	1
8	730	1708.08451424638	2
8	739	1721.710537312419	2
8	743	1743.189173685306	1
8	747	1753.349503705846	1
8	750	1758.340419657439	1
8	754	1770.084095394452	2
8	762	1804.85575399758	1
8	768	1814.320946502234	1
8	773	1824.452226560445	1
8	788	1844.071205200833	1
8	806	1866.574068671975	1
8	814	1882.268336137148	1
8	824	1930.068896973113	1
8	826	1932.893391889637	2
8	841	1955.889998953772	1
8	843	1959.222495235312	2
8	865	2015.913112375529	1
8	884	2059.313257916285	1
8	911	2130.479222310669	1
8	917	2152.854575283436	1
8	921	2170.102954966602	2
8	923	2172.239960610976	3
8	965	2263.481900039759	1
8	983	2300.279199629124	1
8	985	2306.50332956852	2
8	992	2330.823323660804	1
8	1000	2347.179264871828	2
8	1005	2366.470211685635	2
8	1007	2366.72911705343	3
8	1027	2410.9013658636	1
8	1039	2438.53470917593	1
8	1050	2464.141668652333	1
9	154	357.206506079018	6
9	201	465.277290456284	7
9	206	475.393105182559	8
9	301	758.572252174628	9
9	315	806.137931290683	10
9	323	814.592706334832	11
9	345	852.060948218651	12
9	364	911.483787810045	13
9	415	1022.394637542636	14
9	431	1038.538246586789	15
9	464	1129.314636342715	16
9	469	1130.970527845427	17
9	472	1135.120469468102	18
9	475	1138.721968208374	19
9	496	1166.545317567146	20
9	521	1212.235030563073	21
9	536	1227.485883194672	22
9	543	1236.643816917823	23
9	548	1245.185824588694	24
9	560	1272.319734415131	25
9	574	1305.235701771402	26
9	585	1351.241493944332	27
9	588	1365.328541869756	28
9	603	1399.267833290923	29
9	607	1408.531804252156	30
9	611	1416.866283432641	31
9	631	1451.59723784495	32
9	642	1473.378666856534	33
9	650	1491.689037357241	34
9	666	1538.272590616996	35
9	670	1553.901690264833	36
9	743	1743.189173685306	37
9	747	1753.349503705846	38
9	750	1758.340419657439	39
9	762	1804.85575399758	40
9	768	1814.320946502234	41
9	773	1824.452226560445	42
9	806	1866.574068671975	43
9	814	1882.268336137148	44
9	841	1955.889998953772	45
9	865	2015.913112375529	46
9	983	2300.279199629124	47
9	992	2330.823323660804	48
9	1027	2410.9013658636	49
9	1039	2438.53470917593	50
9	1050	2464.141668652333	51
10	154	357.206506079018	0
10	167	391.047324288703	0
10	170	395.908292557247	0
10	201	465.277290456284	0
10	206	475.393105182559	0
10	221	506.499791779649	0
10	233	552.180011467169	0
10	236	562.453751800604	0.69101790637
10	248	615.348425057337	0
10	253	623.191511092201	4.291241774664
10	263	659.041663215175	0
10	266	678.685461427426	3.789411862161
10	269	683.470515221801	1.270557554651
10	287	712.477119971921	0
10	301	758.572252174628	0
10	305	765.706999917469	0
10	308	784.978755077148	0
10	315	806.137931290683	0
10	323	814.592706334832	0
10	332	824.902289751798	3.275862959
10	335	830.026579200051	5.190380733966
10	340	851.083885732361	25.584217977338
10	345	852.060948218651	0
10	364	911.483787810045	0
10	368	917.070564889174	0
10	371	925.602591041102	5.217023894625
10	376	940.174323361731	4.419878176695
10	379	944.740775336826	2.447147330788
10	398	999.060599541854	0
10	410	1016.150775054257	0
10	415	1022.394637542636	0
10	431	1038.538246586789	0
10	464	1129.314636342715	0
10	469	1130.970527845427	0
10	472	1135.120469468102	0
10	475	1138.721968208374	0
10	486	1160.517536994352	19.979173971334
10	496	1166.545317567146	0
10	521	1212.235030563073	0
10	524	1215.467426345455	0.607434215159
10	536	1227.485883194672	0
10	543	1236.643816917823	0
10	548	1245.185824588694	0
10	551	1261.889839991447	16.416691212779
10	560	1272.319734415131	0
10	565	1292.058577050721	5.220439981081
10	574	1305.235701771402	0
10	577	1318.4643918808	7.732146343415
10	585	1351.241493944332	0
10	588	1365.328541869756	0
10	597	1391.440939136804	15.69936316912
10	598	1392.556154076201	7.529963238109
10	603	1399.267833290923	0
10	607	1408.531804252156	0
10	611	1416.866283432641	0
10	618	1433.406246963733	5.481542172319
10	623	1441.584526572314	7.271469079331
10	631	1451.59723784495	0
10	642	1473.378666856534	0
10	650	1491.689037357241	0
10	666	1538.272590616996	0
10	670	1553.901690264833	0
10	677	1560.035198091155	1.492596673585
10	698	1595.681554309851	0
10	704	1603.998637226888	0
10	707	1612.634989603765	1.944775782074
10	728	1706.356756001619	0
10	733	1713.568741858552	5.484227612172
10	740	1735.48250514609	13.771967833671
10	743	1743.189173685306	0
10	747	1753.349503705846	0
10	750	1758.340419657439	0
10	757	1782.299245533172	12.21515013872
10	762	1804.85575399758	0
10	768	1814.320946502234	0
10	773	1824.452226560445	0
10	788	1844.071205200833	0
10	806	1866.574068671975	0
10	814	1882.268336137148	0
10	824	1930.068896973113	0
10	831	1938.984358399633	6.090966509996
10	841	1955.889998953772	0
10	844	1967.424394330805	8.201899095493
10	865	2015.913112375529	0
10	884	2059.313257916285	0
10	911	2130.479222310669	0
10	917	2152.854575283436	0
10	926	2181.97212192545	11.869166958848
10	927	2183.761156295915	11.521195684939
10	965	2263.481900039759	0
10	983	2300.279199629124	0
10	986	2308.416751568166	1.913421999646
10	992	2330.823323660804	0
10	1001	2353.235430049996	6.056165178168
10	1008	2373.738293488774	7.268081803139
10	1009	2375.020438316033	8.291321262603
10	1027	2410.9013658636	0
10	1039	2438.53470917593	0
10	1050	2464.141668652333	0
11	1065	2500	0.096
12	1065	2500	0.0456

