version 2
run experiments_hard_game_mode1-852-20230311-19:42:22-9105
attr configname experiments_hard_game_mode1
attr datetime 20230311-19:42:22
attr experiment experiments_hard_game_mode1
attr inifile omnetpp.ini
attr iterationvars "$0=8.5, $1=7, $2=0"
attr iterationvarsf 8.5,7,0-
attr measurement "$0=8.5, $1=7, $2=0"
attr network Network
attr processid 9105
attr repetition 12
attr replication #12
attr resultdir results
attr runnumber 852
attr seedset 12
param *.boss.arrival_mean 20
param *.boss.service_mean 8.5
param *.minion.arrival_mean 10
param *.minion.service_mean 7
param *.player.recover_rate_x 0
param **.minion.arrival_distribution 0
param **.minion.service_distribution 0
param **.boss.arrival_distribution 0
param **.boss.service_distribution 0

vector 0 Network.player minion_defeated_stat:vector ETV
attr source signal_minion_defeated
vector 1 Network.player minion_jobs_queue_number_stat:vector ETV
attr source signal_minion_jobs_queue_number
vector 2 Network.player minion_response_time_stat:vector ETV
attr source signal_minion_response_time
vector 3 Network.player minion_waiting_time_stat:vector ETV
attr source signal_minion_waiting_time
vector 4 Network.player boss_jobs_number_stat:vector ETV
attr source signal_boss_jobs_number
vector 5 Network.player boss_jobs_queue_number_stat:vector ETV
attr source signal_boss_jobs_queue_number
vector 6 Network.player minion_recovered_stat:vector ETV
attr source signal_minion_recovered
vector 7 Network.player boss_waiting_time_stat:vector ETV
attr source signal_boss_waiting_time
vector 8 Network.player minion_jobs_number_stat:vector ETV
attr source signal_minion_jobs_number
vector 9 Network.player boss_defeated_stat:vector ETV
attr source signal_boss_defeated
vector 10 Network.player boss_response_time_stat:vector ETV
attr source signal_boss_response_time
vector 11 Network.player minion_throughput:vector ETV
attr source signal_minion_throughput
vector 12 Network.player boss_throughput:vector ETV
attr source signal_boss_throughput
0	149	350.851022983005	27
0	150	352.672746211357	28
0	191	399.10741924951	29
0	199	405.672086865254	30
0	200	406.097164413413	31
0	201	407.108153780943	32
0	202	409.503987806321	33
0	211	442.960883293168	34
0	212	444.184735112108	35
0	215	446.804170446048	36
0	220	464.243726588889	37
0	223	472.71615779556	38
0	224	477.507248392486	39
0	229	486.114888309648	40
0	235	512.287861744588	41
0	244	532.344323376499	42
0	247	537.110152811619	43
0	250	543.636794172284	44
0	257	564.735196701553	45
0	270	576.741812964007	46
0	273	586.852746924389	47
0	274	590.675489756902	48
0	275	591.579335566006	49
0	280	593.570804181442	50
0	285	610.159329585267	51
0	286	611.222054492533	52
0	287	613.253856258164	53
0	288	616.087023965238	54
0	289	618.613014101197	55
0	293	624.810397034941	56
0	294	625.364060271121	57
0	298	637.008126714569	58
0	299	638.612049477924	59
0	315	660.897469340871	60
0	316	667.994686963222	61
0	328	683.984897251438	62
0	352	762.433577474227	63
0	353	775.94772790052	64
0	368	812.004763916071	65
0	378	826.335389533663	66
0	389	855.611398915425	67
0	396	881.847018667962	68
0	397	888.800823534346	69
0	410	907.719916661254	70
0	411	911.215140761341	71
0	422	936.371670316825	72
0	442	962.90571134618	73
0	443	964.483741645562	74
0	464	1030.520435079685	75
0	471	1045.103771368261	76
0	481	1062.350764016502	77
0	482	1065.490517762893	78
0	483	1066.471519586017	79
0	486	1067.747273200502	80
0	487	1076.726079429735	81
0	490	1080.510749505227	82
0	497	1096.283402925361	83
0	498	1096.317418794249	84
0	499	1101.799928881649	85
0	508	1144.263893497483	86
0	509	1156.397055746901	87
0	514	1173.576644295489	88
0	515	1179.449292540526	89
0	531	1212.510790991493	90
0	532	1225.754609788173	91
0	533	1226.523843212919	92
0	534	1233.442512916829	93
0	541	1236.838615812404	94
0	549	1248.07348086774	95
0	550	1249.58017966642	96
0	551	1252.278476825598	97
0	556	1263.446177590983	98
0	579	1301.379669955999	99
0	584	1308.219109208566	100
0	585	1312.702916898116	101
0	586	1313.369130422169	102
0	591	1330.178937695866	103
0	592	1332.247181099736	104
0	608	1371.006523717654	105
0	645	1450.417866940304	106
0	652	1457.514255943691	107
0	653	1465.60288051026	108
0	654	1470.76774196719	109
0	657	1474.53038358563	110
0	658	1485.17249318567	111
0	659	1486.204457908116	112
0	660	1488.943303630397	113
0	684	1534.071494557197	114
0	687	1537.671293252367	115
0	690	1544.47692233934	116
0	704	1579.378512134139	117
0	705	1588.551478043065	118
0	706	1590.767306832736	119
0	707	1595.598231178464	120
0	725	1637.406804074846	121
0	737	1657.147455409565	122
0	740	1671.490341593857	123
0	741	1672.532509906274	124
0	744	1681.810778107078	125
0	747	1691.230484171379	126
0	748	1698.147318787606	127
0	749	1699.579958842089	128
0	750	1706.006071485738	129
0	753	1717.515703544726	130
0	763	1739.012947426526	131
0	770	1745.37300128814	132
0	771	1751.960738459497	133
0	774	1754.132223271663	134
0	778	1789.685397539048	135
0	781	1797.355594672431	136
0	782	1797.988179706519	137
0	785	1814.635234161153	138
0	801	1851.311271252376	139
0	802	1856.82854189817	140
0	803	1861.019220242261	141
0	804	1861.495554588241	142
0	807	1876.451413817292	143
0	813	1890.987494272512	144
0	819	1897.425716929074	145
0	826	1913.533464677787	146
0	827	1913.634459401725	147
0	828	1918.923954613617	148
0	836	1943.32666333365	149
0	841	1958.73594460952	150
0	842	1959.196443757292	151
0	856	1982.664588157137	152
0	861	1988.513280415007	153
0	862	1992.60847361461	154
0	881	2020.318829545144	155
0	884	2022.348019139779	156
0	887	2032.770018393547	157
0	888	2042.248709380639	158
0	889	2042.54962329723	159
0	894	2049.840877014388	160
0	895	2050.363471560198	161
0	898	2062.980268289178	162
0	912	2089.615985185017	163
0	913	2095.971941102189	164
0	914	2100.209605552813	165
0	920	2107.040838838475	166
0	924	2123.498333916701	167
0	928	2141.776400852389	168
0	932	2150.453962551114	169
0	940	2159.55263511105	170
0	956	2185.987582869873	171
0	963	2199.317326764352	172
0	964	2204.032688169867	173
0	965	2204.711101184327	174
0	980	2235.509618133016	175
0	981	2236.901110513867	176
0	982	2236.97941123494	177
0	983	2237.460732233016	178
0	984	2240.819501974928	179
0	985	2243.190814698228	180
0	986	2254.799459528142	181
0	987	2257.917125991616	182
0	988	2261.469844285072	183
0	989	2264.677398467432	184
0	990	2273.036104376682	185
0	1002	2301.119985216645	186
0	1007	2312.75035626423	187
0	1011	2318.703896144038	188
0	1012	2321.424814602912	189
0	1013	2322.395259941081	190
0	1014	2325.77791891832	191
0	1015	2326.496617614166	192
0	1020	2340.840083611094	193
0	1021	2344.058910967021	194
0	1022	2347.269017051264	195
0	1027	2359.916656336659	196
0	1028	2364.647333000175	197
0	1029	2375.054097655638	198
0	1030	2385.056283509654	199
0	1031	2388.036347563008	200
0	1032	2391.582826094391	201
0	1065	2457.250676694867	202
0	1066	2457.902980882555	203
0	1067	2458.530882655009	204
0	1072	2470.586529238568	205
0	1075	2491.570644743596	206
0	1078	2497.26387676448	207
1	149	350.851022983005	10
1	150	352.672746211357	9
1	154	356.275138873474	9
1	159	361.531743559315	10
1	161	367.553763951342	11
1	165	368.970575265093	12
1	168	379.927922828233	13
1	170	380.306087155442	14
1	175	382.080972587445	15
1	177	382.936418932786	16
1	179	387.510257431181	17
1	183	389.911119545815	18
1	187	393.455530514951	19
1	191	399.10741924951	19
1	195	401.335149171264	19
1	197	401.485334148296	20
1	199	405.672086865254	20
1	200	406.097164413413	19
1	201	407.108153780943	18
1	202	409.503987806321	17
1	204	412.129365972685	17
1	211	442.960883293168	17
1	212	444.184735112108	16
1	214	446.532072824088	16
1	215	446.804170446048	16
1	217	455.418534664674	16
1	219	459.485586021208	17
1	220	464.243726588889	17
1	222	468.041860974414	17
1	223	472.71615779556	17
1	224	477.507248392486	16
1	226	480.239443259427	16
1	228	484.314394665896	17
1	229	486.114888309648	17
1	234	511.606946428544	17
1	235	512.287861744588	17
1	237	516.396541660431	17
1	239	517.029377089414	18
1	241	522.165015742967	19
1	243	523.706183755885	20
1	244	532.344323376499	20
1	246	535.079449780043	20
1	247	537.110152811619	20
1	249	542.924549707891	20
1	250	543.636794172284	20
1	252	544.504856593887	20
1	254	545.10126394541	21
1	256	560.650013804625	22
1	257	564.735196701553	22
1	261	571.503968412171	22
1	263	571.885422676681	23
1	269	576.531670043592	24
1	270	576.741812964007	24
1	272	586.041278199781	24
1	273	586.852746924389	24
1	274	590.675489756902	23
1	275	591.579335566006	22
1	277	591.842793986612	22
1	279	593.492340352836	23
1	280	593.570804181442	23
1	282	593.822627101554	23
1	284	608.601332355442	24
1	285	610.159329585267	24
1	286	611.222054492533	23
1	287	613.253856258164	22
1	288	616.087023965238	21
1	289	618.613014101197	20
1	293	624.810397034941	19
1	294	625.364060271121	18
1	298	637.008126714569	17
1	299	638.612049477924	16
1	301	642.500478591344	16
1	306	645.553767806205	17
1	313	658.72291101783	18
1	315	660.897469340871	18
1	316	667.994686963222	17
1	321	673.50565802358	17
1	323	674.664452820824	18
1	325	678.053537741583	19
1	327	679.276270559373	20
1	328	683.984897251438	20
1	330	689.822589290019	20
1	338	722.812043553386	21
1	345	752.887833589075	22
1	349	754.865825694057	23
1	352	762.433577474227	23
1	353	775.94772790052	22
1	357	779.934200981398	22
1	360	786.323076486688	23
1	362	788.123718112885	24
1	367	811.826066980366	25
1	368	812.004763916071	25
1	370	815.947848581462	25
1	372	820.44480297725	26
1	374	821.388645718781	27
1	378	826.335389533663	27
1	380	828.891794095329	27
1	384	840.695604552115	28
1	389	855.611398915425	28
1	391	857.256330799712	28
1	393	868.648008226734	29
1	395	870.702630473908	30
1	396	881.847018667962	30
1	397	888.800823534346	29
1	399	894.689810098196	29
1	405	903.133171413273	30
1	409	906.787099258618	31
1	410	907.719916661254	31
1	411	911.215140761341	30
1	417	924.958018129097	30
1	419	926.96826182913	31
1	422	936.371670316825	31
1	424	938.47093182519	31
1	426	938.824901339621	32
1	434	946.970759347724	33
1	438	951.594273986105	34
1	440	958.366921324126	35
1	442	962.90571134618	35
1	443	964.483741645562	34
1	452	991.294130417434	34
1	457	1007.904452093689	35
1	460	1016.561505806223	36
1	462	1023.68614644825	37
1	464	1030.520435079685	37
1	471	1045.103771368261	36
1	473	1045.719007057478	36
1	475	1046.141772985728	37
1	479	1053.433658907636	38
1	481	1062.350764016502	38
1	482	1065.490517762893	37
1	483	1066.471519586017	36
1	485	1067.124123066431	36
1	486	1067.747273200502	36
1	487	1076.726079429735	35
1	489	1080.147366110922	35
1	490	1080.510749505227	35
1	492	1085.663846851348	35
1	494	1090.489287960552	36
1	496	1092.101482329185	37
1	497	1096.283402925361	37
1	498	1096.317418794249	36
1	499	1101.799928881649	35
1	506	1140.083382758178	35
1	508	1144.263893497483	35
1	509	1156.397055746901	34
1	511	1160.613482617548	34
1	513	1165.599748141268	35
1	514	1173.576644295489	35
1	515	1179.449292540526	34
1	521	1184.832306587143	34
1	523	1186.37157715356	35
1	529	1211.343419140701	36
1	531	1212.510790991493	36
1	532	1225.754609788173	35
1	533	1226.523843212919	34
1	534	1233.442512916829	33
1	536	1235.09717362252	33
1	538	1236.164658714414	34
1	540	1236.791656967319	35
1	541	1236.838615812404	35
1	546	1240.13416520579	35
1	548	1241.095342600622	36
1	549	1248.07348086774	36
1	550	1249.58017966642	35
1	551	1252.278476825598	34
1	553	1255.132693136419	34
1	555	1261.420735924344	35
1	556	1263.446177590983	35
1	560	1265.523657481921	35
1	562	1265.53163369834	36
1	566	1269.672344984342	37
1	573	1281.365090834462	38
1	576	1299.931884046393	39
1	579	1301.379669955999	39
1	581	1304.724605843547	39
1	583	1305.322714708422	40
1	584	1308.219109208566	40
1	585	1312.702916898116	39
1	586	1313.369130422169	38
1	588	1317.789257898108	38
1	590	1330.070538396107	39
1	591	1330.178937695866	39
1	592	1332.247181099736	38
1	596	1339.403950450485	38
1	599	1341.489957657103	39
1	606	1367.584745697833	40
1	608	1371.006523717654	40
1	612	1380.920423930158	40
1	614	1381.753183424919	41
1	620	1402.299300518417	42
1	624	1411.883606823326	43
1	626	1412.663953516089	44
1	628	1421.810878278908	45
1	630	1422.579160929986	46
1	635	1426.932312804626	47
1	640	1446.708472722902	48
1	645	1450.417866940304	48
1	647	1450.82885761971	48
1	649	1455.574463608922	49
1	651	1455.730999947189	50
1	652	1457.514255943691	50
1	653	1465.60288051026	49
1	654	1470.76774196719	48
1	656	1471.269624064226	48
1	657	1474.53038358563	48
1	658	1485.17249318567	47
1	659	1486.204457908116	46
1	660	1488.943303630397	45
1	662	1489.047028911997	45
1	668	1501.003251163954	46
1	671	1514.643396132198	47
1	673	1515.115288514532	48
1	675	1519.425740557147	49
1	679	1524.898422388147	50
1	683	1531.528094648684	51
1	684	1534.071494557197	51
1	686	1535.210731051848	51
1	687	1537.671293252367	51
1	689	1543.742296043003	51
1	690	1544.47692233934	51
1	695	1554.127229392814	51
1	697	1557.389591053862	52
1	699	1559.510693161534	53
1	701	1562.792788404847	54
1	703	1567.742571124257	55
1	704	1579.378512134139	55
1	705	1588.551478043065	54
1	706	1590.767306832736	53
1	707	1595.598231178464	52
1	711	1609.196141096314	52
1	713	1610.986066775387	53
1	715	1616.904226737302	54
1	717	1623.299458895717	55
1	719	1623.989388436137	56
1	721	1626.095454983176	57
1	723	1630.575454856278	58
1	725	1637.406804074846	58
1	729	1649.186861691882	58
1	731	1649.593474439688	59
1	734	1654.678995133334	60
1	736	1654.924764420721	61
1	737	1657.147455409565	61
1	739	1660.428087577648	61
1	740	1671.490341593857	61
1	741	1672.532509906274	60
1	743	1676.477283815076	60
1	744	1681.810778107078	60
1	746	1690.768281401143	60
1	747	1691.230484171379	60
1	748	1698.147318787606	59
1	749	1699.579958842089	58
1	750	1706.006071485738	57
1	752	1707.193064526369	57
1	753	1717.515703544726	57
1	755	1726.215648249001	57
1	757	1729.345563490037	58
1	762	1737.490455389247	59
1	763	1739.012947426526	59
1	765	1740.254922656132	59
1	767	1741.252134770375	60
1	769	1744.241500984743	61
1	770	1745.37300128814	61
1	771	1751.960738459497	60
1	773	1752.815041703053	60
1	774	1754.132223271663	60
1	778	1789.685397539048	59
1	780	1797.208591200755	59
1	781	1797.355594672431	59
1	782	1797.988179706519	58
1	784	1804.485709461222	58
1	785	1814.635234161153	58
1	787	1817.024796108276	58
1	791	1822.667217348664	59
1	793	1832.014805444614	60
1	801	1851.311271252376	60
1	802	1856.82854189817	59
1	803	1861.019220242261	58
1	804	1861.495554588241	57
1	806	1863.728023762385	57
1	807	1876.451413817292	57
1	811	1890.325002330053	57
1	813	1890.987494272512	57
1	817	1892.911421496219	57
1	819	1897.425716929074	57
1	821	1897.909856720685	57
1	823	1900.228729364245	58
1	825	1902.394972575954	59
1	826	1913.533464677787	59
1	827	1913.634459401725	58
1	828	1918.923954613617	57
1	832	1923.105917349807	57
1	834	1936.930188235271	58
1	836	1943.32666333365	58
1	838	1945.527027404059	58
1	840	1951.529515973467	59
1	841	1958.73594460952	59
1	842	1959.196443757292	58
1	847	1978.121877551877	58
1	849	1979.34124746618	59
1	851	1979.762433639967	60
1	853	1980.054325816748	61
1	855	1980.804055573983	62
1	856	1982.664588157137	62
1	858	1984.075517845662	62
1	860	1987.134381859309	63
1	861	1988.513280415007	63
1	862	1992.60847361461	62
1	867	2004.51657132158	62
1	877	2016.414489280249	63
1	879	2019.355225779663	64
1	881	2020.318829545144	64
1	883	2021.296189842671	64
1	884	2022.348019139779	64
1	886	2027.04262790873	64
1	887	2032.770018393547	64
1	888	2042.248709380639	63
1	889	2042.54962329723	62
1	891	2046.560566042738	62
1	893	2049.309392990112	63
1	894	2049.840877014388	63
1	895	2050.363471560198	62
1	897	2061.485768394387	62
1	898	2062.980268289178	62
1	902	2066.837198190048	62
1	907	2079.137475032824	63
1	912	2089.615985185017	63
1	913	2095.971941102189	62
1	914	2100.209605552813	61
1	918	2104.013738594891	61
1	920	2107.040838838475	61
1	924	2123.498333916701	60
1	928	2141.776400852389	59
1	932	2150.453962551114	58
1	936	2153.081210459794	58
1	939	2156.356740043825	59
1	940	2159.55263511105	59
1	944	2173.045091011533	59
1	946	2173.616005250678	60
1	948	2175.034293339372	61
1	950	2177.084121156678	62
1	953	2180.5173811797	63
1	955	2181.868862810189	64
1	956	2185.987582869873	64
1	958	2189.076723022662	64
1	960	2190.77130714992	65
1	962	2192.37424995934	66
1	963	2199.317326764352	66
1	964	2204.032688169867	65
1	965	2204.711101184327	64
1	971	2219.717478738328	64
1	973	2221.871233968395	65
1	976	2230.071724645932	66
1	978	2230.935555957897	67
1	980	2235.509618133016	67
1	981	2236.901110513867	66
1	982	2236.97941123494	65
1	983	2237.460732233016	64
1	984	2240.819501974928	63
1	985	2243.190814698228	62
1	986	2254.799459528142	61
1	987	2257.917125991616	60
1	988	2261.469844285072	59
1	989	2264.677398467432	58
1	990	2273.036104376682	57
1	994	2282.93439780404	57
1	996	2285.416402302551	58
1	999	2298.293892914577	59
1	1001	2299.2747170942	60
1	1002	2301.119985216645	60
1	1004	2303.439979488083	60
1	1006	2305.47910729848	61
1	1007	2312.75035626423	61
1	1011	2318.703896144038	60
1	1012	2321.424814602912	59
1	1013	2322.395259941081	58
1	1014	2325.77791891832	57
1	1015	2326.496617614166	56
1	1017	2332.303734596903	56
1	1019	2334.907025363425	57
1	1020	2340.840083611094	57
1	1021	2344.058910967021	56
1	1022	2347.269017051264	55
1	1024	2357.875581853046	55
1	1026	2359.875021229818	56
1	1027	2359.916656336659	56
1	1028	2364.647333000175	55
1	1029	2375.054097655638	54
1	1030	2385.056283509654	53
1	1031	2388.036347563008	52
1	1032	2391.582826094391	51
1	1034	2395.018293745815	51
1	1038	2396.55827791462	52
1	1042	2404.75453472669	53
1	1049	2426.276812347666	54
1	1052	2430.731895255457	55
1	1054	2436.181161132906	56
1	1057	2441.666214032224	57
1	1059	2442.032794299837	58
1	1061	2443.172972015987	59
1	1064	2444.959135336682	60
1	1065	2457.250676694867	60
1	1066	2457.902980882555	59
1	1067	2458.530882655009	58
1	1069	2462.964472082763	58
1	1071	2463.231614912147	59
1	1072	2470.586529238568	59
1	1074	2487.671983780769	59
1	1075	2491.570644743596	59
1	1077	2494.931331030283	59
1	1078	2497.26387676448	59
1	1080	2498.796688845567	59
2	149	350.851022983005	79.678380964766
2	150	352.672746211357	72.516961264143
2	191	399.10741924951	79.802695067743
2	199	405.672086865254	75.307309875277
2	200	406.097164413413	69.673185853809
2	201	407.108153780943	60.141163854756
2	202	409.503987806321	60.465184410615
2	211	442.960883293168	86.685744419694
2	212	444.184735112108	82.825845078589
2	215	446.804170446048	85.272426886733
2	220	464.243726588889	96.689962637547
2	223	472.71615779556	103.74558253047
2	224	477.507248392486	97.579325564253
2	229	486.114888309648	105.80880115421
2	235	512.287861744588	130.20688915714
2	244	532.344323376499	149.40790444371
2	247	537.110152811619	149.59989538044
2	250	543.636794172284	153.72567462647
2	257	564.735196701553	171.2796661866
2	270	576.741812964007	175.40666379274
2	273	586.852746924389	185.36741277609
2	274	590.675489756902	178.54612378422
2	275	591.579335566006	173.08845680884
2	280	593.570804181442	147.03873135735
2	285	610.159329585267	154.74079492059
2	286	611.222054492533	151.73646847132
2	287	613.253856258164	145.21199528375
2	288	616.087023965238	135.84758070581
2	289	618.613014101197	134.2986194353
2	293	624.810397034941	113.2034506064
2	294	625.364060271121	108.96751861069
2	298	637.008126714569	114.8431109716
2	299	638.612049477924	114.90586572204
2	315	660.897469340871	115.79620539546
2	316	667.994686963222	107.3446731586
2	328	683.984897251438	112.48092883927
2	352	762.433577474227	170.59078348761
2	353	775.94772790052	182.45538754768
2	368	812.004763916071	192.01389408841
2	378	826.335389533663	183.83491094232
2	389	855.611398915425	210.05763110922
2	396	881.847018667962	233.01376615085
2	397	888.800823534346	232.44194607456
2	410	907.719916661254	236.82234095467
2	411	911.215140761341	237.70948273776
2	422	936.371670316825	258.31813257524
2	442	962.90571134618	273.08312205616
2	443	964.483741645562	249.76528367281
2	464	1030.520435079685	292.40840591734
2	471	1045.103771368261	292.21593777919
2	481	1062.350764016502	285.91245600893
2	482	1065.490517762893	285.5563167815
2	483	1066.471519586017	280.14844309933
2	486	1067.747273200502	279.62355508762
2	487	1076.726079429735	286.13537835342
2	490	1080.510749505227	268.68468252486
2	497	1096.283402925361	280.3355543439
2	498	1096.317418794249	275.872615817
2	499	1101.799928881649	280.41128316287
2	508	1144.263893497483	307.67852522048
2	509	1156.397055746901	315.70145119479
2	514	1173.576644295489	316.32031349578
2	515	1179.449292540526	310.80128431379
2	531	1212.510790991493	317.8209808933
2	532	1225.754609788173	327.48287374309
2	533	1226.523843212919	323.39067179965
2	534	1233.442512916829	326.65541365821
2	541	1236.838615812404	319.21561569679
2	549	1248.07348086774	321.10521903861
2	550	1249.58017966642	311.10924784123
2	551	1252.278476825598	313.45357548598
2	556	1263.446177590983	320.10098901862
2	579	1301.379669955999	349.78539596989
2	584	1308.219109208566	349.85218788444
2	585	1312.702916898116	336.83871110559
2	586	1313.369130422169	322.07500000473
2	591	1330.178937695866	322.27448560218
2	592	1332.247181099736	315.68567529351
2	608	1371.006523717654	324.86475073193
2	645	1450.417866940304	370.27050082938
2	652	1457.514255943691	371.85040909234
2	653	1465.60288051026	375.11359254971
2	654	1470.76774196719	378.666259638
2	657	1474.53038358563	371.96512715515
2	658	1485.17249318567	358.99416574259
2	659	1486.204457908116	346.12107514994
2	660	1488.943303630397	328.32982101285
2	684	1534.071494557197	352.27583813263
2	687	1537.671293252367	352.83898666522
2	690	1544.47692233934	358.10534518578
2	704	1579.378512134139	344.28133851162
2	705	1588.551478043065	352.38681932865
2	706	1590.767306832736	353.97564986542
2	707	1595.598231178464	358.00582663923
2	725	1637.406804074846	396.31146147422
2	737	1657.147455409565	395.72671948522
2	740	1671.490341593857	407.51119103667
2	741	1672.532509906274	407.00885242435
2	744	1681.810778107078	416.27914440874
2	747	1691.230484171379	421.55813918704
2	748	1698.147318787606	416.78222795314
2	749	1699.579958842089	399.6480747957
2	750	1706.006071485738	401.28146564219
2	753	1717.515703544726	412.1929888363
2	763	1739.012947426526	408.94240903042
2	770	1745.37300128814	410.59119705909
2	771	1751.960738459497	412.55678800901
2	774	1754.132223271663	412.64226561456
2	778	1789.685397539048	436.81815862693
2	781	1797.355594672431	429.7708489746
2	782	1797.988179706519	422.67859420211
2	785	1814.635234161153	433.71481023099
2	801	1851.311271252376	453.01162909009
2	802	1856.82854189817	454.52924137975
2	803	1861.019220242261	456.24179372617
2	804	1861.495554588241	449.61194776491
2	807	1876.451413817292	463.7874603012
2	813	1890.987494272512	468.40833334253
2	819	1897.425716929074	450.71724420617
2	826	1913.533464677787	462.70460705808
2	827	1913.634459401725	458.0599957928
2	828	1918.923954613617	463.19295466643
2	836	1943.32666333365	454.27963442165
2	841	1958.73594460952	466.720922845
2	842	1959.196443757292	458.19319259334
2	856	1982.664588157137	467.5492996426
2	861	1988.513280415007	469.08753985786
2	862	1992.60847361461	467.71005122646
2	881	2020.318829545144	466.19160015233
2	884	2022.348019139779	464.95842808592
2	887	2032.770018393547	473.25932523201
2	888	2042.248709380639	479.45592097579
2	889	2042.54962329723	474.80705217297
2	894	2049.840877014388	451.50158897583
2	895	2050.363471560198	441.16733046388
2	898	2062.980268289178	451.99420151379
2	912	2089.615985185017	465.62659674888
2	913	2095.971941102189	469.87648611901
2	914	2100.209605552813	469.63415069654
2	920	2107.040838838475	457.85397714659
2	924	2123.498333916701	468.81933878337
2	928	2141.776400852389	481.34831327474
2	932	2150.453962551114	459.68568114997
2	940	2159.55263511105	433.33698686205
2	956	2185.987582869873	450.52021288962
2	963	2199.317326764352	461.8268713751
2	964	2204.032688169867	463.77776551374
2	965	2204.711101184327	463.45896641395
2	980	2235.509618133016	482.69457642996
2	981	2236.901110513867	469.57059165167
2	982	2236.97941123494	439.77082003418
2	983	2237.460732233016	432.97502277179
2	984	2240.819501974928	423.79470586665
2	985	2243.190814698228	420.8944609861
2	986	2254.799459528142	432.13224217948
2	987	2257.917125991616	425.902320547
2	988	2261.469844285072	397.74182052269
2	989	2264.677398467432	376.85414762702
2	990	2273.036104376682	382.71110204663
2	1002	2301.119985216645	408.20856372043
2	1007	2312.75035626423	414.84049954354
2	1011	2318.703896144038	416.30892356808
2	1012	2321.424814602912	399.75659107576
2	1013	2322.395259941081	399.28934259127
2	1014	2325.77791891832	388.84773068305
2	1015	2326.496617614166	380.96959021011
2	1020	2340.840083611094	389.31056763763
2	1021	2344.058910967021	376.66247682359
2	1022	2347.269017051264	369.14713949939
2	1027	2359.916656336659	380.57540887048
2	1028	2364.647333000175	384.88489936021
2	1029	2375.054097655638	394.99977183889
2	1030	2385.056283509654	404.25222793567
2	1031	2388.036347563008	403.96082971735
2	1032	2391.582826094391	404.44844423508
2	1065	2457.250676694867	452.73410537329
2	1066	2457.902980882555	452.47789758913
2	1067	2458.530882655009	450.43849249463
2	1072	2470.586529238568	455.63561134495
2	1075	2491.570644743596	475.15615546335
2	1078	2497.26387676448	477.90865098482
3	149	350.851022983005	70.695238035791
3	150	352.672746211357	62.926918966145
3	155	361.070644273962	61.439333662842
3	171	380.330662234822	76.593863697286
3	190	398.972679637386	79.667955455619
3	191	399.10741924951	74.202329043539
3	198	402.519315132548	72.154538142571
3	199	405.672086865254	69.24810830565
3	200	406.097164413413	59.130174487226
3	201	407.108153780943	58.069350385237
3	202	409.503987806321	56.011796472466
3	210	436.289144669524	80.01400579605
3	211	442.960883293168	81.601993259649
3	212	444.184735112108	82.652991552793
3	215	446.804170446048	79.250406494706
3	220	464.243726588889	95.273151323796
3	223	472.71615779556	92.788234967327
3	224	477.507248392486	97.201161237044
3	229	486.114888309648	105.76288789477
3	232	504.717672846845	122.6367002594
3	235	512.287861744588	129.3514428118
3	244	532.344323376499	144.83406594532
3	247	537.110152811619	147.1990332658
3	250	543.636794172284	150.18126365733
3	257	564.735196701553	164.30802070051
3	267	573.669811116688	172.33466194542
3	270	576.741812964007	175.25647881571
3	273	586.852746924389	174.7233809517
3	274	590.675489756902	172.18461099973
3	275	591.579335566006	145.04726274192
3	280	593.570804181442	138.15226951677
3	285	610.159329585267	150.67374356406
3	286	611.222054492533	143.18019351812
3	287	613.253856258164	133.01441299874
3	288	616.087023965238	131.77262929934
3	289	618.613014101197	120.44657810752
3	292	624.479321585794	112.87237515725
3	293	624.810397034941	108.41385537451
3	294	625.364060271121	108.33468318171
3	297	634.980403274173	112.81538753121
3	298	637.008126714569	113.30194295868
3	299	638.612049477924	103.53259969788
3	304	643.785327404758	100.86077769687
3	309	650.323373285583	105.8185166917
3	314	659.681478374392	114.58021442898
3	315	660.897469340871	100.24745553625
3	316	667.994686963222	97.836731792014
3	319	672.71201815587	101.2080497437
3	328	683.984897251438	112.09947457476
3	336	719.25699199447	142.72532195088
3	341	743.123009369953	157.08173117017
3	351	755.952064154955	164.10927016834
3	352	762.433577474227	168.94123712139
3	353	775.94772790052	182.12510079897
3	358	781.788450105146	173.1871177497
3	365	802.533389751434	182.54251992377
3	368	812.004763916071	185.05276703661
3	377	826.283198365406	183.78271977406
3	378	826.335389533663	182.9657312073
3	388	847.94019582532	202.38642801911
3	389	855.611398915425	206.77814639831
3	396	881.847018667962	225.48814120818
3	397	888.800823534346	230.07791251652
3	407	905.857231532849	234.95965582627
3	410	907.719916661254	234.21425863767
3	411	911.215140761341	236.55068794052
3	421	930.252777778665	252.19924003708
3	422	936.371670316825	257.09539975745
3	441	959.588620345728	269.76603105571
3	442	962.90571134618	248.18725337343
3	443	964.483741645562	241.67169809218
3	463	1026.025224792202	287.91319562986
3	464	1030.520435079685	286.25999459593
3	470	1040.521548930163	287.63371534109
3	471	1045.103771368261	290.2379456742
3	480	1054.863896299752	278.42558829218
3	481	1062.350764016502	282.4165630351
3	482	1065.490517762893	279.16744127621
3	483	1066.471519586017	278.34780147313
3	486	1067.747273200502	277.15657212419
3	487	1076.726079429735	264.90001244937
3	490	1080.510749505227	264.56290092376
3	497	1096.283402925361	275.83859994811
3	498	1096.317418794249	274.92877307547
3	499	1101.799928881649	280.06565833923
3	502	1105.693464082951	276.80166998762
3	507	1142.366252208043	305.78088393104
3	508	1144.263893497483	303.56828894537
3	509	1156.397055746901	299.14072494719
3	514	1173.576644295489	304.92863606875
3	515	1179.449292540526	308.74666206662
3	530	1212.463934183468	317.77412408527
3	531	1212.510790991493	314.23905494641
3	532	1225.754609788173	322.6214383749
3	533	1226.523843212919	319.7367439543
3	534	1233.442512916829	315.81951280121
3	541	1236.838615812404	311.88059768331
3	544	1237.827776993604	310.85951516447
3	549	1248.07348086774	309.60254904255
3	550	1249.58017966642	310.7552783268
3	551	1252.278476825598	308.93328825324
3	556	1263.446177590983	316.47541824326
3	578	1301.184767533276	349.59049354717
3	579	1301.379669955999	343.01274863187
3	584	1308.219109208566	332.35490341604
3	585	1312.702916898116	321.40878648068
3	586	1313.369130422169	305.46467832848
3	591	1330.178937695866	313.61743188964
3	592	1332.247181099736	308.56103465149
3	597	1339.456459945656	307.95785561114
3	602	1352.510189594426	306.79118253695
3	607	1370.690582271127	324.5488092854
3	608	1371.006523717654	320.49701809624
3	615	1387.364156972113	333.93049806448
3	618	1398.46359035943	331.339467293
3	644	1450.346329669809	370.19896355889
3	645	1450.417866940304	364.75402008896
3	652	1457.514255943691	367.02496798314
3	653	1465.60288051026	373.50139818107
3	654	1470.76774196719	368.20248553671
3	657	1474.53038358563	348.35205614255
3	658	1485.17249318567	345.08911042749
3	659	1486.204457908116	325.59097529057
3	660	1488.943303630397	323.34355548913
3	681	1528.582137161095	346.78648073653
3	684	1534.071494557197	349.23918797005
3	687	1537.671293252367	351.29971609881
3	690	1544.47692233934	333.13350319864
3	693	1547.396163413642	312.29898979112
3	704	1579.378512134139	343.21385341973
3	705	1588.551478043065	351.75982107575
3	706	1590.767306832736	353.1749022935
3	707	1595.598231178464	355.46406597267
3	724	1631.091728480984	389.99638588036
3	725	1637.406804074846	382.27411093843
3	732	1651.969349653572	390.54861372923
3	737	1657.147455409565	393.16830485238
3	740	1671.490341593857	405.96668411194
3	741	1672.532509906274	407.00087620793
3	744	1681.810778107078	412.13843312274
3	747	1691.230484171379	409.86539333692
3	748	1698.147318787606	398.21543474121
3	749	1699.579958842089	394.85535299854
3	750	1706.006071485738	400.68335677732
3	753	1717.515703544726	399.72644564662
3	760	1736.418164235974	406.34762583987
3	763	1739.012947426526	404.23114319747
3	770	1745.37300128814	405.96905083766
3	771	1751.960738459497	410.47078080239
3	774	1754.132223271663	411.69665823306
3	777	1783.321174065367	430.45393515325
3	778	1789.685397539048	422.10065184121
3	781	1797.355594672431	422.04600916803
3	782	1797.988179706519	417.06775577636
3	785	1814.635234161153	432.88205073623
3	800	1849.792362898383	451.4927207361
3	801	1851.311271252376	449.01197073396
3	802	1856.82854189817	452.05111538208
3	803	1861.019220242261	449.13561341894
3	804	1861.495554588241	448.83160107215
3	807	1876.451413817292	454.64053553838
3	812	1890.514760279879	467.93559934989
3	813	1890.987494272512	464.05518146789
3	818	1893.701937470894	446.99346474799
3	819	1897.425716929074	446.59685930936
3	826	1913.533464677787	457.95900106887
3	827	1913.634459401725	457.90345945454
3	828	1918.923954613617	447.65433054939
3	835	1943.289486107423	454.24245719543
3	836	1943.32666333365	451.31164156913
3	841	1958.73594460952	457.73269344557
3	842	1959.196443757292	444.55304762509
3	845	1977.05446085409	461.93917233956
3	856	1982.664588157137	463.23884759999
3	861	1988.513280415007	463.61485802686
3	862	1992.60847361461	461.08037896593
3	865	2002.183255881602	466.97252482975
3	870	2007.75734534349	464.01504930049
3	873	2011.33117271832	465.06474135733
3	880	2019.71581971259	465.58859031978
3	881	2020.318829545144	462.92923849128
3	884	2022.348019139779	462.83732597825
3	887	2032.770018393547	469.9772299887
3	888	2042.248709380639	474.50613825638
3	889	2042.54962329723	444.21033525867
3	894	2049.840877014388	440.64473591807
3	895	2050.363471560198	439.37740478481
3	898	2062.980268289178	446.07604155188
3	903	2069.121029893259	445.82157099754
3	911	2087.563027819198	463.57363938306
3	912	2089.615985185017	463.52053020184
3	913	2095.971941102189	465.39648624591
3	914	2100.209605552813	459.78640147901
3	919	2104.166171249824	454.97930955794
3	920	2107.040838838475	457.44736439879
3	923	2112.194389889839	457.5153947565
3	924	2123.498333916701	468.57356949598
3	927	2134.442502854162	474.01441527651
3	928	2141.776400852389	465.29911703731
3	931	2146.092042023029	455.32376062189
3	932	2150.453962551114	443.26089802475
3	937	2155.081625028279	428.86597677928
3	940	2159.55263511105	430.20707162101
3	951	2179.416672363379	443.94930238313
3	956	2185.987582869873	448.49712748063
3	963	2199.317326764352	459.06240410822
3	964	2204.032688169867	462.78055339949
3	965	2204.711101184327	460.46960019958
3	979	2233.537265122075	480.72222341902
3	980	2235.509618133016	468.17909927082
3	981	2236.901110513867	439.69251931311
3	982	2236.97941123494	432.49370177372
3	983	2237.460732233016	420.43593612474
3	984	2240.819501974928	418.5231482628
3	985	2243.190814698228	420.52359734956
3	986	2254.799459528142	422.78465408353
3	987	2257.917125991616	394.18910222923
3	988	2261.469844285072	373.64659344466
3	989	2264.677398467432	374.35239613738
3	990	2273.036104376682	381.81783156027
3	997	2294.356472933703	401.44505143748
3	1002	2301.119985216645	403.21012849596
3	1007	2312.75035626423	412.52162689998
3	1010	2315.322908889948	412.92793631399
3	1011	2318.703896144038	397.03567261688
3	1012	2321.424814602912	398.3188972531
3	1013	2322.395259941081	385.46507170581
3	1014	2325.77791891832	380.25089151426
3	1015	2326.496617614166	374.9671016407
3	1020	2340.840083611094	373.44364946766
3	1021	2344.058910967021	365.93703341514
3	1022	2347.269017051264	367.92776958508
3	1027	2359.916656336659	380.15422269669
3	1028	2364.647333000175	384.59300718343
3	1029	2375.054097655638	394.25004208166
3	1030	2385.056283509654	400.98076566399
3	1031	2388.036347563008	400.9019657037
3	1032	2391.582826094391	398.31206830291
3	1062	2443.731683073955	439.21511175237
3	1065	2457.250676694867	451.82559340144
3	1066	2457.902980882555	449.81059072218
3	1067	2458.530882655009	443.57996476139
3	1072	2470.586529238568	454.17203995832
3	1075	2491.570644743596	472.21541896393
3	1078	2497.26387676448	475.96768692181
4	152	353.492191333855	1
4	157	361.358890033519	1
4	163	368.78043457168	2
4	173	380.352000414881	1
4	181	388.861516406107	2
4	185	391.757141693541	3
4	193	400.427176001047	1
4	206	418.490878757168	1
4	208	421.634878531556	2
4	231	498.166435993675	1
4	259	570.157955171208	1
4	265	572.013697630046	2
4	291	619.990869827664	1
4	296	626.951996879465	1
4	303	643.369658326367	1
4	308	648.833252517114	1
4	311	656.358877459783	1
4	318	670.89757570658	1
4	332	714.718457972752	1
4	334	715.659682895607	2
4	340	738.112029162346	1
4	343	744.260440483758	1
4	347	754.18205261004	2
4	355	776.438308007573	1
4	364	790.590701076314	1
4	376	821.734270542422	1
4	382	836.585368277	1
4	386	845.649693670463	2
4	401	898.271736045084	1
4	403	900.679632703256	2
4	413	917.623000115617	1
4	415	921.272436396995	2
4	428	943.345188572361	1
4	430	943.713555040912	2
4	432	944.787028829265	3
4	445	975.864205792521	1
4	447	983.786107803526	2
4	450	990.276985011205	2
4	454	991.438078315617	3
4	466	1031.498604334519	1
4	468	1035.463420870607	2
4	477	1050.509505621411	1
4	501	1102.565256430476	1
4	504	1126.178327443082	1
4	517	1181.795656424566	1
4	519	1182.879317771439	2
4	526	1207.921071308651	2
4	543	1237.592404539237	1
4	558	1263.979150557185	1
4	564	1268.471674512885	2
4	568	1280.860231261121	3
4	571	1281.213159268324	3
4	594	1334.781804229055	1
4	601	1342.435565038599	1
4	604	1352.867238912116	1
4	610	1375.309585504405	1
4	617	1398.299642162285	1
4	622	1404.77742651609	1
4	632	1425.76906201151	2
4	637	1430.384050855711	2
4	642	1448.648219502481	2
4	664	1492.015021764522	1
4	666	1497.036609395997	2
4	677	1523.329877500482	2
4	692	1546.266431360994	1
4	709	1598.33928803856	1
4	727	1640.4232040738	1
4	759	1735.467369980249	1
4	776	1767.330518862194	1
4	789	1822.296353712127	1
4	795	1833.60911008917	2
4	797	1837.832209965198	3
4	809	1887.823250840407	1
4	815	1891.218272816414	1
4	830	1921.668223527153	1
4	844	1967.396434143435	1
4	864	1993.270757791483	1
4	869	2005.425083293427	1
4	872	2008.092390160378	1
4	875	2014.950917893618	1
4	900	2064.563262874183	1
4	905	2069.515851758278	1
4	909	2079.326869143163	2
4	916	2103.346587578668	1
4	922	2110.335738409846	1
4	926	2125.044740041305	1
4	930	2144.225125355446	1
4	934	2150.527057442777	1
4	942	2163.143513135241	1
4	967	2210.697394252604	1
4	969	2216.593915740708	2
4	992	2277.88009486364	1
4	1009	2314.406601838302	1
4	1036	2396.152750829857	1
4	1040	2400.088119842539	2
4	1044	2414.679708258506	3
4	1046	2419.832186906069	4
5	152	353.492191333855	0
5	155	361.070644273962	0
5	157	361.358890033519	0
5	163	368.78043457168	1
5	166	374.643891210026	1
5	171	380.330662234822	0
5	173	380.352000414881	0
5	181	388.861516406107	1
5	185	391.757141693541	2
5	188	395.821861773967	2
5	189	397.450260433127	1
5	190	398.972679637386	0
5	193	400.427176001047	0
5	198	402.519315132548	0
5	206	418.490878757168	0
5	208	421.634878531556	1
5	209	427.444328237685	1
5	210	436.289144669524	0
5	231	498.166435993675	0
5	232	504.717672846845	0
5	259	570.157955171208	0
5	265	572.013697630046	1
5	266	572.601342321789	1
5	267	573.669811116688	0
5	291	619.990869827664	0
5	292	624.479321585794	0
5	296	626.951996879465	0
5	297	634.980403274173	0
5	303	643.369658326367	0
5	304	643.785327404758	0
5	308	648.833252517114	0
5	309	650.323373285583	0
5	311	656.358877459783	0
5	314	659.681478374392	0
5	318	670.89757570658	0
5	319	672.71201815587	0
5	332	714.718457972752	0
5	334	715.659682895607	1
5	335	717.656025689049	1
5	336	719.25699199447	0
5	340	738.112029162346	0
5	341	743.123009369953	0
5	343	744.260440483758	0
5	347	754.18205261004	1
5	350	755.423637904894	1
5	351	755.952064154955	0
5	355	776.438308007573	0
5	358	781.788450105146	0
5	364	790.590701076314	0
5	365	802.533389751434	0
5	376	821.734270542422	0
5	377	826.283198365406	0
5	382	836.585368277	0
5	386	845.649693670463	1
5	387	847.674213236637	1
5	388	847.94019582532	0
5	401	898.271736045084	0
5	403	900.679632703256	1
5	406	905.342544664495	1
5	407	905.857231532849	0
5	413	917.623000115617	0
5	415	921.272436396995	1
5	420	928.266598414192	1
5	421	930.252777778665	0
5	428	943.345188572361	0
5	430	943.713555040912	1
5	432	944.787028829265	2
5	435	950.766760331758	2
5	436	950.924886925334	1
5	441	959.588620345728	0
5	445	975.864205792521	0
5	447	983.786107803526	1
5	448	986.189103515996	1
5	450	990.276985011205	1
5	454	991.438078315617	2
5	455	999.667682583991	2
5	458	1008.716592061296	1
5	463	1026.025224792202	0
5	466	1031.498604334519	0
5	468	1035.463420870607	1
5	469	1036.86000006386	1
5	470	1040.521548930163	0
5	477	1050.509505621411	0
5	480	1054.863896299752	0
5	501	1102.565256430476	0
5	502	1105.693464082951	0
5	504	1126.178327443082	0
5	507	1142.366252208043	0
5	517	1181.795656424566	0
5	519	1182.879317771439	1
5	524	1189.66363179911	1
5	526	1207.921071308651	1
5	527	1208.507599848513	1
5	530	1212.463934183468	0
5	543	1237.592404539237	0
5	544	1237.827776993604	0
5	558	1263.979150557185	0
5	564	1268.471674512885	1
5	568	1280.860231261121	2
5	569	1280.923430601568	2
5	571	1281.213159268324	2
5	574	1289.910927237716	2
5	577	1300.479691802218	1
5	578	1301.184767533276	0
5	594	1334.781804229055	0
5	597	1339.456459945656	0
5	601	1342.435565038599	0
5	602	1352.510189594426	0
5	604	1352.867238912116	0
5	607	1370.690582271127	0
5	610	1375.309585504405	0
5	615	1387.364156972113	0
5	617	1398.299642162285	0
5	618	1398.46359035943	0
5	622	1404.77742651609	0
5	632	1425.76906201151	1
5	633	1426.772187818281	1
5	637	1430.384050855711	1
5	638	1431.971655579362	1
5	642	1448.648219502481	1
5	643	1448.771599044618	1
5	644	1450.346329669809	0
5	664	1492.015021764522	0
5	666	1497.036609395997	1
5	669	1512.792735368781	1
5	677	1523.329877500482	1
5	680	1528.523786389942	1
5	681	1528.582137161095	0
5	692	1546.266431360994	0
5	693	1547.396163413642	0
5	709	1598.33928803856	0
5	724	1631.091728480984	0
5	727	1640.4232040738	0
5	732	1651.969349653572	0
5	759	1735.467369980249	0
5	760	1736.418164235974	0
5	776	1767.330518862194	0
5	777	1783.321174065367	0
5	789	1822.296353712127	0
5	795	1833.60911008917	1
5	797	1837.832209965198	2
5	798	1847.135636167389	2
5	799	1848.764467439717	1
5	800	1849.792362898383	0
5	809	1887.823250840407	0
5	812	1890.514760279879	0
5	815	1891.218272816414	0
5	818	1893.701937470894	0
5	830	1921.668223527153	0
5	835	1943.289486107423	0
5	844	1967.396434143435	0
5	845	1977.05446085409	0
5	864	1993.270757791483	0
5	865	2002.183255881602	0
5	869	2005.425083293427	0
5	870	2007.75734534349	0
5	872	2008.092390160378	0
5	873	2011.33117271832	0
5	875	2014.950917893618	0
5	880	2019.71581971259	0
5	900	2064.563262874183	0
5	903	2069.121029893259	0
5	905	2069.515851758278	0
5	909	2079.326869143163	1
5	910	2086.036193007048	1
5	911	2087.563027819198	0
5	916	2103.346587578668	0
5	919	2104.166171249824	0
5	922	2110.335738409846	0
5	923	2112.194389889839	0
5	926	2125.044740041305	0
5	927	2134.442502854162	0
5	930	2144.225125355446	0
5	931	2146.092042023029	0
5	934	2150.527057442777	0
5	937	2155.081625028279	0
5	942	2163.143513135241	0
5	951	2179.416672363379	0
5	967	2210.697394252604	0
5	969	2216.593915740708	1
5	974	2223.610280516559	1
5	979	2233.537265122075	0
5	992	2277.88009486364	0
5	997	2294.356472933703	0
5	1009	2314.406601838302	0
5	1010	2315.322908889948	0
5	1036	2396.152750829857	0
5	1040	2400.088119842539	1
5	1044	2414.679708258506	2
5	1046	2419.832186906069	3
5	1047	2423.116150070371	3
5	1050	2426.478778342081	2
5	1055	2436.346170200634	1
5	1062	2443.731683073955	0
6	152	353.492191333855	8
6	157	361.358890033519	9
6	173	380.352000414881	10
6	193	400.427176001047	11
6	206	418.490878757168	12
6	231	498.166435993675	13
6	259	570.157955171208	14
6	291	619.990869827664	15
6	296	626.951996879465	16
6	303	643.369658326367	17
6	308	648.833252517114	18
6	311	656.358877459783	19
6	318	670.89757570658	20
6	332	714.718457972752	21
6	340	738.112029162346	22
6	343	744.260440483758	23
6	355	776.438308007573	24
6	364	790.590701076314	25
6	376	821.734270542422	26
6	382	836.585368277	27
6	401	898.271736045084	28
6	413	917.623000115617	29
6	428	943.345188572361	30
6	445	975.864205792521	31
6	466	1031.498604334519	32
6	477	1050.509505621411	33
6	501	1102.565256430476	34
6	504	1126.178327443082	35
6	517	1181.795656424566	36
6	543	1237.592404539237	37
6	558	1263.979150557185	38
6	594	1334.781804229055	39
6	601	1342.435565038599	40
6	604	1352.867238912116	41
6	610	1375.309585504405	42
6	617	1398.299642162285	43
6	622	1404.77742651609	44
6	664	1492.015021764522	45
6	692	1546.266431360994	46
6	709	1598.33928803856	47
6	727	1640.4232040738	48
6	759	1735.467369980249	49
6	776	1767.330518862194	50
6	789	1822.296353712127	51
6	809	1887.823250840407	52
6	815	1891.218272816414	53
6	830	1921.668223527153	54
6	844	1967.396434143435	55
6	864	1993.270757791483	56
6	869	2005.425083293427	57
6	872	2008.092390160378	58
6	875	2014.950917893618	59
6	900	2064.563262874183	60
6	905	2069.515851758278	61
6	916	2103.346587578668	62
6	922	2110.335738409846	63
6	926	2125.044740041305	64
6	930	2144.225125355446	65
6	934	2150.527057442777	66
6	942	2163.143513135241	67
6	967	2210.697394252604	68
6	992	2277.88009486364	69
6	1009	2314.406601838302	70
6	1036	2396.152750829857	71
7	152	353.492191333855	0
7	157	361.358890033519	0
7	166	374.643891210026	5.863456638346
7	173	380.352000414881	0
7	188	395.821861773967	6.96034536786
7	189	397.450260433127	5.693118739586
7	193	400.427176001047	0
7	206	418.490878757168	0
7	209	427.444328237685	5.809449706129
7	231	498.166435993675	0
7	259	570.157955171208	0
7	266	572.601342321789	0.587644691743
7	291	619.990869827664	0
7	296	626.951996879465	0
7	303	643.369658326367	0
7	308	648.833252517114	0
7	311	656.358877459783	0
7	318	670.89757570658	0
7	332	714.718457972752	0
7	335	717.656025689049	1.996342793442
7	340	738.112029162346	0
7	343	744.260440483758	0
7	350	755.423637904894	1.241585294854
7	355	776.438308007573	0
7	364	790.590701076314	0
7	376	821.734270542422	0
7	382	836.585368277	0
7	387	847.674213236637	2.024519566174
7	401	898.271736045084	0
7	406	905.342544664495	4.662911961239
7	413	917.623000115617	0
7	420	928.266598414192	6.994162017197
7	428	943.345188572361	0
7	435	950.766760331758	7.053205290846
7	436	950.924886925334	6.137858096069
7	445	975.864205792521	0
7	448	986.189103515996	2.40299571247
7	455	999.667682583991	9.390697572786
7	458	1008.716592061296	17.278513745679
7	466	1031.498604334519	0
7	469	1036.86000006386	1.396579193253
7	477	1050.509505621411	0
7	501	1102.565256430476	0
7	504	1126.178327443082	0
7	517	1181.795656424566	0
7	524	1189.66363179911	6.784314027671
7	527	1208.507599848513	0.586528539862
7	543	1237.592404539237	0
7	558	1263.979150557185	0
7	569	1280.923430601568	12.451756088683
7	574	1289.910927237716	9.050695976595
7	577	1300.479691802218	19.266532533894
7	594	1334.781804229055	0
7	601	1342.435565038599	0
7	604	1352.867238912116	0
7	610	1375.309585504405	0
7	617	1398.299642162285	0
7	622	1404.77742651609	0
7	633	1426.772187818281	1.003125806771
7	638	1431.971655579362	1.587604723651
7	643	1448.771599044618	0.123379542137
7	664	1492.015021764522	0
7	669	1512.792735368781	15.756125972784
7	680	1528.523786389942	5.19390888946
7	692	1546.266431360994	0
7	709	1598.33928803856	0
7	727	1640.4232040738	0
7	759	1735.467369980249	0
7	776	1767.330518862194	0
7	789	1822.296353712127	0
7	798	1847.135636167389	13.526526078219
7	799	1848.764467439717	10.932257474519
7	809	1887.823250840407	0
7	815	1891.218272816414	0
7	830	1921.668223527153	0
7	844	1967.396434143435	0
7	864	1993.270757791483	0
7	869	2005.425083293427	0
7	872	2008.092390160378	0
7	875	2014.950917893618	0
7	900	2064.563262874183	0
7	905	2069.515851758278	0
7	910	2086.036193007048	6.709323863885
7	916	2103.346587578668	0
7	922	2110.335738409846	0
7	926	2125.044740041305	0
7	930	2144.225125355446	0
7	934	2150.527057442777	0
7	942	2163.143513135241	0
7	967	2210.697394252604	0
7	974	2223.610280516559	7.016364775851
7	992	2277.88009486364	0
7	1009	2314.406601838302	0
7	1036	2396.152750829857	0
7	1047	2423.116150070371	23.028030227832
7	1050	2426.478778342081	11.799070083575
7	1055	2436.346170200634	16.513983294565
8	154	356.275138873474	10
8	159	361.531743559315	11
8	161	367.553763951342	12
8	165	368.970575265093	13
8	168	379.927922828233	14
8	170	380.306087155442	15
8	175	382.080972587445	16
8	177	382.936418932786	17
8	179	387.510257431181	18
8	183	389.911119545815	19
8	187	393.455530514951	20
8	195	401.335149171264	20
8	197	401.485334148296	21
8	204	412.129365972685	18
8	214	446.532072824088	17
8	217	455.418534664674	17
8	219	459.485586021208	18
8	222	468.041860974414	18
8	226	480.239443259427	17
8	228	484.314394665896	18
8	234	511.606946428544	18
8	237	516.396541660431	18
8	239	517.029377089414	19
8	241	522.165015742967	20
8	243	523.706183755885	21
8	246	535.079449780043	21
8	249	542.924549707891	21
8	252	544.504856593887	21
8	254	545.10126394541	22
8	256	560.650013804625	23
8	261	571.503968412171	23
8	263	571.885422676681	24
8	269	576.531670043592	25
8	272	586.041278199781	25
8	277	591.842793986612	23
8	279	593.492340352836	24
8	282	593.822627101554	24
8	284	608.601332355442	25
8	301	642.500478591344	17
8	306	645.553767806205	18
8	313	658.72291101783	19
8	321	673.50565802358	18
8	323	674.664452820824	19
8	325	678.053537741583	20
8	327	679.276270559373	21
8	330	689.822589290019	21
8	338	722.812043553386	22
8	345	752.887833589075	23
8	349	754.865825694057	24
8	357	779.934200981398	23
8	360	786.323076486688	24
8	362	788.123718112885	25
8	367	811.826066980366	26
8	370	815.947848581462	26
8	372	820.44480297725	27
8	374	821.388645718781	28
8	380	828.891794095329	28
8	384	840.695604552115	29
8	391	857.256330799712	29
8	393	868.648008226734	30
8	395	870.702630473908	31
8	399	894.689810098196	30
8	405	903.133171413273	31
8	409	906.787099258618	32
8	417	924.958018129097	31
8	419	926.96826182913	32
8	424	938.47093182519	32
8	426	938.824901339621	33
8	434	946.970759347724	34
8	438	951.594273986105	35
8	440	958.366921324126	36
8	452	991.294130417434	35
8	457	1007.904452093689	36
8	460	1016.561505806223	37
8	462	1023.68614644825	38
8	473	1045.719007057478	37
8	475	1046.141772985728	38
8	479	1053.433658907636	39
8	485	1067.124123066431	37
8	489	1080.147366110922	36
8	492	1085.663846851348	36
8	494	1090.489287960552	37
8	496	1092.101482329185	38
8	506	1140.083382758178	36
8	511	1160.613482617548	35
8	513	1165.599748141268	36
8	521	1184.832306587143	35
8	523	1186.37157715356	36
8	529	1211.343419140701	37
8	536	1235.09717362252	34
8	538	1236.164658714414	35
8	540	1236.791656967319	36
8	546	1240.13416520579	36
8	548	1241.095342600622	37
8	553	1255.132693136419	35
8	555	1261.420735924344	36
8	560	1265.523657481921	36
8	562	1265.53163369834	37
8	566	1269.672344984342	38
8	573	1281.365090834462	39
8	576	1299.931884046393	40
8	581	1304.724605843547	40
8	583	1305.322714708422	41
8	588	1317.789257898108	39
8	590	1330.070538396107	40
8	596	1339.403950450485	39
8	599	1341.489957657103	40
8	606	1367.584745697833	41
8	612	1380.920423930158	41
8	614	1381.753183424919	42
8	620	1402.299300518417	43
8	624	1411.883606823326	44
8	626	1412.663953516089	45
8	628	1421.810878278908	46
8	630	1422.579160929986	47
8	635	1426.932312804626	48
8	640	1446.708472722902	49
8	647	1450.82885761971	49
8	649	1455.574463608922	50
8	651	1455.730999947189	51
8	656	1471.269624064226	49
8	662	1489.047028911997	46
8	668	1501.003251163954	47
8	671	1514.643396132198	48
8	673	1515.115288514532	49
8	675	1519.425740557147	50
8	679	1524.898422388147	51
8	683	1531.528094648684	52
8	686	1535.210731051848	52
8	689	1543.742296043003	52
8	695	1554.127229392814	52
8	697	1557.389591053862	53
8	699	1559.510693161534	54
8	701	1562.792788404847	55
8	703	1567.742571124257	56
8	711	1609.196141096314	53
8	713	1610.986066775387	54
8	715	1616.904226737302	55
8	717	1623.299458895717	56
8	719	1623.989388436137	57
8	721	1626.095454983176	58
8	723	1630.575454856278	59
8	729	1649.186861691882	59
8	731	1649.593474439688	60
8	734	1654.678995133334	61
8	736	1654.924764420721	62
8	739	1660.428087577648	62
8	743	1676.477283815076	61
8	746	1690.768281401143	61
8	752	1707.193064526369	58
8	755	1726.215648249001	58
8	757	1729.345563490037	59
8	762	1737.490455389247	60
8	765	1740.254922656132	60
8	767	1741.252134770375	61
8	769	1744.241500984743	62
8	773	1752.815041703053	61
8	780	1797.208591200755	60
8	784	1804.485709461222	59
8	787	1817.024796108276	59
8	791	1822.667217348664	60
8	793	1832.014805444614	61
8	806	1863.728023762385	58
8	811	1890.325002330053	58
8	817	1892.911421496219	58
8	821	1897.909856720685	58
8	823	1900.228729364245	59
8	825	1902.394972575954	60
8	832	1923.105917349807	58
8	834	1936.930188235271	59
8	838	1945.527027404059	59
8	840	1951.529515973467	60
8	847	1978.121877551877	59
8	849	1979.34124746618	60
8	851	1979.762433639967	61
8	853	1980.054325816748	62
8	855	1980.804055573983	63
8	858	1984.075517845662	63
8	860	1987.134381859309	64
8	867	2004.51657132158	63
8	877	2016.414489280249	64
8	879	2019.355225779663	65
8	883	2021.296189842671	65
8	886	2027.04262790873	65
8	891	2046.560566042738	63
8	893	2049.309392990112	64
8	897	2061.485768394387	63
8	902	2066.837198190048	63
8	907	2079.137475032824	64
8	918	2104.013738594891	62
8	936	2153.081210459794	59
8	939	2156.356740043825	60
8	944	2173.045091011533	60
8	946	2173.616005250678	61
8	948	2175.034293339372	62
8	950	2177.084121156678	63
8	953	2180.5173811797	64
8	955	2181.868862810189	65
8	958	2189.076723022662	65
8	960	2190.77130714992	66
8	962	2192.37424995934	67
8	971	2219.717478738328	65
8	973	2221.871233968395	66
8	976	2230.071724645932	67
8	978	2230.935555957897	68
8	994	2282.93439780404	58
8	996	2285.416402302551	59
8	999	2298.293892914577	60
8	1001	2299.2747170942	61
8	1004	2303.439979488083	61
8	1006	2305.47910729848	62
8	1017	2332.303734596903	57
8	1019	2334.907025363425	58
8	1024	2357.875581853046	56
8	1026	2359.875021229818	57
8	1034	2395.018293745815	52
8	1038	2396.55827791462	53
8	1042	2404.75453472669	54
8	1049	2426.276812347666	55
8	1052	2430.731895255457	56
8	1054	2436.181161132906	57
8	1057	2441.666214032224	58
8	1059	2442.032794299837	59
8	1061	2443.172972015987	60
8	1064	2444.959135336682	61
8	1069	2462.964472082763	59
8	1071	2463.231614912147	60
8	1074	2487.671983780769	60
8	1077	2494.931331030283	60
8	1080	2498.796688845567	60
9	155	361.070644273962	17
9	166	374.643891210026	18
9	171	380.330662234822	19
9	188	395.821861773967	20
9	189	397.450260433127	21
9	190	398.972679637386	22
9	198	402.519315132548	23
9	209	427.444328237685	24
9	210	436.289144669524	25
9	232	504.717672846845	26
9	266	572.601342321789	27
9	267	573.669811116688	28
9	292	624.479321585794	29
9	297	634.980403274173	30
9	304	643.785327404758	31
9	309	650.323373285583	32
9	314	659.681478374392	33
9	319	672.71201815587	34
9	335	717.656025689049	35
9	336	719.25699199447	36
9	341	743.123009369953	37
9	350	755.423637904894	38
9	351	755.952064154955	39
9	358	781.788450105146	40
9	365	802.533389751434	41
9	377	826.283198365406	42
9	387	847.674213236637	43
9	388	847.94019582532	44
9	406	905.342544664495	45
9	407	905.857231532849	46
9	420	928.266598414192	47
9	421	930.252777778665	48
9	435	950.766760331758	49
9	436	950.924886925334	50
9	441	959.588620345728	51
9	448	986.189103515996	52
9	455	999.667682583991	53
9	458	1008.716592061296	54
9	463	1026.025224792202	55
9	469	1036.86000006386	56
9	470	1040.521548930163	57
9	480	1054.863896299752	58
9	502	1105.693464082951	59
9	507	1142.366252208043	60
9	524	1189.66363179911	61
9	527	1208.507599848513	62
9	530	1212.463934183468	63
9	544	1237.827776993604	64
9	569	1280.923430601568	65
9	574	1289.910927237716	66
9	577	1300.479691802218	67
9	578	1301.184767533276	68
9	597	1339.456459945656	69
9	602	1352.510189594426	70
9	607	1370.690582271127	71
9	615	1387.364156972113	72
9	618	1398.46359035943	73
9	633	1426.772187818281	74
9	638	1431.971655579362	75
9	643	1448.771599044618	76
9	644	1450.346329669809	77
9	669	1512.792735368781	78
9	680	1528.523786389942	79
9	681	1528.582137161095	80
9	693	1547.396163413642	81
9	724	1631.091728480984	82
9	732	1651.969349653572	83
9	760	1736.418164235974	84
9	777	1783.321174065367	85
9	798	1847.135636167389	86
9	799	1848.764467439717	87
9	800	1849.792362898383	88
9	812	1890.514760279879	89
9	818	1893.701937470894	90
9	835	1943.289486107423	91
9	845	1977.05446085409	92
9	865	2002.183255881602	93
9	870	2007.75734534349	94
9	873	2011.33117271832	95
9	880	2019.71581971259	96
9	903	2069.121029893259	97
9	910	2086.036193007048	98
9	911	2087.563027819198	99
9	919	2104.166171249824	100
9	923	2112.194389889839	101
9	927	2134.442502854162	102
9	931	2146.092042023029	103
9	937	2155.081625028279	104
9	951	2179.416672363379	105
9	974	2223.610280516559	106
9	979	2233.537265122075	107
9	997	2294.356472933703	108
9	1010	2315.322908889948	109
9	1047	2423.116150070371	110
9	1050	2426.478778342081	111
9	1055	2436.346170200634	112
9	1062	2443.731683073955	113
10	155	361.070644273962	7.578452940107
10	166	374.643891210026	13.285001176507
10	171	380.330662234822	11.550227663142
10	188	395.821861773967	15.469861359086
10	189	397.450260433127	8.58874402702
10	190	398.972679637386	7.215537943845
10	198	402.519315132548	2.092139131501
10	209	427.444328237685	8.953449480517
10	210	436.289144669524	14.654266137968
10	232	504.717672846845	6.55123685317
10	266	572.601342321789	2.443387150581
10	267	573.669811116688	1.656113486642
10	292	624.479321585794	4.48845175813
10	297	634.980403274173	8.028406394708
10	304	643.785327404758	0.415669078391
10	309	650.323373285583	1.490120768469
10	314	659.681478374392	3.322600914609
10	319	672.71201815587	1.81444244929
10	335	717.656025689049	2.937567716297
10	336	719.25699199447	3.597309098863
10	341	743.123009369953	5.010980207607
10	350	755.423637904894	11.163197421136
10	351	755.952064154955	1.770011544915
10	358	781.788450105146	5.350142097573
10	365	802.533389751434	11.94268867512
10	377	826.283198365406	4.548927822984
10	387	847.674213236637	11.088844959637
10	388	847.94019582532	2.290502154857
10	406	905.342544664495	7.070808619411
10	407	905.857231532849	5.177598829593
10	420	928.266598414192	10.643598298575
10	421	930.252777778665	8.98034138167
10	435	950.766760331758	7.421571759397
10	436	950.924886925334	7.211331884422
10	441	959.588620345728	14.801591516463
10	448	986.189103515996	10.324897723475
10	455	999.667682583991	15.881574780465
10	458	1008.716592061296	18.439607050091
10	463	1026.025224792202	34.587146476585
10	469	1036.86000006386	5.361395729341
10	470	1040.521548930163	5.058128059556
10	480	1054.863896299752	4.354390678341
10	502	1105.693464082951	3.128207652475
10	507	1142.366252208043	16.187924764961
10	524	1189.66363179911	7.867975374544
10	527	1208.507599848513	25.628282077074
10	530	1212.463934183468	4.542862874817
10	544	1237.827776993604	0.235372454367
10	569	1280.923430601568	16.944280044383
10	574	1289.910927237716	21.439252724831
10	577	1300.479691802218	19.619460541097
10	578	1301.184767533276	19.971608264952
10	597	1339.456459945656	4.674655716601
10	602	1352.510189594426	10.074624555827
10	607	1370.690582271127	17.823343359011
10	615	1387.364156972113	12.054571467708
10	618	1398.46359035943	0.163948197145
10	633	1426.772187818281	21.994761302191
10	638	1431.971655579362	6.202593567852
10	643	1448.771599044618	18.387548188907
10	644	1450.346329669809	1.698110167328
10	669	1512.792735368781	20.777713604259
10	680	1528.523786389942	31.487176993945
10	681	1528.582137161095	5.252259660613
10	693	1547.396163413642	1.129732052648
10	724	1631.091728480984	32.752440442424
10	732	1651.969349653572	11.546145579772
10	760	1736.418164235974	0.950794255725
10	777	1783.321174065367	15.990655203173
10	798	1847.135636167389	24.839282455262
10	799	1848.764467439717	15.155357350547
10	800	1849.792362898383	11.960152933185
10	812	1890.514760279879	2.691509439472
10	818	1893.701937470894	2.48366465448
10	835	1943.289486107423	21.62126258027
10	845	1977.05446085409	9.658026710655
10	865	2002.183255881602	8.912498090119
10	870	2007.75734534349	2.332262050063
10	873	2011.33117271832	3.238782557942
10	880	2019.71581971259	4.764901818972
10	903	2069.121029893259	4.557767019076
10	910	2086.036193007048	16.52034124877
10	911	2087.563027819198	8.236158676035
10	919	2104.166171249824	0.819583671156
10	923	2112.194389889839	1.858651479993
10	927	2134.442502854162	9.397762812857
10	931	2146.092042023029	1.866916667583
10	937	2155.081625028279	4.554567585502
10	951	2179.416672363379	16.273159228138
10	974	2223.610280516559	12.912886263955
10	979	2233.537265122075	16.943349381367
10	997	2294.356472933703	16.476378070063
10	1010	2315.322908889948	0.916307051646
10	1047	2423.116150070371	26.963399240514
10	1050	2426.478778342081	26.390658499542
10	1055	2436.346170200634	21.666461942128
10	1062	2443.731683073955	23.899496167886
11	1081	2500	0.0828
12	1081	2500	0.0452

