file 60975 1678560170                                           
version 2
run experiments_hard_game_mode1-982-20230311-19:42:50-9762
attr configname experiments_hard_game_mode1
attr datetime 20230311-19:42:50
attr experiment experiments_hard_game_mode1
attr inifile omnetpp.ini
attr iterationvars "$0=9, $1=4, $2=0"
attr iterationvarsf 9,4,0-
attr measurement "$0=9, $1=4, $2=0"
attr network Network
attr processid 9762
attr repetition 22
attr replication #22
attr resultdir results
attr runnumber 982
attr seedset 22
param *.boss.arrival_mean 20
param *.boss.service_mean 9
param *.minion.arrival_mean 10
param *.minion.service_mean 4
param *.player.recover_rate_x 0
param **.minion.arrival_distribution 0
param **.minion.service_distribution 0
param **.boss.arrival_distribution 0
param **.boss.service_distribution 0

vector 0 Network.player boss_jobs_number_stat:vector ETV
attr source signal_boss_jobs_number
vector 1 Network.player boss_jobs_queue_number_stat:vector ETV
attr source signal_boss_jobs_queue_number
vector 2 Network.player minion_recovered_stat:vector ETV
attr source signal_minion_recovered
vector 3 Network.player boss_waiting_time_stat:vector ETV
attr source signal_boss_waiting_time
vector 4 Network.player minion_jobs_number_stat:vector ETV
attr source signal_minion_jobs_number
vector 5 Network.player minion_jobs_queue_number_stat:vector ETV
attr source signal_minion_jobs_queue_number
vector 6 Network.player boss_defeated_stat:vector ETV
attr source signal_boss_defeated
vector 7 Network.player boss_response_time_stat:vector ETV
attr source signal_boss_response_time
vector 8 Network.player minion_waiting_time_stat:vector ETV
attr source signal_minion_waiting_time
vector 9 Network.player minion_defeated_stat:vector ETV
attr source signal_minion_defeated
vector 10 Network.player minion_response_time_stat:vector ETV
attr source signal_minion_response_time
vector 11 Network.player minion_throughput:vector ETV
attr source signal_minion_throughput
vector 12 Network.player boss_throughput:vector ETV
attr source signal_boss_throughput
0	2003 2455 146 1069 352.732720250375 2486.924382343612 96 1 3 134 226
1	4458 4913 146 1070 352.732720250375 2490.575452542476 192 0 2 76 108
2	9371 1293 146 1069 352.732720250375 2486.924382343612 49 6 54 1470 53900
3	10664 2854 146 1069 352.732720250375 2486.924382343612 96 0 28.149764645986 326.68870460429 5337.8155164351
4	13518 5526 150 1073 357.110273761727 2491.824172234539 214 1 19 1008 8186
5	19044 11106 150 1077 357.110273761727 2497.153136454021 431 0 18 1591 12773
6	30150 2569 155 1070 361.618006827016 2490.575452542476 96 19 114 6384 498256
7	32719 3740 155 1070 361.618006827016 2490.575452542476 96 0.073743755299 43.782862037032 1095.6160682439 22467.903455164
8	36459 9835 158 1076 366.134718729325 2495.458313465017 265 0 107.54118462992 7218.0210771616 397086.26717747
9	46294 5926 161 1077 368.327753334546 2497.153136454021 217 29 245 29729 4924381
10	52220 8715 161 1077 368.327753334546 2497.153136454021 217 0.014291234247 108.81138840666 6405.3302940856 353625.60689408
11	60935 19 1078 1078 2500 2500 1 0.098 0.098 0.098 0.009604
12	60954 20 1078 1078 2500 2500 1 0.0456 0.0456 0.0456 0.00207936

