file 52306 1678560305                                           
version 2
run experiments_hard_game_mode1-1545-20230311-19:45:05-12800
attr configname experiments_hard_game_mode1
attr datetime 20230311-19:45:05
attr experiment experiments_hard_game_mode1
attr inifile omnetpp.ini
attr iterationvars "$0=10, $1=3, $2=100"
attr iterationvarsf 10,3,100-
attr measurement "$0=10, $1=3, $2=100"
attr network Network
attr processid 12800
attr repetition 15
attr replication #15
attr resultdir results
attr runnumber 1545
attr seedset 15
param *.boss.arrival_mean 20
param *.boss.service_mean 10
param *.minion.arrival_mean 10
param *.minion.service_mean 3
param *.player.recover_rate_x 100
param **.minion.arrival_distribution 0
param **.minion.service_distribution 0
param **.boss.arrival_distribution 0
param **.boss.service_distribution 0

vector 0 Network.player minion_defeated_stat:vector ETV
attr source signal_minion_defeated
vector 1 Network.player minion_jobs_queue_number_stat:vector ETV
attr source signal_minion_jobs_queue_number
vector 2 Network.player minion_response_time_stat:vector ETV
attr source signal_minion_response_time
vector 3 Network.player minion_jobs_number_stat:vector ETV
attr source signal_minion_jobs_number
vector 4 Network.player minion_waiting_time_stat:vector ETV
attr source signal_minion_waiting_time
vector 5 Network.player boss_jobs_number_stat:vector ETV
attr source signal_boss_jobs_number
vector 6 Network.player boss_jobs_queue_number_stat:vector ETV
attr source signal_boss_jobs_queue_number
vector 7 Network.player boss_waiting_time_stat:vector ETV
attr source signal_boss_waiting_time
vector 8 Network.player boss_defeated_stat:vector ETV
attr source signal_boss_defeated
vector 9 Network.player boss_response_time_stat:vector ETV
attr source signal_boss_response_time
vector 10 Network.player minion_recovered_stat:vector ETV
attr source signal_minion_recovered
vector 11 Network.player minion_throughput:vector ETV
attr source signal_minion_throughput
vector 12 Network.player boss_throughput:vector ETV
attr source signal_boss_throughput
0	2019 3892 156 955 353.79010007056 2314.504724084938 144 31 174 14760 1761720
1	5911 9015 156 1026 353.79010007056 2485.321044617593 345 0 57 6355 226839
2	14926 5635 156 955 353.79010007056 2314.504724084938 144 0.084653478838 433.2056332738 21770.166168647 6789631.0066794
3	20561 5278 158 1026 371.826817875947 2485.321044617593 201 1 58 4205 153311
4	25839 6380 158 955 371.826817875947 2314.504724084938 170 0 431.43699078269 24709.598046023 7684108.9608606
5	32219 2815 176 1010 390.19208526962 2439.323409864084 110 1 7 310 1180
6	35034 5572 176 1028 390.19208526962 2499.946033898474 217 0 6 397 1335
7	40606 3806 176 1028 390.19208526962 2499.946033898474 108 0 103.27224796494 2296.4208036505 106520.57111717
8	44412 2893 179 1028 391.118198328937 2499.946033898474 107 22 128 8025 703953
9	47305 4224 179 1028 391.118198328937 2499.946033898474 107 0.052860959279 114.69518161216 3646.7337942833 190946.41302903
10	51529 736 187 959 407.439532221909 2315.1814443388 27 5 31 486 10386
11	52265 20 1029 1029 2500 2500 1 0.0696 0.0696 0.0696 0.00484416
12	52285 20 1029 1029 2500 2500 1 0.0512 0.0512 0.0512 0.00262144

