file 64796 1678560143                                           
version 2
run experiments_hard_game_mode1-857-20230311-19:42:23-9130
attr configname experiments_hard_game_mode1
attr datetime 20230311-19:42:23
attr experiment experiments_hard_game_mode1
attr inifile omnetpp.ini
attr iterationvars "$0=8.5, $1=7, $2=0"
attr iterationvarsf 8.5,7,0-
attr measurement "$0=8.5, $1=7, $2=0"
attr network Network
attr processid 9130
attr repetition 17
attr replication #17
attr resultdir results
attr runnumber 857
attr seedset 17
param *.boss.arrival_mean 20
param *.boss.service_mean 8.5
param *.minion.arrival_mean 10
param *.minion.service_mean 7
param *.player.recover_rate_x 0
param **.minion.arrival_distribution 0
param **.minion.service_distribution 0
param **.boss.arrival_distribution 0
param **.boss.service_distribution 0

vector 0 Network.player boss_jobs_number_stat:vector ETV
attr source signal_boss_jobs_number
vector 1 Network.player boss_jobs_queue_number_stat:vector ETV
attr source signal_boss_jobs_queue_number
vector 2 Network.player minion_jobs_number_stat:vector ETV
attr source signal_minion_jobs_number
vector 3 Network.player minion_jobs_queue_number_stat:vector ETV
attr source signal_minion_jobs_queue_number
vector 4 Network.player boss_defeated_stat:vector ETV
attr source signal_boss_defeated
vector 5 Network.player boss_response_time_stat:vector ETV
attr source signal_boss_response_time
vector 6 Network.player boss_waiting_time_stat:vector ETV
attr source signal_boss_waiting_time
vector 7 Network.player minion_waiting_time_stat:vector ETV
attr source signal_minion_waiting_time
vector 8 Network.player minion_recovered_stat:vector ETV
attr source signal_minion_recovered
vector 9 Network.player minion_defeated_stat:vector ETV
attr source signal_minion_defeated
vector 10 Network.player minion_response_time_stat:vector ETV
attr source signal_minion_response_time
vector 11 Network.player minion_throughput:vector ETV
attr source signal_minion_throughput
vector 12 Network.player boss_throughput:vector ETV
attr source signal_boss_throughput
0	2011 3032 151 1134 350.171511211393 2489.726720628059 118 1 6 234 668
1	5043 6160 151 1135 350.171511211393 2493.826867039007 240 0 5 238 650
2	11203 5829 155 1132 361.587814466951 2488.977018924844 219 1 36 4077 91485
3	17032 10952 155 1138 361.587814466951 2499.286886228893 412 0 35 7235 156739
4	27984 3289 156 1135 364.10005014063 2493.826867039007 122 17 138 9455 884073
5	31273 4770 156 1135 364.10005014063 2493.826867039007 122 0.117913366225 59.992199468678 1945.7562277267 54256.382297692
6	36043 3916 156 1134 364.10005014063 2489.726720628059 121 0 57.890082818549 943.87716745138 24443.915434829
7	39959 10048 220 1138 481.551949873461 2499.286886228893 254 0 252.29123466379 34203.374483655 5498685.7499362
8	50007 1608 222 1134 487.076176212721 2489.726720628059 60 6 65 2130 93610
9	51615 5289 238 1138 533.00226028646 2499.286886228893 193 28 220 23932 3566640
10	56904 7852 238 1138 533.00226028646 2499.286886228893 193 0.263015550306 252.65081478617 26499.521034338 4310906.6097192
11	64756 19 1139 1139 2500 2500 1 0.088 0.088 0.088 0.007744
12	64775 20 1139 1139 2500 2500 1 0.0552 0.0552 0.0552 0.00304704

