file 60689 1678559976                                           
version 2
run experiments_hard_game_mode1-60-20230311-19:39:36-4858
attr configname experiments_hard_game_mode1
attr datetime 20230311-19:39:36
attr experiment experiments_hard_game_mode1
attr inifile omnetpp.ini
attr iterationvars "$0=7.5, $1=4, $2=0"
attr iterationvarsf 7.5,4,0-
attr measurement "$0=7.5, $1=4, $2=0"
attr network Network
attr processid 4858
attr repetition 0
attr replication #0
attr resultdir results
attr runnumber 60
attr seedset 0
param *.boss.arrival_mean 20
param *.boss.service_mean 7.5
param *.minion.arrival_mean 10
param *.minion.service_mean 4
param *.player.recover_rate_x 0
param **.minion.arrival_distribution 0
param **.minion.service_distribution 0
param **.boss.arrival_distribution 0
param **.boss.service_distribution 0

vector 0 Network.player boss_defeated_stat:vector ETV
attr source signal_boss_defeated
vector 1 Network.player boss_jobs_queue_number_stat:vector ETV
attr source signal_boss_jobs_queue_number
vector 2 Network.player boss_response_time_stat:vector ETV
attr source signal_boss_response_time
vector 3 Network.player minion_jobs_number_stat:vector ETV
attr source signal_minion_jobs_number
vector 4 Network.player minion_jobs_queue_number_stat:vector ETV
attr source signal_minion_jobs_queue_number
vector 5 Network.player minion_waiting_time_stat:vector ETV
attr source signal_minion_waiting_time
vector 6 Network.player minion_defeated_stat:vector ETV
attr source signal_minion_defeated
vector 7 Network.player minion_response_time_stat:vector ETV
attr source signal_minion_response_time
vector 8 Network.player boss_jobs_number_stat:vector ETV
attr source signal_boss_jobs_number
vector 9 Network.player boss_waiting_time_stat:vector ETV
attr source signal_boss_waiting_time
vector 10 Network.player minion_recovered_stat:vector ETV
attr source signal_minion_recovered
vector 11 Network.player minion_throughput:vector ETV
attr source signal_minion_throughput
vector 12 Network.player boss_throughput:vector ETV
attr source signal_boss_throughput
0	2006 2837 168 1100 351.172515206455 2488.714925074732 106 22 127 7897 687569
1	4843 5383 168 1100 351.172515206455 2488.714925074732 211 0 3 68 112
2	10226 4104 168 1100 351.172515206455 2488.714925074732 106 0.182055978274 33.395514926394 863.92515909674 11228.288503577
3	14330 5330 170 1103 356.599406890352 2491.497376120721 207 1 19 789 6399
4	19660 10680 170 1104 356.599406890352 2491.577697722976 414 0 18 1164 10056
5	30340 9380 170 1103 356.599406890352 2491.497376120721 259 0 127.46665640011 4792.5766258977 253104.4770977
6	39720 5687 171 1104 359.871436135872 2491.577697722976 207 35 241 28566 4681236
7	45407 8117 171 1104 359.871436135872 2491.577697722976 207 0.046951254873 132.98259144468 4285.8936516842 204829.00089462
8	53524 2680 173 1098 365.058342191057 2480.218280446483 105 1 4 139 229
9	56204 3010 173 1099 365.058342191057 2482.336260335981 105 0 24.234919066883 173.04348339338 2247.5350030322
10	59214 1434 190 1074 404.73333087535 2409.912083040808 52 7 58 1690 66638
11	60648 20 1105 1105 2500 2500 1 0.0964 0.0964 0.0964 0.00929296
12	60668 20 1105 1105 2500 2500 1 0.0508 0.0508 0.0508 0.00258064

