file 60089 1678560182                                           
version 2
run experiments_hard_game_mode1-1034-20230311-19:43:02-10027
attr configname experiments_hard_game_mode1
attr datetime 20230311-19:43:02
attr experiment experiments_hard_game_mode1
attr inifile omnetpp.ini
attr iterationvars "$0=9, $1=5, $2=0"
attr iterationvarsf 9,5,0-
attr measurement "$0=9, $1=5, $2=0"
attr network Network
attr processid 10027
attr repetition 14
attr replication #14
attr resultdir results
attr runnumber 1034
attr seedset 14
param *.boss.arrival_mean 20
param *.boss.service_mean 9
param *.minion.arrival_mean 10
param *.minion.service_mean 5
param *.player.recover_rate_x 0
param **.minion.arrival_distribution 0
param **.minion.service_distribution 0
param **.boss.arrival_distribution 0
param **.boss.service_distribution 0

vector 0 Network.player minion_jobs_number_stat:vector ETV
attr source signal_minion_jobs_number
vector 1 Network.player minion_jobs_queue_number_stat:vector ETV
attr source signal_minion_jobs_queue_number
vector 2 Network.player boss_defeated_stat:vector ETV
attr source signal_boss_defeated
vector 3 Network.player boss_jobs_queue_number_stat:vector ETV
attr source signal_boss_jobs_queue_number
vector 4 Network.player boss_response_time_stat:vector ETV
attr source signal_boss_response_time
vector 5 Network.player minion_waiting_time_stat:vector ETV
attr source signal_minion_waiting_time
vector 6 Network.player minion_defeated_stat:vector ETV
attr source signal_minion_defeated
vector 7 Network.player minion_response_time_stat:vector ETV
attr source signal_minion_response_time
vector 8 Network.player boss_jobs_number_stat:vector ETV
attr source signal_boss_jobs_number
vector 9 Network.player minion_recovered_stat:vector ETV
attr source signal_minion_recovered
vector 10 Network.player boss_waiting_time_stat:vector ETV
attr source signal_boss_waiting_time
vector 11 Network.player minion_throughput:vector ETV
attr source signal_minion_throughput
vector 12 Network.player boss_throughput:vector ETV
attr source signal_boss_throughput
0	2007 5351 149 1060 355.033945535691 2493.000563500548 206 1 22 1486 16628
1	7358 10633 149 1061 355.033945535691 2499.584401422093 410 0 21 2555 27711
2	17991 2679 150 1047 356.071291742075 2468.954069279452 100 15 114 6450 499350
3	20670 5104 150 1047 356.071291742075 2468.954069279452 199 0 3 94 134
4	25774 3908 150 1047 356.071291742075 2468.954069279452 100 0.326897352355 32.757239972266 1211.3940229311 21690.874289761
5	29682 9738 150 1061 356.071291742075 2499.584401422093 254 0 178.967088994 13163.179098071 1188039.8855483
6	39420 5586 151 1061 356.601635338841 2499.584401422093 204 34 237 27642 4452946
7	45006 8047 151 1061 356.601635338841 2499.584401422093 204 0.04282190494 183.40284710117 11232.389160807 1015651.4558554
8	53053 2540 153 1046 357.206506079018 2464.141668652333 99 1 4 146 260
9	55593 1313 153 1046 357.206506079018 2464.141668652333 49 10 58 1666 66444
10	56906 3142 153 1046 357.206506079018 2464.141668652333 99 0 30.14561540203 325.58982462424 4524.0001525322
11	60048 20 1062 1062 2500 2500 1 0.0948 0.0948 0.0948 0.00898704
12	60068 20 1062 1062 2500 2500 1 0.0456 0.0456 0.0456 0.00207936

