file 61909 1678560012                                           
version 2
run experiments_hard_game_mode1-233-20230311-19:40:12-5808
attr configname experiments_hard_game_mode1
attr datetime 20230311-19:40:12
attr experiment experiments_hard_game_mode1
attr inifile omnetpp.ini
attr iterationvars "$0=7.5, $1=6, $2=100"
attr iterationvarsf 7.5,6,100-
attr measurement "$0=7.5, $1=6, $2=100"
attr network Network
attr processid 5808
attr repetition 23
attr replication #23
attr resultdir results
attr runnumber 233
attr seedset 23
param *.boss.arrival_mean 20
param *.boss.service_mean 7.5
param *.minion.arrival_mean 10
param *.minion.service_mean 6
param *.player.recover_rate_x 100
param **.minion.arrival_distribution 0
param **.minion.service_distribution 0
param **.boss.arrival_distribution 0
param **.boss.service_distribution 0

vector 0 Network.player minion_jobs_number_stat:vector ETV
attr source signal_minion_jobs_number
vector 1 Network.player minion_jobs_queue_number_stat:vector ETV
attr source signal_minion_jobs_queue_number
vector 2 Network.player boss_defeated_stat:vector ETV
attr source signal_boss_defeated
vector 3 Network.player boss_jobs_queue_number_stat:vector ETV
attr source signal_boss_jobs_queue_number
vector 4 Network.player boss_response_time_stat:vector ETV
attr source signal_boss_response_time
vector 5 Network.player minion_waiting_time_stat:vector ETV
attr source signal_minion_waiting_time
vector 6 Network.player minion_defeated_stat:vector ETV
attr source signal_minion_defeated
vector 7 Network.player minion_response_time_stat:vector ETV
attr source signal_minion_response_time
vector 8 Network.player boss_jobs_number_stat:vector ETV
attr source signal_boss_jobs_number
vector 9 Network.player minion_recovered_stat:vector ETV
attr source signal_minion_recovered
vector 10 Network.player boss_waiting_time_stat:vector ETV
attr source signal_boss_waiting_time
vector 11 Network.player minion_throughput:vector ETV
attr source signal_minion_throughput
vector 12 Network.player boss_throughput:vector ETV
attr source signal_boss_throughput
0	2019 5732 147 1089 351.409402957577 2495.212845808239 216 1 41 5458 154020
1	7751 10883 147 1089 351.409402957577 2495.212845808239 410 0 40 9901 270305
2	18634 2857 148 1085 363.588044244919 2491.847464733178 106 19 124 7579 641141
3	21491 5452 148 1087 363.588044244919 2493.276094709187 212 0 7 218 786
4	26943 4147 148 1085 363.588044244919 2491.847464733178 106 0.135652018029 51.5962748395 1865.092305858 57925.682280717
5	31090 10053 148 1085 363.588044244919 2491.847464733178 254 13.755605033231 376.72790329456 46678.096451396 10290913.191615
6	41143 5287 149 1031 366.818771986262 2390.62293356482 194 20 213 22601 3241449
7	46430 7666 149 1031 366.818771986262 2390.62293356482 194 26.256333631526 376.93868860485 37171.157374925 8401309.1284857
8	54096 2726 151 1087 370.280462470171 2493.276094709187 106 1 8 215 717
9	56822 1603 151 1087 370.280462470171 2493.276094709187 60 11 70 2430 116410
10	58425 3443 151 1087 370.280462470171 2493.276094709187 106 0 50.372561248558 940.72353878702 28871.577121811
11	61868 20 1090 1090 2500 2500 1 0.0852 0.0852 0.0852 0.00725904
12	61888 20 1090 1090 2500 2500 1 0.0496 0.0496 0.0496 0.00246016

