version 2
run experiments_hard_game_mode1-1027-20230311-19:43:00-9987
attr configname experiments_hard_game_mode1
attr datetime 20230311-19:43:00
attr experiment experiments_hard_game_mode1
attr inifile omnetpp.ini
attr iterationvars "$0=9, $1=5, $2=0"
attr iterationvarsf 9,5,0-
attr measurement "$0=9, $1=5, $2=0"
attr network Network
attr processid 9987
attr repetition 7
attr replication #7
attr resultdir results
attr runnumber 1027
attr seedset 7
param *.boss.arrival_mean 20
param *.boss.service_mean 9
param *.minion.arrival_mean 10
param *.minion.service_mean 5
param *.player.recover_rate_x 0
param **.minion.arrival_distribution 0
param **.minion.service_distribution 0
param **.boss.arrival_distribution 0
param **.boss.service_distribution 0

vector 0 Network.player boss_jobs_number_stat:vector ETV
attr source signal_boss_jobs_number
vector 1 Network.player boss_jobs_queue_number_stat:vector ETV
attr source signal_boss_jobs_queue_number
vector 2 Network.player boss_waiting_time_stat:vector ETV
attr source signal_boss_waiting_time
vector 3 Network.player minion_jobs_number_stat:vector ETV
attr source signal_minion_jobs_number
vector 4 Network.player minion_jobs_queue_number_stat:vector ETV
attr source signal_minion_jobs_queue_number
vector 5 Network.player boss_defeated_stat:vector ETV
attr source signal_boss_defeated
vector 6 Network.player boss_response_time_stat:vector ETV
attr source signal_boss_response_time
vector 7 Network.player minion_waiting_time_stat:vector ETV
attr source signal_minion_waiting_time
vector 8 Network.player minion_defeated_stat:vector ETV
attr source signal_minion_defeated
vector 9 Network.player minion_response_time_stat:vector ETV
attr source signal_minion_response_time
vector 10 Network.player minion_recovered_stat:vector ETV
attr source signal_minion_recovered
vector 11 Network.player minion_throughput:vector ETV
attr source signal_minion_throughput
vector 12 Network.player boss_throughput:vector ETV
attr source signal_boss_throughput
0	122	354.444077836132	1
0	134	406.898104172744	1
0	138	412.257206650644	2
0	153	436.114629776888	1
0	161	453.737651697012	2
0	163	454.215286568968	3
0	171	464.656055005741	2
0	173	476.260410756314	3
0	176	479.189485801982	3
0	178	483.085877055807	4
0	187	498.797104969028	2
0	190	504.528118920206	2
0	196	519.131660745384	1
0	220	592.360836225431	1
0	225	621.482739564962	1
0	227	622.989798236534	2
0	251	677.30644856781	1
0	256	692.35140995363	1
0	258	694.23110564586	2
0	260	699.495877799079	3
0	264	703.853308695614	4
0	268	710.741952008659	3
0	304	813.718144071485	1
0	311	827.514843339431	1
0	314	832.877151770902	1
0	316	834.115971989249	2
0	325	839.578052108125	2
0	338	879.643308591697	1
0	346	899.479755191889	1
0	376	976.565614317659	1
0	386	1003.12254496667	1
0	388	1003.62455407805	2
0	392	1026.941684101135	1
0	394	1030.833821058568	2
0	396	1031.466333288233	3
0	402	1039.284372261193	2
0	419	1085.845270508107	1
0	424	1100.918783639256	1
0	428	1107.668427627462	2
0	450	1161.237628372735	1
0	457	1177.458798046421	1
0	482	1243.026575003035	1
0	487	1252.472146928695	1
0	525	1354.658220514177	1
0	527	1355.197924768725	2
0	533	1382.867144682827	1
0	539	1396.497411846483	2
0	543	1406.293757776049	1
0	553	1442.295449873716	1
0	559	1451.72734647732	2
0	565	1460.872643203582	1
0	576	1481.237026826022	1
0	581	1495.724918166403	1
0	583	1499.13631228092	2
0	591	1511.92385810321	1
0	610	1581.533932958997	1
0	613	1591.294094495414	1
0	638	1665.178439283615	1
0	649	1692.44070236867	1
0	651	1693.608171517466	2
0	656	1701.774818324175	2
0	663	1707.872550576227	2
0	678	1725.971570480458	1
0	681	1730.598897677657	1
0	686	1738.198745412658	1
0	692	1744.347793922827	1
0	696	1752.848412235259	2
0	703	1757.78363004108	1
0	707	1763.399925835698	1
0	709	1764.921157897889	2
0	719	1788.864423319195	1
0	725	1799.117948212139	2
0	727	1803.885143658398	3
0	732	1812.247238961048	3
0	734	1818.46743115362	4
0	749	1847.235945382245	2
0	754	1856.600659787436	2
0	773	1884.986909974073	1
0	775	1902.010481329994	2
0	780	1909.821559344625	2
0	797	1959.686324650859	1
0	799	1961.530443557048	2
0	810	1995.712949519735	1
0	815	2010.305708730489	1
0	819	2013.868655704263	2
0	827	2033.511827931655	1
0	831	2034.000853631123	2
0	834	2042.018879043449	2
0	850	2072.729029228804	1
0	852	2074.942192120614	2
0	856	2081.096007312855	1
0	868	2101.959760183306	1
0	874	2110.250898302535	1
0	878	2116.31426357427	1
0	889	2149.994215450844	1
0	900	2162.535855115292	1
0	911	2195.484333627378	1
0	913	2206.573676180957	2
0	922	2220.180729233857	1
0	933	2234.82324390748	1
0	952	2272.150202713364	1
0	961	2294.213482175366	1
0	971	2303.302072368365	2
0	1009	2403.073108456165	1
0	1011	2404.053361099046	2
0	1018	2423.00394114612	2
0	1021	2429.138406406712	2
0	1026	2436.588983293494	1
0	1034	2449.056449732793	1
0	1042	2456.915004370078	1
0	1058	2480.556299264915	1
1	122	354.444077836132	0
1	125	375.954420181787	0
1	134	406.898104172744	0
1	138	412.257206650644	1
1	145	429.415291261866	1
1	146	430.055261463889	0
1	153	436.114629776888	0
1	161	453.737651697012	1
1	163	454.215286568968	2
1	168	460.879297734021	2
1	169	461.584189468187	1
1	171	464.656055005741	1
1	173	476.260410756314	2
1	174	477.88176910643	2
1	176	479.189485801982	2
1	178	483.085877055807	3
1	179	484.939952375213	3
1	180	486.010753789049	2
1	181	486.853614969602	1
1	187	498.797104969028	1
1	188	503.064404675748	1
1	190	504.528118920206	1
1	191	507.401535064941	1
1	192	514.994711710492	0
1	196	519.131660745384	0
1	197	529.070449073491	0
1	220	592.360836225431	0
1	221	594.886369697569	0
1	225	621.482739564962	0
1	227	622.989798236534	1
1	228	626.528698733107	1
1	229	627.846751570076	0
1	251	677.30644856781	0
1	252	677.711013545732	0
1	256	692.35140995363	0
1	258	694.23110564586	1
1	260	699.495877799079	2
1	264	703.853308695614	3
1	265	703.875675910468	3
1	266	705.819913726245	2
1	268	710.741952008659	2
1	275	749.418882217019	2
1	280	754.744917635269	1
1	281	755.982542233473	0
1	304	813.718144071485	0
1	305	814.29969424994	0
1	311	827.514843339431	0
1	312	829.75519665229	0
1	314	832.877151770902	0
1	316	834.115971989249	1
1	321	836.056002710177	1
1	325	839.578052108125	1
1	326	842.646947369626	1
1	331	868.529454656409	0
1	338	879.643308591697	0
1	339	885.147815944855	0
1	346	899.479755191889	0
1	349	902.471499102402	0
1	376	976.565614317659	0
1	377	976.950751940893	0
1	386	1003.12254496667	0
1	388	1003.62455407805	1
1	389	1005.926550742072	1
1	390	1014.601353876804	0
1	392	1026.941684101135	0
1	394	1030.833821058568	1
1	396	1031.466333288233	2
1	397	1031.648056485438	2
1	400	1038.50744959157	1
1	402	1039.284372261193	1
1	403	1054.245253114586	1
1	406	1056.646189584876	0
1	419	1085.845270508107	0
1	420	1092.205022521996	0
1	424	1100.918783639256	0
1	428	1107.668427627462	1
1	429	1114.953507164222	1
1	434	1117.779438298275	0
1	450	1161.237628372735	0
1	451	1165.774019635537	0
1	457	1177.458798046421	0
1	458	1181.201004964269	0
1	482	1243.026575003035	0
1	483	1243.297137762795	0
1	487	1252.472146928695	0
1	494	1285.483907437586	0
1	525	1354.658220514177	0
1	527	1355.197924768725	1
1	530	1376.029881290213	1
1	531	1377.863309526498	0
1	533	1382.867144682827	0
1	539	1396.497411846483	1
1	540	1401.196733225307	1
1	541	1403.69361242975	0
1	543	1406.293757776049	0
1	544	1413.835669444876	0
1	553	1442.295449873716	0
1	559	1451.72734647732	1
1	560	1452.849441593981	1
1	563	1456.883719247116	0
1	565	1460.872643203582	0
1	566	1465.232272421545	0
1	576	1481.237026826022	0
1	577	1487.463928038431	0
1	581	1495.724918166403	0
1	583	1499.13631228092	1
1	584	1501.294666390726	1
1	589	1510.254018682237	0
1	591	1511.92385810321	0
1	594	1522.04546157466	0
1	610	1581.533932958997	0
1	611	1590.981031593048	0
1	613	1591.294094495414	0
1	614	1592.100764522777	0
1	638	1665.178439283615	0
1	643	1683.482058117116	0
1	649	1692.44070236867	0
1	651	1693.608171517466	1
1	652	1694.840055889041	1
1	656	1701.774818324175	1
1	661	1706.070757309066	1
1	663	1707.872550576227	1
1	666	1712.72270232861	1
1	671	1721.165382729876	0
1	678	1725.971570480458	0
1	679	1726.616162478448	0
1	681	1730.598897677657	0
1	682	1732.137631774363	0
1	686	1738.198745412658	0
1	689	1739.049882781345	0
1	692	1744.347793922827	0
1	696	1752.848412235259	1
1	697	1753.21105332724	1
1	698	1754.000387803857	0
1	703	1757.78363004108	0
1	704	1758.970510060479	0
1	707	1763.399925835698	0
1	709	1764.921157897889	1
1	710	1766.908030842767	1
1	713	1780.556119740217	0
1	719	1788.864423319195	0
1	725	1799.117948212139	1
1	727	1803.885143658398	2
1	728	1810.626730241467	2
1	732	1812.247238961048	2
1	734	1818.46743115362	3
1	739	1823.352835275321	3
1	744	1839.406422101363	2
1	745	1842.145563631385	1
1	749	1847.235945382245	1
1	752	1854.625102956271	1
1	754	1856.600659787436	1
1	759	1863.227057114577	1
1	764	1868.928299317321	0
1	773	1884.986909974073	0
1	775	1902.010481329994	1
1	776	1903.396817009529	1
1	780	1909.821559344625	1
1	783	1921.575449291788	1
1	786	1926.752374420849	0
1	797	1959.686324650859	0
1	799	1961.530443557048	1
1	800	1962.633964470335	1
1	801	1962.86028452649	0
1	810	1995.712949519735	0
1	811	1996.47940356648	0
1	815	2010.305708730489	0
1	819	2013.868655704263	1
1	820	2016.560163804548	1
1	821	2018.01448896357	0
1	827	2033.511827931655	0
1	831	2034.000853631123	1
1	832	2038.493924716575	1
1	834	2042.018879043449	1
1	837	2044.638554526132	1
1	842	2056.959424626623	0
1	850	2072.729029228804	0
1	852	2074.942192120614	1
1	853	2075.986955558045	1
1	854	2079.868236667278	0
1	856	2081.096007312855	0
1	857	2084.328827505533	0
1	868	2101.959760183306	0
1	869	2102.820881621801	0
1	874	2110.250898302535	0
1	875	2110.317627312649	0
1	878	2116.31426357427	0
1	885	2142.879547072451	0
1	889	2149.994215450844	0
1	892	2157.790228534489	0
1	900	2162.535855115292	0
1	901	2169.683979249853	0
1	911	2195.484333627378	0
1	913	2206.573676180957	1
1	914	2206.887124162702	1
1	917	2213.668542690814	0
1	922	2220.180729233857	0
1	927	2224.887776996561	0
1	933	2234.82324390748	0
1	934	2237.334345154292	0
1	952	2272.150202713364	0
1	955	2273.751198643235	0
1	961	2294.213482175366	0
1	971	2303.302072368365	1
1	972	2305.295269825601	1
1	975	2307.42026534239	0
1	1009	2403.073108456165	0
1	1011	2404.053361099046	1
1	1012	2411.114146543655	1
1	1018	2423.00394114612	1
1	1019	2423.962808493067	1
1	1021	2429.138406406712	1
1	1022	2431.3676551691	1
1	1023	2435.353188533917	0
1	1026	2436.588983293494	0
1	1031	2442.962981698794	0
1	1034	2449.056449732793	0
1	1037	2453.461713682888	0
1	1042	2456.915004370078	0
1	1043	2458.416409924784	0
1	1058	2480.556299264915	0
1	1059	2493.175316844967	0
2	122	354.444077836132	0
2	134	406.898104172744	0
2	145	429.415291261866	17.158084611222
2	153	436.114629776888	0
2	168	460.879297734021	7.141646037009
2	169	461.584189468187	7.368902899219
2	174	477.88176910643	13.225714100689
2	179	484.939952375213	8.679541618899
2	180	486.010753789049	6.821267987067
2	181	486.853614969602	3.767737913795
2	188	503.064404675748	4.26729970672
2	191	507.401535064941	2.873416144735
2	196	519.131660745384	0
2	220	592.360836225431	0
2	225	621.482739564962	0
2	228	626.528698733107	3.538900496573
2	251	677.30644856781	0
2	256	692.35140995363	0
2	265	703.875675910468	9.644570264608
2	266	705.819913726245	6.324035927166
2	275	749.418882217019	45.565573521405
2	280	754.744917635269	44.00296562661
2	304	813.718144071485	0
2	311	827.514843339431	0
2	314	832.877151770902	0
2	321	836.056002710177	1.940030720928
2	326	842.646947369626	3.068895261501
2	338	879.643308591697	0
2	346	899.479755191889	0
2	376	976.565614317659	0
2	386	1003.12254496667	0
2	389	1005.926550742072	2.301996664022
2	392	1026.941684101135	0
2	397	1031.648056485438	0.81423542687
2	400	1038.50744959157	7.041116303337
2	403	1054.245253114586	14.960880853393
2	419	1085.845270508107	0
2	424	1100.918783639256	0
2	429	1114.953507164222	7.28507953676
2	450	1161.237628372735	0
2	457	1177.458798046421	0
2	482	1243.026575003035	0
2	487	1252.472146928695	0
2	525	1354.658220514177	0
2	530	1376.029881290213	20.831956521488
2	533	1382.867144682827	0
2	540	1401.196733225307	4.699321378824
2	543	1406.293757776049	0
2	553	1442.295449873716	0
2	560	1452.849441593981	1.122095116661
2	565	1460.872643203582	0
2	576	1481.237026826022	0
2	581	1495.724918166403	0
2	584	1501.294666390726	2.158354109806
2	591	1511.92385810321	0
2	610	1581.533932958997	0
2	613	1591.294094495414	0
2	638	1665.178439283615	0
2	649	1692.44070236867	0
2	652	1694.840055889041	1.231884371575
2	661	1706.070757309066	4.295938984891
2	666	1712.72270232861	4.850151752383
2	678	1725.971570480458	0
2	681	1730.598897677657	0
2	686	1738.198745412658	0
2	692	1744.347793922827	0
2	697	1753.21105332724	0.362641091981
2	703	1757.78363004108	0
2	707	1763.399925835698	0
2	710	1766.908030842767	1.986872944878
2	719	1788.864423319195	0
2	728	1810.626730241467	11.508782029328
2	739	1823.352835275321	19.467691616923
2	744	1839.406422101363	27.159183140315
2	745	1842.145563631385	23.678132477765
2	752	1854.625102956271	7.389157574026
2	759	1863.227057114577	6.626397327141
2	773	1884.986909974073	0
2	776	1903.396817009529	1.386335679535
2	783	1921.575449291788	11.753889947163
2	797	1959.686324650859	0
2	800	1962.633964470335	1.103520913287
2	810	1995.712949519735	0
2	815	2010.305708730489	0
2	820	2016.560163804548	2.691508100285
2	827	2033.511827931655	0
2	832	2038.493924716575	4.493071085452
2	837	2044.638554526132	2.619675482683
2	850	2072.729029228804	0
2	853	2075.986955558045	1.044763437431
2	856	2081.096007312855	0
2	868	2101.959760183306	0
2	874	2110.250898302535	0
2	878	2116.31426357427	0
2	889	2149.994215450844	0
2	900	2162.535855115292	0
2	911	2195.484333627378	0
2	914	2206.887124162702	0.313447981745
2	922	2220.180729233857	0
2	933	2234.82324390748	0
2	952	2272.150202713364	0
2	961	2294.213482175366	0
2	972	2305.295269825601	1.993197457236
2	1009	2403.073108456165	0
2	1012	2411.114146543655	7.060785444609
2	1019	2423.962808493067	0.958867346947
2	1022	2431.3676551691	2.229248762388
2	1026	2436.588983293494	0
2	1034	2449.056449732793	0
2	1042	2456.915004370078	0
2	1058	2480.556299264915	0
3	124	362.779012560417	1
3	127	378.94232276728	2
3	131	404.417573523671	1
3	136	410.945070117655	1
3	140	414.426127238478	2
3	142	424.720149536488	3
3	144	426.538650611217	4
3	151	434.202318365371	2
3	155	439.234578117422	3
3	157	440.99737043903	4
3	159	448.144546700357	5
3	165	456.290829722043	6
3	167	459.9730609396	7
3	183	489.431553173651	8
3	185	495.045180807425	9
3	194	515.019738422812	10
3	200	532.743390214778	10
3	204	545.080840038026	9
3	207	553.345193350048	9
3	212	558.53515728906	7
3	216	576.30711615312	6
3	218	578.772894273072	7
3	233	636.631361304735	4
3	236	642.183143198286	4
3	239	646.226482758435	4
3	243	655.747145422117	3
3	246	656.701336655666	3
3	254	687.32047340833	1
3	262	702.185225875771	2
3	270	712.640532632296	3
3	272	714.2584742481	4
3	274	738.109972685136	5
3	277	751.032734217623	6
3	279	752.077991711549	7
3	290	783.121513972541	1
3	292	786.99886226362	2
3	294	787.757912559629	3
3	299	804.658261068389	1
3	302	810.585177372074	1
3	308	817.045913734827	1
3	318	835.441852948545	1
3	320	835.817226806073	2
3	323	837.390078834879	3
3	328	844.859932121541	4
3	330	859.353191058201	5
3	336	879.526058134851	3
3	342	894.748798914436	3
3	348	901.429111008363	2
3	352	912.670828928672	2
3	356	921.083001103788	1
3	359	922.495206296778	1
3	361	924.426246535187	2
3	364	924.827210553039	2
3	368	941.643193032314	1
3	371	952.314999984398	1
3	374	976.309122619328	1
3	379	979.201723983299	2
3	383	993.234354209163	1
3	399	1037.817714041834	1
3	405	1054.86377306729	2
3	408	1062.486238876957	3
3	410	1067.586314668505	4
3	412	1068.196298550826	5
3	416	1081.781918852097	4
3	422	1093.780243235995	4
3	426	1105.299906099446	5
3	431	1115.166361282277	6
3	433	1117.585575416514	7
3	439	1140.197947428563	5
3	441	1143.245327056085	6
3	443	1145.011799952512	7
3	446	1150.608804235597	7
3	448	1160.034678423633	8
3	453	1171.021977446639	9
3	455	1174.834363420373	10
3	460	1184.835546820342	11
3	464	1199.243714448613	10
3	466	1200.03451206652	11
3	469	1201.733882664147	11
3	474	1226.655835093917	9
3	489	1253.232387214677	2
3	491	1263.300329930188	3
3	493	1270.188107608062	4
3	497	1301.695075724682	4
3	503	1319.606710615869	1
3	506	1323.221393193487	1
3	508	1325.834643875292	2
3	510	1326.375745945546	3
3	512	1327.505305647438	4
3	514	1327.930719510784	5
3	517	1339.130112043044	5
3	520	1345.566230223337	5
3	523	1354.217056812716	5
3	529	1364.753652170588	6
3	535	1385.61624942652	7
3	537	1385.873721217589	8
3	555	1444.399947274309	2
3	557	1451.077245172219	3
3	562	1454.297307664281	4
3	568	1466.369209094997	5
3	574	1479.941857648679	2
3	586	1502.106389304741	1
3	588	1505.457368391863	2
3	593	1519.645900163428	3
3	597	1532.601251588089	3
3	600	1539.939842688134	3
3	603	1546.694297322603	3
3	608	1579.360818638479	1
3	617	1599.611571199337	1
3	620	1615.238231094837	1
3	623	1617.008726374054	1
3	625	1618.803667111087	2
3	629	1654.320999339294	1
3	631	1654.530132778208	2
3	633	1655.031343022317	3
3	640	1668.119471991487	1
3	642	1680.17741353523	2
3	646	1685.45785398811	2
3	654	1696.0117990378	2
3	658	1704.068347513425	3
3	660	1704.544076971741	4
3	665	1711.975374516738	5
3	668	1714.173127754168	6
3	670	1718.559366824822	7
3	673	1722.573206414053	8
3	676	1724.64832324279	8
3	688	1738.617628260856	7
3	694	1752.532885940149	7
3	701	1757.074418285213	7
3	712	1775.650069026053	7
3	717	1783.216712739424	6
3	721	1791.646316524924	7
3	723	1796.018681398212	8
3	730	1811.394057054295	9
3	736	1818.623402905251	10
3	738	1820.470659874128	11
3	741	1823.504701725267	12
3	743	1824.776611398249	13
3	747	1843.864454562918	14
3	751	1853.020426018164	15
3	756	1862.781928549067	16
3	758	1862.910194214946	17
3	761	1866.541002019037	18
3	763	1868.111340479915	19
3	769	1883.049181367715	17
3	771	1884.18179652135	18
3	778	1906.77245399804	19
3	782	1913.148113594738	20
3	785	1926.519640148576	21
3	789	1930.890122130338	21
3	794	1950.238507299322	19
3	803	1965.645265703979	19
3	807	1982.800215019916	18
3	817	2013.535855516251	16
3	829	2033.577040077019	13
3	836	2042.019035780318	14
3	839	2046.833801616255	15
3	841	2048.471088520238	16
3	844	2057.923317528761	17
3	846	2063.518800961812	18
3	848	2068.888887785074	19
3	862	2093.375820763635	17
3	866	2096.148318178671	16
3	880	2126.611538650229	13
3	882	2127.243610642487	14
3	884	2131.285105288694	15
3	887	2148.296038955969	16
3	891	2155.411754794041	17
3	897	2160.25086735818	15
3	904	2171.715046139006	14
3	916	2210.271698978259	10
3	919	2215.909237306194	11
3	924	2220.719843061578	11
3	926	2224.656285819337	12
3	931	2234.602854882523	11
3	939	2256.889795796327	9
3	941	2262.748014258532	10
3	943	2264.790023649927	11
3	945	2265.048559352724	12
3	948	2269.762694224587	12
3	954	2272.418185729447	11
3	957	2276.902444097247	12
3	959	2292.009618507136	13
3	963	2294.720392956889	14
3	965	2296.583318064366	15
3	967	2297.701144502198	16
3	969	2303.055250043694	17
3	974	2305.874375309216	18
3	978	2314.908121836742	18
3	984	2340.920934181234	15
3	992	2365.097535760258	10
3	995	2369.544204619743	10
3	997	2376.604331874898	11
3	1004	2393.123895236844	7
3	1007	2398.897702729902	7
3	1014	2411.913131361185	8
3	1016	2412.241381802257	9
3	1028	2437.405041906015	9
3	1030	2439.998051360079	10
3	1036	2452.886610574733	10
3	1039	2454.890705118865	11
3	1048	2466.209201325361	8
3	1051	2468.987260939911	8
3	1056	2476.660273799729	6
3	1061	2493.238974334309	7
4	124	362.779012560417	0
4	127	378.94232276728	1
4	128	380.671089220375	1
4	129	381.482324881221	0
4	131	404.417573523671	0
4	132	405.895572737005	0
4	136	410.945070117655	0
4	140	414.426127238478	1
4	142	424.720149536488	2
4	144	426.538650611217	3
4	147	430.18237180011	3
4	148	431.864436481252	2
4	149	432.220033335293	1
4	151	434.202318365371	1
4	155	439.234578117422	2
4	157	440.99737043903	3
4	159	448.144546700357	4
4	165	456.290829722043	5
4	167	459.9730609396	6
4	183	489.431553173651	7
4	185	495.045180807425	8
4	194	515.019738422812	9
4	198	530.943261037495	9
4	200	532.743390214778	9
4	201	540.134992962158	9
4	202	542.020938330924	8
4	204	545.080840038026	8
4	205	550.302365391129	8
4	207	553.345193350048	8
4	208	555.542366846632	8
4	209	555.54268434225	7
4	210	557.020743584333	6
4	212	558.53515728906	6
4	213	569.88026715958	6
4	214	573.068311463503	5
4	216	576.30711615312	5
4	218	578.772894273072	6
4	222	603.110792649526	6
4	223	610.515109317655	5
4	230	630.366847489435	4
4	231	633.682158922785	3
4	233	636.631361304735	3
4	234	640.071591510504	3
4	236	642.183143198286	3
4	237	643.360012468701	3
4	239	646.226482758435	3
4	240	648.011620329822	3
4	241	653.4436655994	2
4	243	655.747145422117	2
4	244	655.926370821577	2
4	246	656.701336655666	2
4	247	662.544032754667	2
4	248	664.878119894568	1
4	249	668.015967079414	0
4	254	687.32047340833	0
4	262	702.185225875771	1
4	270	712.640532632296	2
4	272	714.2584742481	3
4	274	738.109972685136	4
4	277	751.032734217623	5
4	279	752.077991711549	6
4	282	756.60283745874	6
4	283	764.788121562469	5
4	284	766.163485911454	4
4	285	769.044642159797	3
4	286	769.128766397578	2
4	287	769.819561208851	1
4	288	777.686870469488	0
4	290	783.121513972541	0
4	292	786.99886226362	1
4	294	787.757912559629	2
4	295	788.259728809927	2
4	296	797.433564636137	1
4	297	800.690172672301	0
4	299	804.658261068389	0
4	300	806.774811411294	0
4	302	810.585177372074	0
4	306	816.533216228953	0
4	308	817.045913734827	0
4	309	824.473592586999	0
4	318	835.441852948545	0
4	320	835.817226806073	1
4	323	837.390078834879	2
4	328	844.859932121541	3
4	330	859.353191058201	4
4	332	868.964618453252	4
4	333	869.271175874539	3
4	334	874.720278167116	2
4	336	879.526058134851	2
4	340	888.523763677639	2
4	342	894.748798914436	2
4	343	896.648292267654	2
4	344	896.875884098432	1
4	348	901.429111008363	1
4	350	906.906536713674	1
4	352	912.670828928672	1
4	353	912.742354055113	1
4	354	915.534325517506	0
4	356	921.083001103788	0
4	357	921.118397500429	0
4	359	922.495206296778	0
4	361	924.426246535187	1
4	362	924.496180879518	1
4	364	924.827210553039	1
4	365	929.794636601675	1
4	366	933.042202528224	0
4	368	941.643193032314	0
4	369	942.041166092144	0
4	371	952.314999984398	0
4	372	964.914781157961	0
4	374	976.309122619328	0
4	379	979.201723983299	1
4	380	988.422303730471	1
4	381	990.259809268812	0
4	383	993.234354209163	0
4	384	995.02619450806	0
4	399	1037.817714041834	0
4	405	1054.86377306729	1
4	408	1062.486238876957	2
4	410	1067.586314668505	3
4	412	1068.196298550826	4
4	413	1077.617886482444	4
4	414	1081.231894826406	3
4	416	1081.781918852097	3
4	417	1081.835626191236	3
4	422	1093.780243235995	3
4	426	1105.299906099446	4
4	431	1115.166361282277	5
4	433	1117.585575416514	6
4	435	1118.521197296672	6
4	436	1126.244680842597	5
4	437	1136.576780614876	4
4	439	1140.197947428563	4
4	441	1143.245327056085	5
4	443	1145.011799952512	6
4	444	1145.482419131244	6
4	446	1150.608804235597	6
4	448	1160.034678423633	7
4	453	1171.021977446639	8
4	455	1174.834363420373	9
4	460	1184.835546820342	10
4	461	1185.267886015871	10
4	462	1186.617553086987	9
4	464	1199.243714448613	9
4	466	1200.03451206652	10
4	467	1200.21348770636	10
4	469	1201.733882664147	10
4	470	1209.956817819446	10
4	471	1215.524096144237	9
4	472	1223.660348909244	8
4	474	1226.655835093917	8
4	475	1233.162495359223	8
4	476	1233.680397034085	7
4	477	1234.570081701659	6
4	478	1237.597402196498	5
4	479	1237.955298978711	4
4	480	1239.710368672449	3
4	484	1247.483301674479	2
4	485	1251.463546113947	1
4	489	1253.232387214677	1
4	491	1263.300329930188	2
4	493	1270.188107608062	3
4	495	1299.691913868785	3
4	497	1301.695075724682	3
4	498	1310.22547338382	3
4	499	1310.445269992119	2
4	500	1310.638473172058	1
4	501	1313.975896973399	0
4	503	1319.606710615869	0
4	504	1321.835192412482	0
4	506	1323.221393193487	0
4	508	1325.834643875292	1
4	510	1326.375745945546	2
4	512	1327.505305647438	3
4	514	1327.930719510784	4
4	515	1336.785715574344	4
4	517	1339.130112043044	4
4	518	1342.086506316597	4
4	520	1345.566230223337	4
4	521	1350.307576397436	4
4	523	1354.217056812716	4
4	529	1364.753652170588	5
4	535	1385.61624942652	6
4	537	1385.873721217589	7
4	545	1415.614724712754	7
4	546	1416.275868710478	6
4	547	1418.728138947655	5
4	548	1425.427622217609	4
4	549	1428.284533205688	3
4	550	1430.837962913575	2
4	551	1439.329926698024	1
4	555	1444.399947274309	1
4	557	1451.077245172219	2
4	562	1454.297307664281	3
4	568	1466.369209094997	4
4	569	1469.262370310239	4
4	570	1469.512034807084	3
4	571	1472.742100028779	2
4	572	1479.476972669178	1
4	574	1479.941857648679	1
4	578	1490.961632786442	1
4	579	1492.034274906136	0
4	586	1502.106389304741	0
4	588	1505.457368391863	1
4	593	1519.645900163428	2
4	595	1524.529721075708	2
4	597	1532.601251588089	2
4	598	1535.292107684977	2
4	600	1539.939842688134	2
4	601	1544.988131306383	2
4	603	1546.694297322603	2
4	604	1563.628617524701	2
4	605	1569.626355376633	1
4	606	1569.815471961165	0
4	608	1579.360818638479	0
4	615	1594.16679292442	0
4	617	1599.611571199337	0
4	618	1600.569920679216	0
4	620	1615.238231094837	0
4	621	1616.991263369049	0
4	623	1617.008726374054	0
4	625	1618.803667111087	1
4	626	1619.432127219974	1
4	627	1623.574777703256	0
4	629	1654.320999339294	0
4	631	1654.530132778208	1
4	633	1655.031343022317	2
4	634	1657.83396076265	2
4	635	1660.500402456807	1
4	636	1662.815675782623	0
4	640	1668.119471991487	0
4	642	1680.17741353523	1
4	644	1683.692439738879	1
4	646	1685.45785398811	1
4	647	1691.301311011143	1
4	654	1696.0117990378	1
4	658	1704.068347513425	2
4	660	1704.544076971741	3
4	665	1711.975374516738	4
4	668	1714.173127754168	5
4	670	1718.559366824822	6
4	673	1722.573206414053	7
4	674	1724.32784108324	7
4	676	1724.64832324279	7
4	683	1732.161889222841	7
4	684	1737.764548203463	6
4	688	1738.617628260856	6
4	690	1742.071468873626	6
4	694	1752.532885940149	6
4	699	1756.249739677449	6
4	701	1757.074418285213	6
4	705	1761.241189163882	6
4	712	1775.650069026053	6
4	714	1782.08327492236	6
4	715	1782.569413385291	5
4	717	1783.216712739424	5
4	721	1791.646316524924	6
4	723	1796.018681398212	7
4	730	1811.394057054295	8
4	736	1818.623402905251	9
4	738	1820.470659874128	10
4	741	1823.504701725267	11
4	743	1824.776611398249	12
4	747	1843.864454562918	13
4	751	1853.020426018164	14
4	756	1862.781928549067	15
4	758	1862.910194214946	16
4	761	1866.541002019037	17
4	763	1868.111340479915	18
4	765	1870.496509685223	18
4	766	1874.090267961827	17
4	767	1876.606228740629	16
4	769	1883.049181367715	16
4	771	1884.18179652135	17
4	778	1906.77245399804	18
4	782	1913.148113594738	19
4	785	1926.519640148576	20
4	787	1926.76840191812	20
4	789	1930.890122130338	20
4	790	1936.824434732136	20
4	791	1942.385791370296	19
4	792	1945.592210000105	18
4	794	1950.238507299322	18
4	795	1958.183760520697	18
4	803	1965.645265703979	18
4	804	1970.855730623798	18
4	805	1979.13382360337	17
4	807	1982.800215019916	17
4	808	1995.437606006641	17
4	812	1998.882989420967	16
4	813	2010.001123732315	15
4	817	2013.535855516251	15
4	822	2021.452640538468	15
4	823	2021.465141402512	14
4	824	2023.75432459772	13
4	825	2026.581077108315	12
4	829	2033.577040077019	12
4	836	2042.019035780318	13
4	839	2046.833801616255	14
4	841	2048.471088520238	15
4	844	2057.923317528761	16
4	846	2063.518800961812	17
4	848	2068.888887785074	18
4	858	2086.85615214953	18
4	859	2091.820445286768	17
4	860	2092.580880071236	16
4	862	2093.375820763635	16
4	863	2094.963942876033	16
4	864	2096.047379880513	15
4	866	2096.148318178671	15
4	870	2104.892770232869	15
4	871	2105.147455418439	14
4	872	2109.763464604242	13
4	876	2115.755019533674	12
4	880	2126.611538650229	12
4	882	2127.243610642487	13
4	884	2131.285105288694	14
4	887	2148.296038955969	15
4	891	2155.411754794041	16
4	893	2157.888125853529	16
4	894	2158.057438756286	15
4	895	2159.188897398062	14
4	897	2160.25086735818	14
4	898	2161.5376486181	14
4	902	2171.59884377946	13
4	904	2171.715046139006	13
4	905	2175.369444547839	13
4	906	2176.28797897898	12
4	907	2180.536774202044	11
4	908	2190.239210702792	10
4	909	2193.451137319241	9
4	916	2210.271698978259	9
4	919	2215.909237306194	10
4	920	2219.15980523106	10
4	924	2220.719843061578	10
4	926	2224.656285819337	11
4	928	2226.521385213586	11
4	929	2228.714194860008	10
4	931	2234.602854882523	10
4	935	2237.761077360939	10
4	936	2239.500689486178	9
4	937	2242.632999873613	8
4	939	2256.889795796327	8
4	941	2262.748014258532	9
4	943	2264.790023649927	10
4	945	2265.048559352724	11
4	946	2265.507667773048	11
4	948	2269.762694224587	11
4	949	2270.768714623558	11
4	950	2271.729408988717	10
4	954	2272.418185729447	10
4	957	2276.902444097247	11
4	959	2292.009618507136	12
4	963	2294.720392956889	13
4	965	2296.583318064366	14
4	967	2297.701144502198	15
4	969	2303.055250043694	16
4	974	2305.874375309216	17
4	976	2310.75208866475	17
4	978	2314.908121836742	17
4	979	2317.364263003651	17
4	980	2320.480169351119	16
4	981	2320.943714998407	15
4	982	2327.977632133395	14
4	984	2340.920934181234	14
4	985	2343.578361443695	14
4	986	2347.610763004494	13
4	987	2350.259449894301	12
4	988	2353.341567701087	11
4	989	2357.664541780395	10
4	990	2360.403586668725	9
4	992	2365.097535760258	9
4	993	2367.481763790048	9
4	995	2369.544204619743	9
4	997	2376.604331874898	10
4	998	2382.143148444107	10
4	999	2382.166666577489	9
4	1000	2385.644077072839	8
4	1001	2387.113503235305	7
4	1002	2390.354825646381	6
4	1004	2393.123895236844	6
4	1005	2396.276492108586	6
4	1007	2398.897702729902	6
4	1014	2411.913131361185	7
4	1016	2412.241381802257	8
4	1024	2435.820723049501	8
4	1028	2437.405041906015	8
4	1030	2439.998051360079	9
4	1032	2448.006701037494	9
4	1036	2452.886610574733	9
4	1039	2454.890705118865	10
4	1040	2456.764882248581	10
4	1044	2464.25472873571	9
4	1045	2464.733330054058	8
4	1046	2465.489642975706	7
4	1048	2466.209201325361	7
4	1049	2467.999493502582	7
4	1051	2468.987260939911	7
4	1052	2472.066180913423	7
4	1053	2476.376045669744	6
4	1054	2476.486232390201	5
4	1056	2476.660273799729	5
4	1061	2493.238974334309	6
4	1062	2493.33076603623	6
4	1063	2495.545009119283	5
4	1064	2498.874430940676	4
5	125	375.954420181787	13
5	145	429.415291261866	14
5	146	430.055261463889	15
5	168	460.879297734021	16
5	169	461.584189468187	17
5	174	477.88176910643	18
5	179	484.939952375213	19
5	180	486.010753789049	20
5	181	486.853614969602	21
5	188	503.064404675748	22
5	191	507.401535064941	23
5	192	514.994711710492	24
5	197	529.070449073491	25
5	221	594.886369697569	26
5	228	626.528698733107	27
5	229	627.846751570076	28
5	252	677.711013545732	29
5	265	703.875675910468	30
5	266	705.819913726245	31
5	275	749.418882217019	32
5	280	754.744917635269	33
5	281	755.982542233473	34
5	305	814.29969424994	35
5	312	829.75519665229	36
5	321	836.056002710177	37
5	326	842.646947369626	38
5	331	868.529454656409	39
5	339	885.147815944855	40
5	349	902.471499102402	41
5	377	976.950751940893	42
5	389	1005.926550742072	43
5	390	1014.601353876804	44
5	397	1031.648056485438	45
5	400	1038.50744959157	46
5	403	1054.245253114586	47
5	406	1056.646189584876	48
5	420	1092.205022521996	49
5	429	1114.953507164222	50
5	434	1117.779438298275	51
5	451	1165.774019635537	52
5	458	1181.201004964269	53
5	483	1243.297137762795	54
5	494	1285.483907437586	55
5	530	1376.029881290213	56
5	531	1377.863309526498	57
5	540	1401.196733225307	58
5	541	1403.69361242975	59
5	544	1413.835669444876	60
5	560	1452.849441593981	61
5	563	1456.883719247116	62
5	566	1465.232272421545	63
5	577	1487.463928038431	64
5	584	1501.294666390726	65
5	589	1510.254018682237	66
5	594	1522.04546157466	67
5	611	1590.981031593048	68
5	614	1592.100764522777	69
5	643	1683.482058117116	70
5	652	1694.840055889041	71
5	661	1706.070757309066	72
5	666	1712.72270232861	73
5	671	1721.165382729876	74
5	679	1726.616162478448	75
5	682	1732.137631774363	76
5	689	1739.049882781345	77
5	697	1753.21105332724	78
5	698	1754.000387803857	79
5	704	1758.970510060479	80
5	710	1766.908030842767	81
5	713	1780.556119740217	82
5	728	1810.626730241467	83
5	739	1823.352835275321	84
5	744	1839.406422101363	85
5	745	1842.145563631385	86
5	752	1854.625102956271	87
5	759	1863.227057114577	88
5	764	1868.928299317321	89
5	776	1903.396817009529	90
5	783	1921.575449291788	91
5	786	1926.752374420849	92
5	800	1962.633964470335	93
5	801	1962.86028452649	94
5	811	1996.47940356648	95
5	820	2016.560163804548	96
5	821	2018.01448896357	97
5	832	2038.493924716575	98
5	837	2044.638554526132	99
5	842	2056.959424626623	100
5	853	2075.986955558045	101
5	854	2079.868236667278	102
5	857	2084.328827505533	103
5	869	2102.820881621801	104
5	875	2110.317627312649	105
5	885	2142.879547072451	106
5	892	2157.790228534489	107
5	901	2169.683979249853	108
5	914	2206.887124162702	109
5	917	2213.668542690814	110
5	927	2224.887776996561	111
5	934	2237.334345154292	112
5	955	2273.751198643235	113
5	972	2305.295269825601	114
5	975	2307.42026534239	115
5	1012	2411.114146543655	116
5	1019	2423.962808493067	117
5	1022	2431.3676551691	118
5	1023	2435.353188533917	119
5	1031	2442.962981698794	120
5	1037	2453.461713682888	121
5	1043	2458.416409924784	122
5	1059	2493.175316844967	123
6	125	375.954420181787	21.510342345655
6	145	429.415291261866	22.517187089122
6	146	430.055261463889	17.798054813245
6	168	460.879297734021	24.764667957133
6	169	461.584189468187	7.846537771175
6	174	477.88176910643	23.666482537462
6	179	484.939952375213	20.283897369472
6	180	486.010753789049	9.750343032735
6	181	486.853614969602	7.66412916762
6	188	503.064404675748	19.978527619941
6	191	507.401535064941	8.604430095913
6	192	514.994711710492	10.466592790286
6	197	529.070449073491	9.938788328107
6	221	594.886369697569	2.525533472138
6	228	626.528698733107	5.045959168145
6	229	627.846751570076	4.856953333542
6	252	677.711013545732	0.404564977922
6	265	703.875675910468	11.524265956838
6	266	705.819913726245	11.588808080385
6	275	749.418882217019	49.92300441794
6	280	754.744917635269	50.891608939655
6	281	755.982542233473	45.240590224814
6	305	814.29969424994	0.581550178455
6	312	829.75519665229	2.240353312859
6	321	836.056002710177	3.178850939275
6	326	842.646947369626	8.530975380377
6	331	868.529454656409	28.951402548284
6	339	885.147815944855	5.504507353158
6	349	902.471499102402	2.991743910513
6	377	976.950751940893	0.385137623234
6	389	1005.926550742072	2.804005775402
6	390	1014.601353876804	10.976799798754
6	397	1031.648056485438	4.706372384303
6	400	1038.50744959157	7.673628533002
6	403	1054.245253114586	22.778919826353
6	406	1056.646189584876	17.361817323683
6	420	1092.205022521996	6.359752013889
6	429	1114.953507164222	14.034723524966
6	434	1117.779438298275	10.111010670813
6	451	1165.774019635537	4.536391262802
6	458	1181.201004964269	3.742206917848
6	483	1243.297137762795	0.27056275976
6	494	1285.483907437586	33.011760508891
6	530	1376.029881290213	21.371660776036
6	531	1377.863309526498	22.665384757773
6	540	1401.196733225307	18.32958854248
6	541	1403.69361242975	7.196200583267
6	544	1413.835669444876	7.541911668827
6	560	1452.849441593981	10.553991720265
6	563	1456.883719247116	5.156372769796
6	566	1465.232272421545	4.359629217963
6	577	1487.463928038431	6.226901212409
6	584	1501.294666390726	5.569748224323
6	589	1510.254018682237	11.117706401317
6	594	1522.04546157466	10.12160347145
6	611	1590.981031593048	9.447098634051
6	614	1592.100764522777	0.806670027363
6	643	1683.482058117116	18.303618833501
6	652	1694.840055889041	2.399353520371
6	661	1706.070757309066	12.4625857916
6	666	1712.72270232861	10.947884004435
6	671	1721.165382729876	13.292832153649
6	679	1726.616162478448	0.64459199799
6	682	1732.137631774363	1.538734096706
6	689	1739.049882781345	0.851137368687
6	697	1753.21105332724	8.863259404413
6	698	1754.000387803857	1.151975568598
6	704	1758.970510060479	1.186880019399
6	710	1766.908030842767	3.508105007069
6	713	1780.556119740217	15.634961842328
6	728	1810.626730241467	21.762306922272
6	739	1823.352835275321	24.234887063182
6	744	1839.406422101363	35.521278442965
6	745	1842.145563631385	29.898324670337
6	752	1854.625102956271	36.157671802651
6	759	1863.227057114577	15.991111732332
6	764	1868.928299317321	12.327639529885
6	776	1903.396817009529	18.409907035456
6	783	1921.575449291788	19.564967961794
6	786	1926.752374420849	16.930815076224
6	800	1962.633964470335	2.947639819476
6	801	1962.86028452649	1.329840969442
6	811	1996.47940356648	0.766454046745
6	820	2016.560163804548	6.254455074059
6	821	2018.01448896357	4.145833259307
6	832	2038.493924716575	4.98209678492
6	837	2044.638554526132	10.637700895009
6	842	2056.959424626623	14.940545583174
6	853	2075.986955558045	3.257926329241
6	854	2079.868236667278	4.926044546664
6	857	2084.328827505533	3.232820192678
6	869	2102.820881621801	0.861121438495
6	875	2110.317627312649	0.066729010114
6	885	2142.879547072451	26.565283498181
6	892	2157.790228534489	7.796013083645
6	901	2169.683979249853	7.148124134561
6	914	2206.887124162702	11.402790535324
6	917	2213.668542690814	7.094866509857
6	927	2224.887776996561	4.707047762704
6	934	2237.334345154292	2.511101246812
6	955	2273.751198643235	1.600995929871
6	972	2305.295269825601	11.081787650235
6	975	2307.42026534239	4.118192974025
6	1012	2411.114146543655	8.04103808749
6	1019	2423.962808493067	19.909447394021
6	1022	2431.3676551691	8.36371402298
6	1023	2435.353188533917	6.214782127205
6	1031	2442.962981698794	6.3739984053
6	1037	2453.461713682888	4.405263950095
6	1043	2458.416409924784	1.501405554706
6	1059	2493.175316844967	12.619017580052
7	125	375.954420181787	13.17540762137
7	128	380.671089220375	1.728766453095
7	131	404.417573523671	0
7	146	430.055261463889	19.110191346234
7	147	430.18237180011	15.756244561632
7	148	431.864436481252	7.144286944764
7	149	432.220033335293	5.681382724076
7	192	514.994711710492	80.792393345121
7	197	529.070449073491	92.955819296603
7	198	530.943261037495	91.708682920073
7	201	540.134992962158	99.137622523128
7	202	542.020938330924	93.876391630567
7	205	550.302365391129	94.011535669086
7	208	555.542366846632	95.569305907032
7	209	555.54268434225	66.111131168599
7	210	557.020743584333	61.975562776908
7	213	569.88026715958	54.860528736768
7	214	573.068311463503	53.936650718119
7	221	594.886369697569	62.142979482791
7	222	603.110792649526	58.0299526115
7	223	610.515109317655	57.169915967607
7	229	627.846751570076	69.311594281016
7	230	630.366847489435	54.059731336315
7	231	633.682158922785	54.909264649713
7	234	640.071591510504	47.710755285073
7	237	643.360012468701	21.877272903739
7	240	648.011620329822	11.380259025087
7	241	653.4436655994	11.260522401114
7	244	655.926370821577	9.699888063142
7	247	662.544032754667	6.79688733255
7	248	664.878119894568	8.176783238902
7	254	687.32047340833	0
7	281	755.982542233473	63.631132279843
7	282	756.60283745874	54.417611582969
7	283	764.788121562469	52.147588930173
7	284	766.163485911454	51.905011663354
7	285	769.044642159797	30.934669474661
7	286	769.128766397578	18.096032179955
7	287	769.819561208851	17.741569497302
7	290	783.121513972541	0
7	295	788.259728809927	1.260866546307
7	296	797.433564636137	9.675652076508
7	299	804.658261068389	0
7	302	810.585177372074	0
7	305	814.29969424994	0.581550178455
7	308	817.045913734827	0
7	331	868.529454656409	33.087601707864
7	332	868.964618453252	33.147391647179
7	333	869.271175874539	31.88109703966
7	334	874.720278167116	29.860346045575
7	339	885.147815944855	25.794624886654
7	340	888.523763677639	8.997705542788
7	343	896.648292267654	17.004983675957
7	344	896.875884098432	2.127085183996
7	349	902.471499102402	2.991743910513
7	350	906.906536713674	5.477425705311
7	353	912.742354055113	0.071525126441
7	356	921.083001103788	0
7	359	922.495206296778	0
7	362	924.496180879518	0.069934344331
7	365	929.794636601675	4.967426048636
7	368	941.643193032314	0
7	371	952.314999984398	0
7	374	976.309122619328	0
7	377	976.950751940893	0.385137623234
7	380	988.422303730471	9.220579747172
7	383	993.234354209163	0
7	406	1056.646189584876	18.828475543042
7	413	1077.617886482444	22.754113415154
7	414	1081.231894826406	18.745655949449
7	417	1081.835626191236	14.249311522731
7	420	1092.205022521996	24.00872397117
7	434	1117.779438298275	35.997519446178
7	435	1118.521197296672	32.675926788565
7	436	1126.244680842597	32.464437606602
7	437	1136.576780614876	35.65799697562
7	444	1145.482419131244	40.182513031798
7	451	1165.774019635537	50.60765835326
7	458	1181.201004964269	63.615429547755
7	461	1185.267886015871	45.069938587308
7	462	1186.617553086987	43.372226030902
7	467	1200.21348770636	55.201687753848
7	470	1209.956817819446	59.348013583849
7	471	1215.524096144237	55.489417720604
7	472	1223.660348909244	62.422720536509
7	475	1233.162495359223	62.140517912584
7	476	1233.680397034085	58.846033613712
7	477	1234.570081701659	57.111283655238
7	478	1237.597402196498	52.761855376156
7	479	1237.955298978711	38.711584530098
7	480	1239.710368672449	39.675856605929
7	483	1243.297137762795	41.563255098648
7	484	1247.483301674479	20.827466580562
7	485	1251.463546113947	8.436971110912
7	494	1285.483907437586	33.011760508891
7	495	1299.691913868785	46.459526654108
7	498	1310.22547338382	46.925143453632
7	499	1310.445269992119	40.257162384057
7	500	1310.638473172058	8.943397447376
7	503	1319.606710615869	0
7	506	1323.221393193487	0
7	515	1336.785715574344	10.951071699052
7	518	1342.086506316597	15.710760371051
7	521	1350.307576397436	22.802270749998
7	531	1377.863309526498	49.932590015714
7	541	1403.69361242975	64.563500386706
7	544	1413.835669444876	68.269439221539
7	545	1415.614724712754	61.397667900038
7	546	1416.275868710478	61.617648196301
7	547	1418.728138947655	53.974486777067
7	548	1425.427622217609	42.560477534782
7	549	1428.284533205688	42.668283779168
7	550	1430.837962913575	44.964241695986
7	551	1439.329926698024	33.036168921975
7	563	1456.883719247116	14.5882693734
7	566	1465.232272421545	20.832325147236
7	569	1469.262370310239	18.18512513802
7	570	1469.512034807084	15.214727142803
7	571	1472.742100028779	11.869456825197
7	572	1479.476972669178	13.107763574181
7	577	1487.463928038431	7.522070389752
7	578	1490.961632786442	9.72460596042
7	589	1510.254018682237	8.147629377496
7	594	1522.04546157466	16.588093182797
7	595	1524.529721075708	12.605862972498
7	598	1535.292107684977	15.646207521549
7	601	1544.988131306383	12.386879718294
7	604	1563.628617524701	23.688774836567
7	605	1569.626355376633	22.93205805403
7	608	1579.360818638479	0
7	611	1590.981031593048	9.447098634051
7	614	1592.100764522777	0.806670027363
7	617	1599.611571199337	0
7	620	1615.238231094837	0
7	623	1617.008726374054	0
7	626	1619.432127219974	0.628460108887
7	629	1654.320999339294	0
7	634	1657.83396076265	3.303827984442
7	635	1660.500402456807	5.46905943449
7	643	1683.482058117116	15.362586125629
7	644	1683.692439738879	3.515026203649
7	647	1691.301311011143	5.843457023033
7	671	1721.165382729876	28.724680361206
7	674	1724.32784108324	28.31604204544
7	679	1726.616162478448	22.547814965023
7	682	1732.137631774363	27.593554802622
7	683	1732.161889222841	20.186514706103
7	684	1737.764548203463	23.591420449295
7	689	1739.049882781345	20.490515956523
7	690	1742.071468873626	19.498262459573
7	698	1754.000387803857	29.352064561067
7	699	1756.249739677449	30.278169196991
7	704	1758.970510060479	28.371612382822
7	705	1761.241189163882	23.042443751224
7	713	1780.556119740217	41.938491479361
7	714	1782.08327492236	37.735480999533
7	715	1782.569413385291	30.036527445142
7	764	1868.928299317321	111.85388103211
7	765	1870.496509685223	112.71287964414
7	766	1874.090267961827	110.69034212613
7	767	1876.606228740629	100.95615971458
7	786	1926.752374420849	143.53566168142
7	787	1926.76840191812	137.90397859892
7	790	1936.824434732136	145.17811820721
7	791	1942.385791370296	146.36710997208
7	792	1945.592210000105	134.19815294581
7	795	1958.183760520697	139.56035761545
7	801	1962.86028452649	142.38962465236
7	804	1970.855730623798	147.35102889853
7	805	1979.13382360337	154.35721220512
7	808	1995.437606006641	151.57315144372
7	811	1996.47940356648	143.45897754832
7	812	1998.882989420967	136.1010608719
7	813	2010.001123732315	147.09092951737
7	821	2018.01448896357	151.47348694453
7	822	2021.452640538468	153.34130005855
7	823	2021.465141402512	138.4159600348
7	824	2023.75432459772	139.57252807637
7	825	2026.581077108315	141.59416713424
7	842	2056.959424626623	150.18697062858
7	854	2079.868236667278	166.72012307254
7	857	2084.328827505533	157.80918735696
7	858	2086.85615214953	155.96603001919
7	859	2091.820445286768	141.58193798745
7	860	2092.580880071236	132.89455542038
7	863	2094.963942876033	129.31867717205
7	864	2096.047379880513	113.2471648606
7	869	2102.820881621801	107.10793210207
7	870	2104.892770232869	94.58706150238
7	871	2105.147455418439	91.611599902188
7	872	2109.763464604242	76.251636672587
7	875	2110.317627312649	76.74058723563
7	876	2115.755019533674	73.735983753356
7	885	2142.879547072451	96.045745456196
7	892	2157.790228534489	109.31914001425
7	893	2157.888125853529	99.964808324768
7	894	2158.057438756286	94.538637794474
7	895	2159.188897398062	90.300009612988
7	898	2161.5376486181	88.808619389296
7	901	2169.683979249853	88.587971936998
7	902	2171.59884377946	78.223023015825
7	905	2175.369444547839	79.221126369168
7	906	2176.28797897898	74.328218795674
7	907	2180.536774202044	70.285875899509
7	908	2190.239210702792	73.924947128522
7	909	2193.451137319241	66.839598669012
7	917	2213.668542690814	86.424932048327
7	920	2219.15980523106	87.874699942366
7	927	2224.887776996561	76.591738040592
7	928	2226.521385213586	76.527169762742
7	929	2228.714194860008	73.302440065967
7	934	2237.334345154292	77.083477796112
7	935	2237.761077360939	75.225222245647
7	936	2239.500689486178	67.785643347172
7	937	2242.632999873613	47.148666246235
7	946	2265.507667773048	55.235968794789
7	949	2270.768714623558	54.859477317364
7	950	2271.729408988717	51.54867975486
7	955	2273.751198643235	53.031355581657
7	975	2307.42026534239	82.763979523053
7	976	2310.75208866475	76.149233782227
7	979	2317.364263003651	82.541019096171
7	980	2320.480169351119	63.590373554792
7	981	2320.943714998407	58.195700739875
7	982	2327.977632133395	63.187608483468
7	985	2343.578361443695	78.529802090971
7	986	2347.610763004494	77.848068779907
7	987	2350.259449894301	78.109247180937
7	988	2353.341567701087	80.92338197164
7	989	2357.664541780395	80.762097683148
7	990	2360.403586668725	68.393968161589
7	993	2367.481763790048	73.268281614682
7	998	2382.143148444107	87.422755487218
7	999	2382.166666577489	85.583348513123
7	1000	2385.644077072839	87.942932570641
7	1001	2387.113503235305	84.058253191611
7	1002	2390.354825646381	84.480450337165
7	1005	2396.276492108586	81.368370271844
7	1023	2435.353188533917	94.432254352683
7	1024	2435.820723049501	70.723187289243
7	1031	2442.962981698794	73.418777079051
7	1032	2448.006701037494	71.402369162596
7	1037	2453.461713682888	60.337818446044
7	1040	2456.764882248581	57.867179518679
7	1043	2458.416409924784	55.343301468619
7	1044	2464.25472873571	52.341597374525
7	1045	2464.733330054058	52.491948251801
7	1046	2465.489642975706	28.900659682212
7	1049	2467.999493502582	30.594451596567
7	1052	2472.066180913423	32.068129553344
7	1053	2476.376045669744	27.319595936951
7	1054	2476.486232390201	23.599621815468
7	1059	2493.175316844967	38.284611726102
7	1062	2493.33076603623	36.415761666152
7	1063	2495.545009119283	29.335807793922
7	1064	2498.874430940676	29.887170000765
8	128	380.671089220375	29
8	129	381.482324881221	30
8	132	405.895572737005	31
8	147	430.18237180011	32
8	148	431.864436481252	33
8	149	432.220033335293	34
8	198	530.943261037495	35
8	201	540.134992962158	36
8	202	542.020938330924	37
8	205	550.302365391129	38
8	208	555.542366846632	39
8	209	555.54268434225	40
8	210	557.020743584333	41
8	213	569.88026715958	42
8	214	573.068311463503	43
8	222	603.110792649526	44
8	223	610.515109317655	45
8	230	630.366847489435	46
8	231	633.682158922785	47
8	234	640.071591510504	48
8	237	643.360012468701	49
8	240	648.011620329822	50
8	241	653.4436655994	51
8	244	655.926370821577	52
8	247	662.544032754667	53
8	248	664.878119894568	54
8	249	668.015967079414	55
8	282	756.60283745874	56
8	283	764.788121562469	57
8	284	766.163485911454	58
8	285	769.044642159797	59
8	286	769.128766397578	60
8	287	769.819561208851	61
8	288	777.686870469488	62
8	295	788.259728809927	63
8	296	797.433564636137	64
8	297	800.690172672301	65
8	300	806.774811411294	66
8	306	816.533216228953	67
8	309	824.473592586999	68
8	332	868.964618453252	69
8	333	869.271175874539	70
8	334	874.720278167116	71
8	340	888.523763677639	72
8	343	896.648292267654	73
8	344	896.875884098432	74
8	350	906.906536713674	75
8	353	912.742354055113	76
8	354	915.534325517506	77
8	357	921.118397500429	78
8	362	924.496180879518	79
8	365	929.794636601675	80
8	366	933.042202528224	81
8	369	942.041166092144	82
8	372	964.914781157961	83
8	380	988.422303730471	84
8	381	990.259809268812	85
8	384	995.02619450806	86
8	413	1077.617886482444	87
8	414	1081.231894826406	88
8	417	1081.835626191236	89
8	435	1118.521197296672	90
8	436	1126.244680842597	91
8	437	1136.576780614876	92
8	444	1145.482419131244	93
8	461	1185.267886015871	94
8	462	1186.617553086987	95
8	467	1200.21348770636	96
8	470	1209.956817819446	97
8	471	1215.524096144237	98
8	472	1223.660348909244	99
8	475	1233.162495359223	100
8	476	1233.680397034085	101
8	477	1234.570081701659	102
8	478	1237.597402196498	103
8	479	1237.955298978711	104
8	480	1239.710368672449	105
8	484	1247.483301674479	106
8	485	1251.463546113947	107
8	495	1299.691913868785	108
8	498	1310.22547338382	109
8	499	1310.445269992119	110
8	500	1310.638473172058	111
8	501	1313.975896973399	112
8	504	1321.835192412482	113
8	515	1336.785715574344	114
8	518	1342.086506316597	115
8	521	1350.307576397436	116
8	545	1415.614724712754	117
8	546	1416.275868710478	118
8	547	1418.728138947655	119
8	548	1425.427622217609	120
8	549	1428.284533205688	121
8	550	1430.837962913575	122
8	551	1439.329926698024	123
8	569	1469.262370310239	124
8	570	1469.512034807084	125
8	571	1472.742100028779	126
8	572	1479.476972669178	127
8	578	1490.961632786442	128
8	579	1492.034274906136	129
8	595	1524.529721075708	130
8	598	1535.292107684977	131
8	601	1544.988131306383	132
8	604	1563.628617524701	133
8	605	1569.626355376633	134
8	606	1569.815471961165	135
8	615	1594.16679292442	136
8	618	1600.569920679216	137
8	621	1616.991263369049	138
8	626	1619.432127219974	139
8	627	1623.574777703256	140
8	634	1657.83396076265	141
8	635	1660.500402456807	142
8	636	1662.815675782623	143
8	644	1683.692439738879	144
8	647	1691.301311011143	145
8	674	1724.32784108324	146
8	683	1732.161889222841	147
8	684	1737.764548203463	148
8	690	1742.071468873626	149
8	699	1756.249739677449	150
8	705	1761.241189163882	151
8	714	1782.08327492236	152
8	715	1782.569413385291	153
8	765	1870.496509685223	154
8	766	1874.090267961827	155
8	767	1876.606228740629	156
8	787	1926.76840191812	157
8	790	1936.824434732136	158
8	791	1942.385791370296	159
8	792	1945.592210000105	160
8	795	1958.183760520697	161
8	804	1970.855730623798	162
8	805	1979.13382360337	163
8	808	1995.437606006641	164
8	812	1998.882989420967	165
8	813	2010.001123732315	166
8	822	2021.452640538468	167
8	823	2021.465141402512	168
8	824	2023.75432459772	169
8	825	2026.581077108315	170
8	858	2086.85615214953	171
8	859	2091.820445286768	172
8	860	2092.580880071236	173
8	863	2094.963942876033	174
8	864	2096.047379880513	175
8	870	2104.892770232869	176
8	871	2105.147455418439	177
8	872	2109.763464604242	178
8	876	2115.755019533674	179
8	893	2157.888125853529	180
8	894	2158.057438756286	181
8	895	2159.188897398062	182
8	898	2161.5376486181	183
8	902	2171.59884377946	184
8	905	2175.369444547839	185
8	906	2176.28797897898	186
8	907	2180.536774202044	187
8	908	2190.239210702792	188
8	909	2193.451137319241	189
8	920	2219.15980523106	190
8	928	2226.521385213586	191
8	929	2228.714194860008	192
8	935	2237.761077360939	193
8	936	2239.500689486178	194
8	937	2242.632999873613	195
8	946	2265.507667773048	196
8	949	2270.768714623558	197
8	950	2271.729408988717	198
8	976	2310.75208866475	199
8	979	2317.364263003651	200
8	980	2320.480169351119	201
8	981	2320.943714998407	202
8	982	2327.977632133395	203
8	985	2343.578361443695	204
8	986	2347.610763004494	205
8	987	2350.259449894301	206
8	988	2353.341567701087	207
8	989	2357.664541780395	208
8	990	2360.403586668725	209
8	993	2367.481763790048	210
8	998	2382.143148444107	211
8	999	2382.166666577489	212
8	1000	2385.644077072839	213
8	1001	2387.113503235305	214
8	1002	2390.354825646381	215
8	1005	2396.276492108586	216
8	1024	2435.820723049501	217
8	1032	2448.006701037494	218
8	1040	2456.764882248581	219
8	1044	2464.25472873571	220
8	1045	2464.733330054058	221
8	1046	2465.489642975706	222
8	1049	2467.999493502582	223
8	1052	2472.066180913423	224
8	1053	2476.376045669744	225
8	1054	2476.486232390201	226
8	1062	2493.33076603623	227
8	1063	2495.545009119283	228
8	1064	2498.874430940676	229
9	128	380.671089220375	17.892076659958
9	129	381.482324881221	2.540002113941
9	132	405.895572737005	1.477999213334
9	147	430.18237180011	19.237301682455
9	148	431.864436481252	17.438309242774
9	149	432.220033335293	7.499883798805
9	198	530.943261037495	94.828631260607
9	201	540.134992962158	100.90041484474
9	202	542.020938330924	101.02356789189
9	205	550.302365391129	102.15781869077
9	208	555.542366846632	99.251537124589
9	209	555.54268434225	95.56962340265
9	210	557.020743584333	67.589190410682
9	213	569.88026715958	74.835086352155
9	214	573.068311463503	58.048573040691
9	222	603.110792649526	70.367402434748
9	223	610.515109317655	65.434269279629
9	230	630.366847489435	71.831690200375
9	231	633.682158922785	57.375042769665
9	234	640.071591510504	61.298697237432
9	237	643.360012468701	50.99917624327
9	240	648.011620329822	26.52888076486
9	241	653.4436655994	16.812304294665
9	244	655.926370821577	13.743227623291
9	247	662.544032754667	16.317549996232
9	248	664.878119894568	9.130974472451
9	249	668.015967079414	11.314630423748
9	282	756.60283745874	64.25142750511
9	283	764.788121562469	62.602895686698
9	284	766.163485911454	53.522953279158
9	285	769.044642159797	54.786167911697
9	286	769.128766397578	31.018793712442
9	287	769.819561208851	18.786826991228
9	288	777.686870469488	25.608878757939
9	295	788.259728809927	5.138214837386
9	296	797.433564636137	10.434702372517
9	297	800.690172672301	12.932260112672
9	300	806.774811411294	2.116550342905
9	306	816.533216228953	2.815072157468
9	309	824.473592586999	7.427678852172
9	332	868.964618453252	33.522765504707
9	333	869.271175874539	33.453949068466
9	334	874.720278167116	37.330199332237
9	340	888.523763677639	29.170572619438
9	343	896.648292267654	17.122234132803
9	344	896.875884098432	17.232575506735
9	350	906.906536713674	7.426781521785
9	353	912.742354055113	11.31324304675
9	354	915.534325517506	2.863496588834
9	357	921.118397500429	0.035396396641
9	362	924.496180879518	2.00097458274
9	365	929.794636601675	5.368390066488
9	366	933.042202528224	8.214991975185
9	369	942.041166092144	0.39797305983
9	372	964.914781157961	12.599781173563
9	380	988.422303730471	11.856689412812
9	381	990.259809268812	11.058085285513
9	384	995.02619450806	1.791840298897
9	413	1077.617886482444	39.80017244061
9	414	1081.231894826406	26.368121759116
9	417	1081.835626191236	19.349387314279
9	435	1118.521197296672	36.739278444575
9	436	1126.244680842597	40.39941033449
9	437	1136.576780614876	42.796537378881
9	444	1145.482419131244	44.563635491988
9	461	1185.267886015871	67.682310599357
9	462	1186.617553086987	46.419605658424
9	467	1200.21348770636	56.968160650275
9	470	1209.956817819446	64.945017866934
9	471	1215.524096144237	64.91529190864
9	472	1223.660348909244	63.625670485611
9	475	1233.162495359223	71.924866986488
9	476	1233.680397034085	62.658419587446
9	477	1234.570081701659	59.735718281286
9	478	1237.597402196498	60.138604150077
9	479	1237.955298978711	53.119752158369
9	480	1239.710368672449	40.466654223836
9	484	1247.483301674479	45.749419010332
9	485	1251.463546113947	24.80771102003
9	495	1299.691913868785	47.21976694009
9	498	1310.22547338382	56.993086169143
9	499	1310.445269992119	47.144940061931
9	500	1310.638473172058	40.450365563996
9	501	1313.975896973399	12.280821248717
9	504	1321.835192412482	2.228481796613
9	515	1336.785715574344	13.564322380857
9	518	1342.086506316597	16.251862441305
9	521	1350.307576397436	23.93183045189
9	545	1415.614724712754	70.048494489417
9	546	1416.275868710478	62.058811897762
9	547	1418.728138947655	64.069918433478
9	548	1425.427622217609	60.673970047021
9	549	1428.284533205688	45.417388522861
9	550	1430.837962913575	45.221713487055
9	551	1439.329926698024	53.456205480435
9	569	1469.262370310239	24.86242303593
9	570	1469.512034807084	18.434789634865
9	571	1472.742100028779	18.444792364498
9	572	1479.476972669178	18.604329465596
9	578	1490.961632786442	11.019775137763
9	579	1492.034274906136	10.797248080114
9	595	1524.529721075708	19.072352683845
9	598	1535.292107684977	23.368249581767
9	601	1544.988131306383	25.342231142955
9	604	1563.628617524701	31.027365936612
9	605	1569.626355376633	29.686512688499
9	606	1569.815471961165	23.121174638562
9	615	1594.16679292442	2.872698429006
9	618	1600.569920679216	0.958349479879
9	621	1616.991263369049	1.753032274212
9	626	1619.432127219974	2.42340084592
9	627	1623.574777703256	4.771110592169
9	634	1657.83396076265	3.512961423356
9	635	1660.500402456807	5.970269678599
9	636	1662.815675782623	7.784332760306
9	644	1683.692439738879	15.572967747392
9	647	1691.301311011143	11.123897475913
9	674	1724.32784108324	31.88713871457
9	683	1732.161889222841	27.6178122511
9	684	1737.764548203463	25.789173686725
9	690	1742.071468873626	23.512102048804
9	699	1756.249739677449	31.601416434659
9	705	1761.241189163882	30.642291486225
9	714	1782.08327492236	43.465646661504
9	715	1782.569413385291	38.221619462464
9	765	1870.496509685223	113.42209140001
9	766	1874.090267961827	116.30663792075
9	767	1876.606228740629	113.20630290493
9	787	1926.76840191812	143.5516891787
9	790	1936.824434732136	147.96001141294
9	791	1942.385791370296	150.73947484537
9	792	1945.592210000105	149.57352860189
9	795	1958.183760520697	146.7897034664
9	804	1970.855730623798	150.38507074967
9	805	1979.13382360337	155.6291218781
9	808	1995.437606006641	170.66099460839
9	812	1998.882989420967	145.8625634028
9	813	2010.001123732315	147.21919518325
9	822	2021.452640538468	154.91163851943
9	823	2021.465141402512	153.3538009226
9	824	2023.75432459772	140.70514323001
9	825	2026.581077108315	142.39928058697
9	858	2086.85615214953	160.33651200095
9	859	2091.820445286768	160.93032315643
9	860	2092.580880071236	142.34237277191
9	863	2094.963942876033	135.27761822517
9	864	2096.047379880513	130.40211417653
9	870	2104.892770232869	109.17982071313
9	871	2105.147455418439	94.84174668795
9	872	2109.763464604242	96.227609087991
9	876	2115.755019533674	82.177979456655
9	893	2157.888125853529	109.41703733329
9	894	2158.057438756286	100.13412122753
9	895	2159.188897398062	95.67009643625
9	898	2161.5376486181	92.648760833026
9	902	2171.59884377946	90.502836466605
9	905	2175.369444547839	81.993623784204
9	906	2176.28797897898	80.139660800309
9	907	2180.536774202044	78.577014018738
9	908	2190.239210702792	79.988312400257
9	909	2193.451137319241	77.136873744971
9	920	2219.15980523106	91.916194588573
9	928	2226.521385213586	78.225346257617
9	929	2228.714194860008	78.719979409164
9	935	2237.761077360939	77.510210002759
9	936	2239.500689486178	76.964834370886
9	937	2242.632999873613	70.917953734607
9	946	2265.507667773048	70.02333414567
9	949	2270.768714623558	60.497015645299
9	950	2271.729408988717	55.820171682523
9	976	2310.75208866475	86.095802845413
9	979	2317.364263003651	82.761408121128
9	980	2320.480169351119	85.656925443639
9	981	2320.943714998407	64.05391920208
9	982	2327.977632133395	65.229617874863
9	985	2343.578361443695	78.788337793768
9	986	2347.610763004494	82.56220365177
9	987	2350.259449894301	80.496755669714
9	988	2353.341567701087	81.191364987723
9	989	2357.664541780395	85.246356050948
9	990	2360.403586668725	83.501142571478
9	993	2367.481763790048	75.472145282912
9	998	2382.143148444107	87.929666268741
9	999	2382.166666577489	87.4462736206
9	1000	2385.644077072839	89.060759008473
9	1001	2387.113503235305	89.412358733107
9	1002	2390.354825646381	87.299575602687
9	1005	2396.276492108586	90.40211679937
9	1024	2435.820723049501	94.899788868267
9	1032	2448.006701037494	78.462496417751
9	1040	2456.764882248581	63.640987011737
9	1044	2464.25472873571	61.181620279545
9	1045	2464.733330054058	52.820198692873
9	1046	2465.489642975706	53.248261173449
9	1049	2467.999493502582	31.410510209088
9	1052	2472.066180913423	34.661139007408
9	1053	2476.376045669744	36.377994309665
9	1054	2476.486232390201	27.429782657408
9	1062	2493.33076603623	38.440060917365
9	1063	2495.545009119283	38.630004749205
9	1064	2498.874430940676	32.665229615315
10	153	436.114629776888	7
10	196	519.131660745384	8
10	220	592.360836225431	9
10	225	621.482739564962	10
10	256	692.35140995363	11
10	304	813.718144071485	12
10	338	879.643308591697	13
10	346	899.479755191889	14
10	376	976.565614317659	15
10	419	1085.845270508107	16
10	424	1100.918783639256	17
10	450	1161.237628372735	18
10	457	1177.458798046421	19
10	482	1243.026575003035	20
10	487	1252.472146928695	21
10	525	1354.658220514177	22
10	533	1382.867144682827	23
10	543	1406.293757776049	24
10	553	1442.295449873716	25
10	565	1460.872643203582	26
10	576	1481.237026826022	27
10	591	1511.92385810321	28
10	610	1581.533932958997	29
10	613	1591.294094495414	30
10	649	1692.44070236867	31
10	678	1725.971570480458	32
10	681	1730.598897677657	33
10	686	1738.198745412658	34
10	692	1744.347793922827	35
10	703	1757.78363004108	36
10	707	1763.399925835698	37
10	719	1788.864423319195	38
10	773	1884.986909974073	39
10	797	1959.686324650859	40
10	810	1995.712949519735	41
10	815	2010.305708730489	42
10	827	2033.511827931655	43
10	850	2072.729029228804	44
10	856	2081.096007312855	45
10	868	2101.959760183306	46
10	874	2110.250898302535	47
10	878	2116.31426357427	48
10	889	2149.994215450844	49
10	900	2162.535855115292	50
10	911	2195.484333627378	51
10	922	2220.180729233857	52
10	933	2234.82324390748	53
10	952	2272.150202713364	54
10	961	2294.213482175366	55
10	1009	2403.073108456165	56
10	1026	2436.588983293494	57
10	1034	2449.056449732793	58
10	1042	2456.915004370078	59
10	1058	2480.556299264915	60
11	1065	2500	0.0916
12	1065	2500	0.0492

