version 2
run experiments_hard_game_mode1-526-20230311-19:41:13-7325
attr configname experiments_hard_game_mode1
attr datetime 20230311-19:41:13
attr experiment experiments_hard_game_mode1
attr inifile omnetpp.ini
attr iterationvars "$0=8, $1=6, $2=100"
attr iterationvarsf 8,6,100-
attr measurement "$0=8, $1=6, $2=100"
attr network Network
attr processid 7325
attr repetition 16
attr replication #16
attr resultdir results
attr runnumber 526
attr seedset 16
param *.boss.arrival_mean 20
param *.boss.service_mean 8
param *.minion.arrival_mean 10
param *.minion.service_mean 6
param *.player.recover_rate_x 100
param **.minion.arrival_distribution 0
param **.minion.service_distribution 0
param **.boss.arrival_distribution 0
param **.boss.service_distribution 0

vector 0 Network.player boss_defeated_stat:vector ETV
attr source signal_boss_defeated
vector 1 Network.player boss_jobs_queue_number_stat:vector ETV
attr source signal_boss_jobs_queue_number
vector 2 Network.player boss_response_time_stat:vector ETV
attr source signal_boss_response_time
vector 3 Network.player boss_waiting_time_stat:vector ETV
attr source signal_boss_waiting_time
vector 4 Network.player minion_waiting_time_stat:vector ETV
attr source signal_minion_waiting_time
vector 5 Network.player minion_defeated_stat:vector ETV
attr source signal_minion_defeated
vector 6 Network.player minion_jobs_queue_number_stat:vector ETV
attr source signal_minion_jobs_queue_number
vector 7 Network.player minion_response_time_stat:vector ETV
attr source signal_minion_response_time
vector 8 Network.player minion_jobs_number_stat:vector ETV
attr source signal_minion_jobs_number
vector 9 Network.player boss_jobs_number_stat:vector ETV
attr source signal_boss_jobs_number
vector 10 Network.player minion_recovered_stat:vector ETV
attr source signal_minion_recovered
vector 11 Network.player minion_throughput:vector ETV
attr source signal_minion_throughput
vector 12 Network.player boss_throughput:vector ETV
attr source signal_boss_throughput
0	150	360.967314227729	21
0	151	362.615025097629	22
0	159	376.30829615987	23
0	166	390.491749254324	24
0	169	394.871396287645	25
0	177	401.534668942523	26
0	180	404.562256197206	27
0	185	410.600391421957	28
0	194	426.476984523455	29
0	201	436.874554385356	30
0	221	480.153650865183	31
0	244	529.762325530981	32
0	245	532.141414183759	33
0	246	543.451563818487	34
0	247	543.54097452547	35
0	267	570.361150990369	36
0	285	593.470406046235	37
0	301	635.49253227028	38
0	309	657.969565811836	39
0	318	672.715748755741	40
0	319	673.068942042406	41
0	324	682.830616936413	42
0	335	707.640923127499	43
0	340	712.780927613306	44
0	343	716.836622821883	45
0	344	724.998897325017	46
0	358	759.753558858792	47
0	363	768.723491550631	48
0	366	770.843688273857	49
0	371	775.243695303217	50
0	378	785.756566542244	51
0	392	818.942183749513	52
0	401	825.36548446363	53
0	404	830.711002201857	54
0	407	840.572055708373	55
0	412	843.077963630347	56
0	429	867.611418297637	57
0	430	871.052684811621	58
0	433	878.421599756276	59
0	434	878.884271357497	60
0	441	883.00095367005	61
0	444	895.982825212588	62
0	445	899.489999202113	63
0	452	931.095649817275	64
0	453	944.558753377672	65
0	456	962.173498690781	66
0	457	964.99999337792	67
0	458	965.815478277021	68
0	462	979.124846698447	69
0	465	982.588205118618	70
0	480	1010.632868469104	71
0	491	1030.161799584056	72
0	494	1031.782602485916	73
0	495	1032.129272397029	74
0	498	1042.544819843919	75
0	501	1053.029928284152	76
0	504	1063.601177329456	77
0	511	1072.720466806167	78
0	512	1073.098373620017	79
0	518	1083.792950419841	80
0	537	1113.659632602615	81
0	542	1130.100266771857	82
0	543	1133.803455519924	83
0	544	1139.244604627009	84
0	559	1178.349216229433	85
0	614	1272.782800998997	86
0	615	1275.343679548584	87
0	623	1293.616729193184	88
0	652	1354.798132795026	89
0	676	1382.320713121868	90
0	677	1385.231142607748	91
0	686	1408.452644727913	92
0	687	1409.648555826	93
0	690	1414.272640759909	94
0	695	1443.820516021137	95
0	696	1446.646613750041	96
0	704	1473.31836756454	97
0	715	1493.963122331987	98
0	716	1511.953338675348	99
0	721	1530.720186370004	100
0	722	1534.218361512692	101
0	725	1544.396795345373	102
0	752	1609.941068651253	103
0	753	1615.994504330051	104
0	754	1620.087614183827	105
0	762	1641.874462878015	106
0	770	1659.247697352435	107
0	778	1678.899292702262	108
0	779	1683.64494314486	109
0	791	1704.444969169232	110
0	815	1754.084622942021	111
0	816	1757.821305167872	112
0	830	1780.241032385272	113
0	837	1803.660434445333	114
0	838	1805.853865759293	115
0	869	1898.493417854797	116
0	872	1907.517888795916	117
0	875	1908.450119941454	118
0	876	1912.935603386484	119
0	877	1917.483622747387	120
0	882	1928.405219206467	121
0	888	1950.396266638814	122
0	891	1951.93946422928	123
0	901	1961.285485741049	124
0	909	1981.459043332323	125
0	916	1994.179139707114	126
0	928	2025.184094073389	127
0	933	2026.717906405236	128
0	934	2034.845642115879	129
0	937	2038.925681846175	130
0	965	2101.853048485391	131
0	966	2102.04777776305	132
0	973	2108.03482605634	133
0	974	2108.875840582507	134
0	975	2111.123569328162	135
0	986	2130.219383923368	136
0	987	2130.450232036519	137
0	992	2139.833271975073	138
0	995	2149.219844151681	139
0	1004	2183.379702724969	140
0	1007	2189.198113518506	141
0	1022	2210.90581559954	142
0	1027	2222.6628823257	143
0	1028	2226.369519739146	144
0	1051	2252.894961671028	145
0	1065	2296.714590680487	146
0	1073	2315.835446387636	147
0	1119	2384.364377969959	148
0	1126	2399.208381439617	149
0	1132	2415.057103276762	150
0	1143	2428.793372777776	151
0	1155	2454.100805280356	152
0	1162	2456.689129370036	153
0	1165	2461.684208442605	154
1	150	360.967314227729	1
1	151	362.615025097629	0
1	158	369.138949755894	0
1	159	376.30829615987	0
1	165	385.453117749827	0
1	166	390.491749254324	0
1	168	392.547813056844	0
1	169	394.871396287645	0
1	174	400.238876986431	0
1	176	400.875830780534	1
1	177	401.534668942523	1
1	179	402.148108483634	1
1	180	404.562256197206	1
1	185	410.600391421957	0
1	193	424.812540692519	0
1	194	426.476984523455	0
1	198	429.941475816797	0
1	201	436.874554385356	0
1	216	476.703449272382	0
1	221	480.153650865183	0
1	225	483.215547513179	0
1	231	497.665056686089	1
1	237	502.518415000999	2
1	241	518.010136143749	3
1	244	529.762325530981	3
1	245	532.141414183759	2
1	246	543.451563818487	1
1	247	543.54097452547	0
1	262	567.422534967774	0
1	267	570.361150990369	0
1	284	589.254921646886	0
1	285	593.470406046235	0
1	300	633.612335763276	0
1	301	635.49253227028	0
1	306	653.717876567391	0
1	308	656.162405383807	1
1	309	657.969565811836	1
1	311	664.883556027538	1
1	313	665.805119266422	2
1	315	666.345196335487	3
1	318	672.715748755741	3
1	319	673.068942042406	2
1	323	681.955333536092	2
1	324	682.830616936413	2
1	326	685.56874799801	2
1	335	707.640923127499	2
1	339	711.427100791882	2
1	340	712.780927613306	2
1	343	716.836622821883	1
1	344	724.998897325017	0
1	355	753.719190786411	0
1	357	758.457762291243	1
1	358	759.753558858792	1
1	360	759.862359115068	1
1	363	768.723491550631	1
1	366	770.843688273857	0
1	370	773.592507289388	0
1	371	775.243695303217	0
1	375	782.804215248613	0
1	378	785.756566542244	0
1	389	812.083228163358	0
1	391	814.53789680283	1
1	392	818.942183749513	1
1	396	821.314613689265	1
1	398	823.339640693145	2
1	400	824.380758877111	3
1	401	825.36548446363	3
1	403	826.130509309885	3
1	404	830.711002201857	3
1	406	840.108369561828	3
1	407	840.572055708373	3
1	411	841.927159132011	3
1	412	843.077963630347	3
1	414	843.753911163271	3
1	418	844.204056085925	4
1	420	844.767347024862	5
1	429	867.611418297637	5
1	430	871.052684811621	4
1	432	874.251744450862	4
1	433	878.421599756276	4
1	434	878.884271357497	3
1	438	881.630829256108	3
1	440	882.640125728282	4
1	441	883.00095367005	4
1	443	895.753310537335	4
1	444	895.982825212588	4
1	445	899.489999202113	3
1	447	908.271428453241	3
1	449	916.148443900527	4
1	452	931.095649817275	4
1	453	944.558753377672	3
1	456	962.173498690781	2
1	457	964.99999337792	1
1	458	965.815478277021	0
1	461	972.831961978536	0
1	462	979.124846698447	0
1	464	979.360375048207	0
1	465	982.588205118618	0
1	469	984.240373431469	0
1	473	994.891896571427	1
1	477	1003.858883076407	2
1	480	1010.632868469104	2
1	482	1015.591232681327	2
1	484	1016.22762365404	3
1	491	1030.161799584056	3
1	494	1031.782602485916	2
1	495	1032.129272397029	1
1	497	1037.619457588496	1
1	498	1042.544819843919	1
1	500	1044.868849600906	1
1	501	1053.029928284152	1
1	504	1063.601177329456	0
1	506	1065.665815288377	0
1	510	1069.837508154843	1
1	511	1072.720466806167	1
1	512	1073.098373620017	0
1	517	1083.0195610608	0
1	518	1083.792950419841	0
1	520	1085.716712364398	0
1	526	1091.165896348159	1
1	530	1101.862008106945	2
1	534	1110.640880361671	3
1	537	1113.659632602615	3
1	542	1130.100266771857	2
1	543	1133.803455519924	1
1	544	1139.244604627009	0
1	558	1168.530077245097	0
1	559	1178.349216229433	0
1	609	1268.922055384295	0
1	611	1269.704014982941	1
1	614	1272.782800998997	1
1	615	1275.343679548584	0
1	622	1289.557095687291	0
1	623	1293.616729193184	0
1	651	1352.506855732944	0
1	652	1354.798132795026	0
1	665	1370.404388530883	0
1	669	1373.105114693269	1
1	671	1380.113067217977	2
1	675	1381.736131665	3
1	676	1382.320713121868	3
1	677	1385.231142607748	2
1	683	1398.191573523998	2
1	685	1401.824001929381	3
1	686	1408.452644727913	3
1	687	1409.648555826	2
1	689	1411.331822722844	2
1	690	1414.272640759909	2
1	695	1443.820516021137	1
1	696	1446.646613750041	0
1	703	1473.250787678847	0
1	704	1473.31836756454	0
1	708	1484.54545862394	0
1	710	1490.786627567511	1
1	715	1493.963122331987	1
1	716	1511.953338675348	0
1	718	1515.939404877614	0
1	720	1518.058639666684	1
1	721	1530.720186370004	1
1	722	1534.218361512692	0
1	724	1541.328091502649	0
1	725	1544.396795345373	0
1	739	1588.998828454145	0
1	747	1591.826544490865	1
1	751	1607.947249559554	2
1	752	1609.941068651253	2
1	753	1615.994504330051	1
1	754	1620.087614183827	0
1	759	1626.570445940533	0
1	762	1641.874462878015	0
1	769	1654.192015298371	0
1	770	1659.247697352435	0
1	775	1674.039597021772	0
1	777	1676.296778732605	1
1	778	1678.899292702262	1
1	779	1683.64494314486	0
1	790	1704.085550962152	0
1	791	1704.444969169232	0
1	802	1734.959901667771	0
1	808	1750.512206608145	1
1	815	1754.084622942021	1
1	816	1757.821305167872	0
1	825	1772.016630625158	0
1	830	1780.241032385272	0
1	832	1784.953323999097	0
1	834	1793.940302291954	1
1	837	1803.660434445333	1
1	838	1805.853865759293	0
1	856	1863.116674614531	0
1	862	1884.1048210951	1
1	864	1886.579840852465	2
1	868	1891.821254052115	3
1	869	1898.493417854797	3
1	871	1901.129284237924	3
1	872	1907.517888795916	3
1	875	1908.450119941454	2
1	876	1912.935603386484	1
1	877	1917.483622747387	0
1	881	1926.365454818449	0
1	882	1928.405219206467	0
1	887	1944.433785012692	0
1	888	1950.396266638814	0
1	890	1950.622018393725	0
1	891	1951.93946422928	0
1	896	1957.125124651231	0
1	901	1961.285485741049	0
1	906	1976.624516113971	0
1	908	1977.707499429506	1
1	909	1981.459043332323	1
1	916	1994.179139707114	0
1	923	2011.380908373739	0
1	927	2024.89113310012	1
1	928	2025.184094073389	1
1	930	2025.694562311325	1
1	933	2026.717906405236	1
1	934	2034.845642115879	0
1	936	2037.032684837172	0
1	937	2038.925681846175	0
1	946	2054.92630997997	0
1	950	2066.558161474897	1
1	958	2074.312271274971	2
1	962	2085.148294294305	3
1	964	2099.473183195357	4
1	965	2101.853048485391	4
1	966	2102.04777776305	3
1	968	2102.146138877737	3
1	973	2108.03482605634	3
1	974	2108.875840582507	2
1	975	2111.123569328162	1
1	977	2116.145782370907	1
1	979	2121.486056362826	2
1	983	2128.938193055579	3
1	986	2130.219383923368	3
1	987	2130.450232036519	2
1	989	2138.670385373158	2
1	992	2139.833271975073	2
1	995	2149.219844151681	1
1	1004	2183.379702724969	0
1	1006	2186.38555087349	0
1	1007	2189.198113518506	0
1	1015	2196.988326593044	0
1	1021	2203.396636789965	1
1	1022	2210.90581559954	1
1	1024	2217.082690419149	1
1	1027	2222.6628823257	1
1	1028	2226.369519739146	0
1	1050	2251.232106227058	0
1	1051	2252.894961671028	0
1	1064	2294.752183040791	0
1	1065	2296.714590680487	0
1	1072	2310.846390442859	0
1	1073	2315.835446387636	0
1	1114	2378.277617112147	0
1	1119	2384.364377969959	0
1	1125	2399.108451542096	0
1	1126	2399.208381439617	0
1	1131	2403.159387325714	0
1	1132	2415.057103276762	0
1	1142	2427.431392732234	0
1	1143	2428.793372777776	0
1	1152	2444.598988443805	0
1	1155	2454.100805280356	0
1	1157	2455.21295102021	0
1	1162	2456.689129370036	0
1	1164	2458.382625969776	0
1	1165	2461.684208442605	0
2	150	360.967314227729	30.189783967382
2	151	362.615025097629	28.809075969394
2	159	376.30829615987	7.169346403976
2	166	390.491749254324	5.038631504497
2	169	394.871396287645	2.323583230801
2	177	401.534668942523	1.295791956092
2	180	404.562256197206	3.686425416672
2	185	410.600391421957	8.452282938323
2	194	426.476984523455	1.664443830936
2	201	436.874554385356	6.933078568559
2	221	480.153650865183	3.450201592801
2	244	529.762325530981	46.546778017802
2	245	532.141414183759	34.47635749767
2	246	543.451563818487	40.933148817488
2	247	543.54097452547	25.530838381721
2	267	570.361150990369	2.938616022595
2	285	593.470406046235	4.215484399349
2	301	635.49253227028	1.880196507004
2	309	657.969565811836	4.251689244445
2	318	672.715748755741	16.553343371934
2	319	673.068942042406	8.185386014868
2	324	682.830616936413	17.025497669991
2	335	707.640923127499	41.295726792012
2	340	712.780927613306	30.825594077214
2	343	716.836622821883	31.267874823873
2	344	724.998897325017	13.571796533135
2	358	759.753558858792	6.034368072381
2	363	768.723491550631	10.265729259388
2	366	770.843688273857	10.981329158789
2	371	775.243695303217	1.651188013829
2	378	785.756566542244	2.952351293631
2	392	818.942183749513	6.858955586155
2	401	825.36548446363	10.8275876608
2	404	830.711002201857	9.396388512592
2	407	840.572055708373	17.232415015228
2	412	843.077963630347	18.697204753236
2	429	867.611418297637	41.480908987752
2	430	871.052684811621	30.944315249793
2	433	878.421599756276	36.494440624265
2	434	878.884271357497	35.130360194226
2	441	883.00095367005	38.796897584125
2	444	895.982825212588	51.215478187726
2	445	899.489999202113	25.238254751251
2	452	931.095649817275	49.464820561167
2	453	944.558753377672	61.91862764939
2	456	962.173498690781	66.420188153446
2	457	964.99999337792	56.728564924679
2	458	965.815478277021	49.667034376494
2	462	979.124846698447	6.292884719911
2	465	982.588205118618	3.227830070411
2	480	1010.632868469104	26.392495037635
2	491	1030.161799584056	35.269903012629
2	494	1031.782602485916	27.923719409509
2	495	1032.129272397029	16.538039715702
2	498	1042.544819843919	26.317196189879
2	501	1053.029928284152	15.410470695656
2	504	1063.601177329456	18.73232772855
2	511	1072.720466806167	7.05465151779
2	512	1073.098373620017	3.260865465174
2	518	1083.792950419841	0.773389359041
2	537	1113.659632602615	27.942920238217
2	542	1130.100266771857	38.934370423698
2	543	1133.803455519924	31.941447412979
2	544	1139.244604627009	28.603724265338
2	559	1178.349216229433	9.819138984336
2	614	1272.782800998997	3.860745614702
2	615	1275.343679548584	5.639664565643
2	623	1293.616729193184	4.059633505893
2	652	1354.798132795026	2.291277062082
2	676	1382.320713121868	11.916324590985
2	677	1385.231142607748	12.126027914479
2	686	1408.452644727913	28.339577509936
2	687	1409.648555826	27.912424161
2	690	1414.272640759909	16.081067235911
2	695	1443.820516021137	41.996514091756
2	696	1446.646613750041	35.314791027197
2	704	1473.31836756454	0.067579885693
2	715	1493.963122331987	9.417663708047
2	716	1511.953338675348	21.166711107837
2	721	1530.720186370004	14.78078149239
2	722	1534.218361512692	16.159721846008
2	725	1544.396795345373	3.068703842724
2	752	1609.941068651253	20.942240197108
2	753	1615.994504330051	24.167959839186
2	754	1620.087614183827	12.140364624273
2	762	1641.874462878015	15.304016937482
2	770	1659.247697352435	5.055682054064
2	778	1678.899292702262	4.85969568049
2	779	1683.64494314486	7.348164412255
2	791	1704.444969169232	0.35941820708
2	815	1754.084622942021	19.12472127425
2	816	1757.821305167872	7.309098559727
2	830	1780.241032385272	8.224401760114
2	837	1803.660434445333	18.707110446236
2	838	1805.853865759293	11.913563467339
2	869	1898.493417854797	35.376743240266
2	872	1907.517888795916	23.413067700816
2	875	1908.450119941454	21.870279088989
2	876	1912.935603386484	21.114349334369
2	877	1917.483622747387	16.354338509463
2	882	1928.405219206467	2.039764388018
2	888	1950.396266638814	5.962481626122
2	891	1951.93946422928	1.317445835555
2	901	1961.285485741049	4.160361089818
2	909	1981.459043332323	4.834527218352
2	916	1994.179139707114	16.471640277608
2	928	2025.184094073389	13.80318569965
2	933	2026.717906405236	1.826773305116
2	934	2034.845642115879	9.151079804554
2	937	2038.925681846175	1.892997009003
2	965	2101.853048485391	46.926738505421
2	966	2102.04777776305	35.489616288153
2	973	2108.03482605634	33.722554781369
2	974	2108.875840582507	23.727546288202
2	975	2111.123569328162	11.650386132805
2	986	2130.219383923368	28.073245045631
2	987	2130.450232036519	14.304449665612
2	992	2139.833271975073	18.347215612247
2	995	2149.219844151681	20.281651096102
2	1004	2183.379702724969	44.709317351811
2	1007	2189.198113518506	2.812562645016
2	1022	2210.90581559954	13.917489006496
2	1027	2222.6628823257	19.266245535735
2	1028	2226.369519739146	9.286829319997
2	1051	2252.894961671028	1.66285544397
2	1065	2296.714590680487	1.962407639696
2	1073	2315.835446387636	4.989055944777
2	1119	2384.364377969959	6.086760857812
2	1126	2399.208381439617	0.099929897521
2	1132	2415.057103276762	11.897715951048
2	1143	2428.793372777776	1.361980045542
2	1155	2454.100805280356	9.501816836551
2	1162	2456.689129370036	1.476178349826
2	1165	2461.684208442605	3.301582472829
3	150	360.967314227729	27.161365099494
3	158	369.138949755894	0
3	165	385.453117749827	0
3	168	392.547813056844	0
3	174	400.238876986431	0
3	177	401.534668942523	0.658838161989
3	180	404.562256197206	2.414147713572
3	193	424.812540692519	0
3	198	429.941475816797	0
3	216	476.703449272382	0
3	225	483.215547513179	0
3	244	529.762325530981	32.097268844892
3	245	532.141414183759	29.62299918276
3	246	543.451563818487	25.441427674738
3	262	567.422534967774	0
3	284	589.254921646886	0
3	300	633.612335763276	0
3	306	653.717876567391	0
3	309	657.969565811836	1.807160428029
3	318	672.715748755741	7.832192728203
3	319	673.068942042406	7.263822775984
3	324	682.830616936413	16.485420600926
3	335	707.640923127499	25.685589591407
3	340	712.780927613306	27.212179615296
3	343	716.836622821883	5.409522030001
3	355	753.719190786411	0
3	358	759.753558858792	1.295796567549
3	363	768.723491550631	8.861132435563
3	370	773.592507289388	0
3	375	782.804215248613	0
3	389	812.083228163358	0
3	392	818.942183749513	4.404286946683
3	401	825.36548446363	4.050870774365
3	404	830.711002201857	7.371361508712
3	407	840.572055708373	16.191296831262
3	412	843.077963630347	16.947454320462
3	429	867.611418297637	27.503048735809
3	430	871.052684811621	29.12552567961
3	433	878.421599756276	34.667688593005
3	434	878.884271357497	34.680215271572
3	441	883.00095367005	38.233606645188
3	444	895.982825212588	21.731080761726
3	445	899.489999202113	17.859169946005
3	452	931.095649817275	48.455524088993
3	453	944.558753377672	48.805442840337
3	456	962.173498690781	53.90207023754
3	457	964.99999337792	48.851549477393
3	461	972.831961978536	0
3	464	979.360375048207	0
3	469	984.240373431469	0
3	480	1010.632868469104	15.740971897677
3	491	1030.161799584056	26.302916507649
3	494	1031.782602485916	16.191369804589
3	495	1032.129272397029	15.901648742989
3	498	1042.544819843919	4.925362255423
3	501	1053.029928284152	8.161078683246
3	506	1065.665815288377	0
3	511	1072.720466806167	2.882958651324
3	517	1083.0195610608	0
3	520	1085.716712364398	0
3	537	1113.659632602615	22.493736254456
3	542	1130.100266771857	28.238258664912
3	543	1133.803455519924	23.162575158253
3	558	1168.530077245097	0
3	609	1268.922055384295	0
3	614	1272.782800998997	3.078786016056
3	622	1289.557095687291	0
3	651	1352.506855732944	0
3	665	1370.404388530883	0
3	676	1382.320713121868	9.215598428599
3	677	1385.231142607748	5.118075389771
3	686	1408.452644727913	26.716513062913
3	687	1409.648555826	11.456982302002
3	690	1414.272640759909	12.448638830528
3	695	1443.820516021137	32.488693298293
3	703	1473.250787678847	0
3	708	1484.54545862394	0
3	715	1493.963122331987	3.176494764476
3	718	1515.939404877614	0
3	721	1530.720186370004	12.66154670332
3	724	1541.328091502649	0
3	739	1588.998828454145	0
3	752	1609.941068651253	18.114524160388
3	753	1615.994504330051	8.047254770497
3	759	1626.570445940533	0
3	769	1654.192015298371	0
3	775	1674.039597021772	0
3	778	1678.899292702262	2.602513969657
3	790	1704.085550962152	0
3	802	1734.959901667771	0
3	815	1754.084622942021	3.572416333876
3	825	1772.016630625158	0
3	832	1784.953323999097	0
3	837	1803.660434445333	9.720132153379
3	856	1863.116674614531	0
3	869	1898.493417854797	14.388596759697
3	872	1907.517888795916	20.938047943451
3	875	1908.450119941454	16.628865889339
3	876	1912.935603386484	11.80631914856
3	881	1926.365454818449	0
3	887	1944.433785012692	0
3	890	1950.622018393725	0
3	896	1957.125124651231	0
3	906	1976.624516113971	0
3	909	1981.459043332323	3.751543902817
3	923	2011.380908373739	0
3	928	2025.184094073389	0.292960973269
3	933	2026.717906405236	1.023344093911
3	936	2037.032684837172	0
3	946	2054.92630997997	0
3	965	2101.853048485391	35.294887010494
3	966	2102.04777776305	27.735506488079
3	973	2108.03482605634	22.886531762035
3	974	2108.875840582507	9.40265738715
3	975	2111.123569328162	8.977430450425
3	986	2130.219383923368	14.073601552461
3	987	2130.450232036519	8.964175673693
3	992	2139.833271975073	10.895078919494
3	995	2149.219844151681	10.549458778523
3	1006	2186.38555087349	0
3	1015	2196.988326593044	0
3	1022	2210.90581559954	7.509178809575
3	1027	2222.6628823257	5.580191906551
3	1050	2251.232106227058	0
3	1064	2294.752183040791	0
3	1072	2310.846390442859	0
3	1114	2378.277617112147	0
3	1125	2399.108451542096	0
3	1131	2403.159387325714	0
3	1142	2427.431392732234	0
3	1152	2444.598988443805	0
3	1157	2455.21295102021	0
3	1164	2458.382625969776	0
4	151	362.615025097629	95.026031761238
4	152	363.479528953122	94.539614518456
4	159	376.30829615987	105.53334795084
4	160	381.254152694578	106.29417155536
4	161	383.387619223246	78.383202109031
4	166	390.491749254324	85.190188905157
4	169	394.871396287645	60.793989854509
4	172	395.891124759052	59.472407503892
4	185	410.600391421957	41.795736427157
4	186	411.757135787471	42.724139154333
4	191	419.809819860477	50.670870104583
4	194	426.476984523455	41.041711180803
4	195	429.344434613723	43.891316863896
4	196	429.417365191028	36.869552134184
4	201	436.874554385356	41.369617306129
4	202	437.957506465685	37.718629479254
4	203	442.020430511032	36.018287632099
4	206	447.587969732421	39.044105116338
4	207	448.224759317546	36.060321389297
4	208	453.920910753619	36.676345872792
4	213	469.673175085092	44.860634392573
4	214	476.270434857164	46.328959040367
4	221	480.153650865183	45.083828224148
4	247	543.54097452547	98.80843982946
4	248	545.033831771982	89.599612724128
4	249	548.40995874682	92.95623574181
4	250	549.043509118253	72.340059845871
4	255	551.75609229566	73.408876017459
4	258	558.668096699342	79.957663528618
4	267	570.361150990369	89.846098850297
4	272	577.848806525226	94.633259012047
4	279	582.683943161272	97.440180876116
4	280	583.365821165707	86.935089786811
4	285	593.470406046235	94.600541635281
4	286	597.120385242499	96.27120048988
4	289	611.70018193947	105.66165505309
4	290	612.379974459766	83.347422727576
4	293	616.85910816384	67.72783941133
4	294	621.422175296271	71.593144882097
4	295	625.341028304169	72.558572189274
4	298	628.885382089754	70.000608810918
4	301	635.49253227028	68.069997302506
4	302	636.835898082884	68.752280875769
4	303	638.024556899909	69.641213398234
4	304	639.641570346438	68.684740796574
4	344	724.998897325017	148.07862411857
4	345	729.71798208651	150.4898829979
4	346	736.248050078209	156.22212286769
4	347	736.298930155909	154.3381269812
4	350	742.266526140924	158.83267444094
4	353	743.406987847363	154.15206620048
4	366	770.843688273857	165.46361742393
4	371	775.243695303217	158.88206490226
4	378	785.756566542244	158.26024622479
4	379	785.938934401804	152.32659863853
4	380	789.290164459642	135.57228789225
4	383	806.646342742752	137.72738698482
4	384	807.816832576756	134.18470604521
4	385	808.487728226908	115.75043491442
4	458	965.815478277021	272.89666759632
4	459	968.398410018868	270.18957013691
4	462	979.124846698447	276.56905648799
4	465	982.588205118618	271.88489768202
4	504	1063.601177329456	349.24470877914
4	512	1073.098373620017	335.47740766
4	515	1079.35661480658	336.23058196238
4	518	1083.792950419841	330.07375963343
4	544	1139.244604627009	373.8921663663
4	553	1155.277348044241	384.91440440293
4	554	1158.113089275711	385.52248307086
4	555	1158.576052271425	384.98354498204
4	556	1161.794785652913	380.78739227905
4	559	1178.349216229433	395.54500098082
4	560	1185.621025180486	400.10105252869
4	563	1188.36185738431	394.28103766731
4	566	1190.535967972125	380.15793709622
4	569	1192.979075020464	380.89584685711
4	574	1210.909886493312	390.76925059897
4	579	1214.083727854926	372.91751485764
4	584	1226.797343620351	382.75742254294
4	585	1228.224744896809	379.92214172891
4	586	1230.200118624322	380.49402144587
4	589	1233.372594286726	374.8518302402
4	592	1240.015593851842	378.68348543691
4	593	1240.600347498187	359.31445010413
4	594	1240.965131421933	314.27599692917
4	601	1253.233668372585	301.07448479267
4	602	1261.961473482799	289.12951150426
4	603	1263.235597048532	283.87522200032
4	604	1263.367142206927	279.75186790986
4	605	1265.786015283046	281.54564185158
4	615	1275.343679548584	289.8931069105
4	620	1276.79511235353	278.91128869396
4	623	1293.616729193184	288.36297319989
4	626	1297.246242270786	277.39903576812
4	627	1303.385675319693	277.47958769092
4	630	1304.857818428291	278.04211801023
4	631	1305.245156510644	274.49337116463
4	634	1307.170675315354	253.10782554382
4	635	1310.828755745028	245.16294045665
4	636	1314.756259730613	245.55693573709
4	637	1315.212599500084	238.30215628194
4	640	1322.39238999755	239.37282893675
4	641	1330.898922735195	245.1822103708
4	642	1334.129713556146	246.11321156009
4	649	1352.040459531219	262.98207404857
4	652	1354.798132795026	261.55277670842
4	655	1355.406626044487	245.41646177257
4	656	1355.713473717618	244.21822134234
4	659	1364.733738517943	245.68712390724
4	696	1446.646613750041	317.5984598243
4	701	1470.980372088753	330.05545967542
4	704	1473.31836756454	332.14196029621
4	705	1484.091860041164	338.88270296964
4	706	1484.279078748315	331.07041635488
4	716	1511.953338675348	343.42326143025
4	722	1534.218361512692	347.32573760401
4	725	1544.396795345373	355.0036582926
4	726	1544.840473908186	352.56894372056
4	727	1545.525611590108	348.04066513309
4	728	1546.192630947748	345.94510901751
4	731	1564.496060793909	352.18181614632
4	732	1570.025153349096	356.69093503461
4	733	1575.486420681261	360.74126066794
4	736	1584.407218329841	360.18998891442
4	737	1588.949497220745	356.91942172253
4	754	1620.087614183827	380.7628110644
4	755	1622.711247489885	380.78965508268
4	756	1623.77331902164	375.59075521008
4	757	1625.789686821978	375.80031516677
4	762	1641.874462878015	373.29081705279
4	763	1643.834127968644	374.91207258435
4	766	1649.474672330942	379.57148085389
4	767	1650.313571826867	374.61407058182
4	770	1659.247697352435	382.70860272387
4	773	1669.429328394473	379.87223270718
4	779	1683.64494314486	388.54153369242
4	780	1690.361167239169	385.75590551802
4	781	1691.810745542147	386.53489741932
4	782	1694.10616963364	378.46804178245
4	787	1700.637174319569	366.42119880666
4	788	1701.564413156886	365.34826660302
4	791	1704.444969169232	364.24258180708
4	792	1704.702976336811	352.19612060387
4	795	1711.440269136485	356.5098575142
4	796	1712.788965887768	352.20192585778
4	797	1719.545515565942	354.17309950519
4	798	1722.643437824852	354.22281442739
4	799	1723.696737880759	353.29234934988
4	800	1727.131423805304	356.344872903
4	816	1757.821305167872	376.51678532474
4	817	1758.42442367335	364.86172602096
4	818	1758.524384469739	364.14672107889
4	821	1764.421099367781	329.92479378448
4	822	1769.610610136501	333.97656008833
4	823	1770.428513047704	316.2719587835
4	830	1780.241032385272	322.72186241743
4	838	1805.853865759293	332.60307808045
4	845	1818.419224460239	333.8737658363
4	852	1850.080431469057	358.74887338601
4	853	1854.688936025915	362.89063359235
4	854	1858.4642786465	342.52487376889
4	877	1917.483622747387	376.15553124474
4	878	1922.459756976486	373.2976612546
4	879	1925.01012884744	343.45277277148
4	882	1928.405219206467	339.40639075232
4	883	1929.965468515927	340.83426592822
4	884	1939.460328554905	350.16616381204
4	885	1944.034801289654	353.32962499913
4	888	1950.396266638814	350.44025328875
4	891	1951.93946422928	325.36901828875
4	894	1955.6713662586	318.71438026973
4	901	1961.285485741049	313.14118135496
4	902	1961.387477703924	307.19546240555
4	903	1973.781719272174	307.55548593144
4	904	1975.064206858829	301.02460983706
4	916	1994.179139707114	299.52948159929
4	917	1999.574401708247	302.20293055259
4	918	2002.481695754544	298.39614479239
4	919	2005.496323795545	295.74461737652
4	934	2034.845642115879	299.88574044811
4	937	2038.925681846175	292.69562872385
4	938	2040.621379519716	290.45259786606
4	939	2043.588801077357	292.73403387136
4	942	2047.770065611434	295.84437116556
4	943	2053.59563207871	300.43845651212
4	944	2053.900155143704	294.34891319457
4	1004	2183.379702724969	411.36307209981
4	1007	2189.198113518506	413.27988163837
4	1012	2192.278065961019	412.69256734628
4	1013	2194.00346536226	409.05014136316
4	1028	2226.369519739146	425.54206848738
4	1029	2229.042693499583	420.06842841752
4	1030	2230.30555774738	416.83503681477
4	1031	2233.2760039686	415.7952565345
4	1036	2237.038221913776	408.9268770125
4	1043	2248.291465685556	416.25776144927
4	1046	2249.532857856968	417.22640908303
4	1051	2252.894961671028	389.7782870565
4	1054	2263.143837078221	391.98023221208
4	1055	2265.471872388431	392.24128614643
4	1060	2277.277608702357	388.10630567134
4	1061	2278.865460478806	370.47456405035
4	1062	2292.621983366431	366.25652854798
4	1065	2296.714590680487	352.28080566779
4	1066	2306.78462971679	356.16261132306
4	1073	2315.835446387636	362.68110456485
4	1076	2319.577455729465	362.45233107823
4	1083	2326.953735887294	368.99492867568
4	1088	2341.342651540774	382.55643992828
4	1103	2364.720730324719	388.09621421075
4	1106	2367.300671035271	385.18176102578
4	1109	2373.062189889668	384.8029588935
4	1112	2377.306597742029	388.05184560794
4	1119	2384.364377969959	374.94879943923
4	1120	2393.905269330195	382.52436095646
4	1123	2398.135964722294	378.45904335474
4	1126	2399.208381439617	373.00848847027
4	1129	2402.297812092174	365.265127255
4	1132	2415.057103276762	368.96156865168
4	1137	2420.664845542591	365.73853556262
4	1138	2422.891484932777	360.33166504651
4	1139	2424.045523525257	356.07474742343
4	1140	2426.821700175404	358.61451370988
4	1143	2428.793372777776	358.40262598163
4	1146	2437.762232289202	358.14842380323
4	1147	2439.583761920134	333.14943395927
4	1150	2443.610956922297	336.37176630023
4	1155	2454.100805280356	332.12139883937
4	1162	2456.689129370036	326.85271023199
4	1165	2461.684208442605	321.92905571027
4	1172	2468.951581251228	328.69194964172
4	1175	2480.626753993824	322.99933068982
4	1176	2492.691679608098	321.5957105928
4	1177	2493.096831775738	317.52650823881
4	1178	2494.424315940173	311.86194056368
5	152	363.479528953122	24
5	160	381.254152694578	25
5	161	383.387619223246	26
5	172	395.891124759052	27
5	186	411.757135787471	28
5	191	419.809819860477	29
5	195	429.344434613723	30
5	196	429.417365191028	31
5	202	437.957506465685	32
5	203	442.020430511032	33
5	206	447.587969732421	34
5	207	448.224759317546	35
5	208	453.920910753619	36
5	213	469.673175085092	37
5	214	476.270434857164	38
5	248	545.033831771982	39
5	249	548.40995874682	40
5	250	549.043509118253	41
5	255	551.75609229566	42
5	258	558.668096699342	43
5	272	577.848806525226	44
5	279	582.683943161272	45
5	280	583.365821165707	46
5	286	597.120385242499	47
5	289	611.70018193947	48
5	290	612.379974459766	49
5	293	616.85910816384	50
5	294	621.422175296271	51
5	295	625.341028304169	52
5	298	628.885382089754	53
5	302	636.835898082884	54
5	303	638.024556899909	55
5	304	639.641570346438	56
5	345	729.71798208651	57
5	346	736.248050078209	58
5	347	736.298930155909	59
5	350	742.266526140924	60
5	353	743.406987847363	61
5	379	785.938934401804	62
5	380	789.290164459642	63
5	383	806.646342742752	64
5	384	807.816832576756	65
5	385	808.487728226908	66
5	459	968.398410018868	67
5	515	1079.35661480658	68
5	553	1155.277348044241	69
5	554	1158.113089275711	70
5	555	1158.576052271425	71
5	556	1161.794785652913	72
5	560	1185.621025180486	73
5	563	1188.36185738431	74
5	566	1190.535967972125	75
5	569	1192.979075020464	76
5	574	1210.909886493312	77
5	579	1214.083727854926	78
5	584	1226.797343620351	79
5	585	1228.224744896809	80
5	586	1230.200118624322	81
5	589	1233.372594286726	82
5	592	1240.015593851842	83
5	593	1240.600347498187	84
5	594	1240.965131421933	85
5	601	1253.233668372585	86
5	602	1261.961473482799	87
5	603	1263.235597048532	88
5	604	1263.367142206927	89
5	605	1265.786015283046	90
5	620	1276.79511235353	91
5	626	1297.246242270786	92
5	627	1303.385675319693	93
5	630	1304.857818428291	94
5	631	1305.245156510644	95
5	634	1307.170675315354	96
5	635	1310.828755745028	97
5	636	1314.756259730613	98
5	637	1315.212599500084	99
5	640	1322.39238999755	100
5	641	1330.898922735195	101
5	642	1334.129713556146	102
5	649	1352.040459531219	103
5	655	1355.406626044487	104
5	656	1355.713473717618	105
5	659	1364.733738517943	106
5	701	1470.980372088753	107
5	705	1484.091860041164	108
5	706	1484.279078748315	109
5	726	1544.840473908186	110
5	727	1545.525611590108	111
5	728	1546.192630947748	112
5	731	1564.496060793909	113
5	732	1570.025153349096	114
5	733	1575.486420681261	115
5	736	1584.407218329841	116
5	737	1588.949497220745	117
5	755	1622.711247489885	118
5	756	1623.77331902164	119
5	757	1625.789686821978	120
5	763	1643.834127968644	121
5	766	1649.474672330942	122
5	767	1650.313571826867	123
5	773	1669.429328394473	124
5	780	1690.361167239169	125
5	781	1691.810745542147	126
5	782	1694.10616963364	127
5	787	1700.637174319569	128
5	788	1701.564413156886	129
5	792	1704.702976336811	130
5	795	1711.440269136485	131
5	796	1712.788965887768	132
5	797	1719.545515565942	133
5	798	1722.643437824852	134
5	799	1723.696737880759	135
5	800	1727.131423805304	136
5	817	1758.42442367335	137
5	818	1758.524384469739	138
5	821	1764.421099367781	139
5	822	1769.610610136501	140
5	823	1770.428513047704	141
5	845	1818.419224460239	142
5	852	1850.080431469057	143
5	853	1854.688936025915	144
5	854	1858.4642786465	145
5	878	1922.459756976486	146
5	879	1925.01012884744	147
5	883	1929.965468515927	148
5	884	1939.460328554905	149
5	885	1944.034801289654	150
5	894	1955.6713662586	151
5	902	1961.387477703924	152
5	903	1973.781719272174	153
5	904	1975.064206858829	154
5	917	1999.574401708247	155
5	918	2002.481695754544	156
5	919	2005.496323795545	157
5	938	2040.621379519716	158
5	939	2043.588801077357	159
5	942	2047.770065611434	160
5	943	2053.59563207871	161
5	944	2053.900155143704	162
5	1012	2192.278065961019	163
5	1013	2194.00346536226	164
5	1029	2229.042693499583	165
5	1030	2230.30555774738	166
5	1031	2233.2760039686	167
5	1036	2237.038221913776	168
5	1043	2248.291465685556	169
5	1046	2249.532857856968	170
5	1054	2263.143837078221	171
5	1055	2265.471872388431	172
5	1060	2277.277608702357	173
5	1061	2278.865460478806	174
5	1062	2292.621983366431	175
5	1066	2306.78462971679	176
5	1076	2319.577455729465	177
5	1083	2326.953735887294	178
5	1088	2341.342651540774	179
5	1103	2364.720730324719	180
5	1106	2367.300671035271	181
5	1109	2373.062189889668	182
5	1112	2377.306597742029	183
5	1120	2393.905269330195	184
5	1123	2398.135964722294	185
5	1129	2402.297812092174	186
5	1137	2420.664845542591	187
5	1138	2422.891484932777	188
5	1139	2424.045523525257	189
5	1140	2426.821700175404	190
5	1146	2437.762232289202	191
5	1147	2439.583761920134	192
5	1150	2443.610956922297	193
5	1172	2468.951581251228	194
5	1175	2480.626753993824	195
5	1176	2492.691679608098	196
5	1177	2493.096831775738	197
5	1178	2494.424315940173	198
6	152	363.479528953122	7
6	154	368.8046549948	7
6	156	369.032996633138	8
6	160	381.254152694578	8
6	161	383.387619223246	7
6	163	385.435273342652	7
6	171	395.504937079227	8
6	172	395.891124759052	8
6	182	406.002142878933	8
6	184	408.543864616083	9
6	186	411.757135787471	9
6	188	412.164437928249	9
6	190	417.244564880827	10
6	191	419.809819860477	10
6	195	429.344434613723	9
6	196	429.417365191028	8
6	200	435.069822641035	8
6	202	437.957506465685	8
6	203	442.020430511032	7
6	205	444.73253469601	7
6	206	447.587969732421	7
6	207	448.224759317546	6
6	208	453.920910753619	5
6	210	455.434219047854	5
6	212	455.45372300501	6
6	213	469.673175085092	6
6	214	476.270434857164	5
6	218	478.347216278201	5
6	220	478.710433170724	6
6	223	480.515052140072	7
6	227	485.243762285156	8
6	229	496.430731378896	9
6	233	498.869864410954	10
6	235	500.849184752619	11
6	239	506.038526886384	12
6	243	529.03255173219	13
6	248	545.033831771982	13
6	249	548.40995874682	12
6	250	549.043509118253	11
6	252	549.13126875251	11
6	254	549.829030414174	12
6	255	551.75609229566	12
6	257	552.782456114895	12
6	258	558.668096699342	12
6	260	558.884773278836	12
6	264	568.083617207115	13
6	266	568.383343501675	14
6	269	570.956829549864	15
6	271	576.920273206442	16
6	272	577.848806525226	16
6	274	579.228099088614	16
6	276	580.025927210517	17
6	278	581.960803174712	18
6	279	582.683943161272	18
6	280	583.365821165707	17
6	282	583.433851699979	17
6	286	597.120385242499	17
6	288	605.380070849932	17
6	289	611.70018193947	17
6	290	612.379974459766	16
6	292	616.36163040096	16
6	293	616.85910816384	16
6	294	621.422175296271	15
6	295	625.341028304169	14
6	297	627.496320317452	14
6	298	628.885382089754	14
6	302	636.835898082884	13
6	303	638.024556899909	12
6	304	639.641570346438	11
6	317	668.91895575793	11
6	321	673.632126531543	12
6	328	692.737293312491	13
6	330	692.918810680698	14
6	332	698.208839881957	15
6	334	702.555790210454	16
6	337	710.703307436593	17
6	342	714.356468550313	18
6	345	729.71798208651	18
6	346	736.248050078209	17
6	347	736.298930155909	16
6	349	737.620965960018	16
6	350	742.266526140924	16
6	352	743.1260328442	16
6	353	743.406987847363	16
6	362	765.352438260707	16
6	365	770.362943641312	17
6	368	772.590606204854	18
6	373	781.007393373859	19
6	377	785.519972651797	20
6	379	785.938934401804	20
6	380	789.290164459642	19
6	382	794.080819717003	19
6	383	806.646342742752	19
6	384	807.816832576756	18
6	385	808.487728226908	17
6	387	810.378030875903	17
6	394	820.140635894339	18
6	409	841.166212997282	19
6	416	844.039921077412	20
6	422	848.302603167896	21
6	424	849.706097178447	22
6	426	858.520764046529	23
6	428	861.33210841493	24
6	436	881.28589739406	25
6	451	926.689134492761	26
6	455	952.159183579918	27
6	459	968.398410018868	27
6	467	983.615274297069	27
6	471	985.450572638088	28
6	475	997.883823659565	29
6	479	1005.253755993298	30
6	486	1019.847206502666	31
6	488	1025.906087628769	32
6	490	1026.815700418062	33
6	493	1030.751785346012	34
6	503	1054.062849771534	35
6	508	1069.199323993526	36
6	514	1076.910443218145	37
6	515	1079.35661480658	37
6	522	1088.016501996055	37
6	524	1089.058385482649	38
6	528	1093.245356086608	39
6	532	1109.990164271915	40
6	536	1111.495252375282	41
6	539	1119.046614610703	42
6	541	1129.048153925745	43
6	546	1140.924912413329	44
6	548	1141.176407268333	45
6	550	1145.209157071525	46
6	552	1153.208662393435	47
6	553	1155.277348044241	47
6	554	1158.113089275711	46
6	555	1158.576052271425	45
6	556	1161.794785652913	44
6	560	1185.621025180486	43
6	562	1186.892623908681	43
6	563	1188.36185738431	43
6	565	1189.393137052777	43
6	566	1190.535967972125	43
6	568	1192.271530187622	43
6	569	1192.979075020464	43
6	571	1197.484946457018	43
6	573	1200.247521930234	44
6	574	1210.909886493312	44
6	576	1212.314244647592	44
6	578	1213.33421831449	45
6	579	1214.083727854926	45
6	581	1214.745160013319	45
6	583	1224.217229415423	46
6	584	1226.797343620351	46
6	585	1228.224744896809	45
6	586	1230.200118624322	44
6	588	1232.030075498215	44
6	589	1233.372594286726	44
6	591	1239.324803119424	44
6	592	1240.015593851842	44
6	593	1240.600347498187	43
6	594	1240.965131421933	42
6	596	1241.921592407204	42
6	598	1248.182563811562	43
6	600	1249.989371655212	44
6	601	1253.233668372585	44
6	602	1261.961473482799	43
6	603	1263.235597048532	42
6	604	1263.367142206927	41
6	605	1265.786015283046	40
6	607	1268.583645825222	40
6	613	1269.903191477051	41
6	617	1275.699501245044	42
6	619	1276.539094628564	43
6	620	1276.79511235353	43
6	625	1295.103409452435	43
6	626	1297.246242270786	43
6	627	1303.385675319693	42
6	629	1304.605261721148	42
6	630	1304.857818428291	42
6	631	1305.245156510644	41
6	633	1305.27584812283	41
6	634	1307.170675315354	41
6	635	1310.828755745028	40
6	636	1314.756259730613	39
6	637	1315.212599500084	38
6	639	1315.638127851192	38
6	640	1322.39238999755	38
6	641	1330.898922735195	37
6	642	1334.129713556146	36
6	644	1334.215975512914	36
6	646	1336.216146553867	37
6	648	1340.202387362151	38
6	649	1352.040459531219	38
6	654	1354.930411622285	38
6	655	1355.406626044487	38
6	656	1355.713473717618	37
6	658	1360.587040029986	37
6	659	1364.733738517943	37
6	661	1365.372416060755	37
6	663	1368.420623397465	38
6	667	1370.786550902306	39
6	673	1381.304519843128	40
6	679	1393.562697652392	41
6	681	1394.377663390847	42
6	692	1434.496305583305	43
6	694	1435.634050048171	44
6	698	1454.156554264205	45
6	700	1457.51916996784	46
6	701	1470.980372088753	46
6	705	1484.091860041164	45
6	706	1484.279078748315	44
6	712	1491.331558083045	44
6	714	1491.798302433568	45
6	726	1544.840473908186	45
6	727	1545.525611590108	44
6	728	1546.192630947748	43
6	730	1549.162095721887	43
6	731	1564.496060793909	43
6	732	1570.025153349096	42
6	733	1575.486420681261	41
6	735	1581.557356075964	41
6	736	1584.407218329841	41
6	737	1588.949497220745	40
6	741	1589.131202587709	40
6	743	1589.294164742861	41
6	745	1590.705176290522	42
6	749	1599.956013350065	43
6	755	1622.711247489885	43
6	756	1623.77331902164	42
6	757	1625.789686821978	41
6	761	1636.95698598887	41
6	763	1643.834127968644	41
6	765	1648.144304386084	41
6	766	1649.474672330942	41
6	767	1650.313571826867	40
6	772	1666.226233340729	40
6	773	1669.429328394473	40
6	780	1690.361167239169	39
6	781	1691.810745542147	38
6	782	1694.10616963364	37
6	784	1694.649658107823	37
6	786	1697.371471155653	38
6	787	1700.637174319569	38
6	788	1701.564413156886	37
6	792	1704.702976336811	36
6	794	1709.751706419028	36
6	795	1711.440269136485	36
6	796	1712.788965887768	35
6	797	1719.545515565942	34
6	798	1722.643437824852	33
6	799	1723.696737880759	32
6	800	1727.131423805304	31
6	804	1746.230053122328	31
6	806	1750.168781653657	32
6	810	1750.854767205996	33
6	812	1751.925694445872	34
6	814	1753.15717556659	35
6	817	1758.42442367335	35
6	818	1758.524384469739	34
6	820	1759.551241949131	34
6	821	1764.421099367781	34
6	822	1769.610610136501	33
6	823	1770.428513047704	32
6	827	1775.91823188014	32
6	829	1779.585498614743	33
6	836	1800.827451251764	34
6	840	1808.974265082063	35
6	842	1813.470520932614	36
6	844	1817.480747434096	37
6	845	1818.419224460239	37
6	847	1828.11134490128	37
6	849	1832.033704236289	38
6	851	1832.306448773937	39
6	852	1850.080431469057	39
6	853	1854.688936025915	38
6	854	1858.4642786465	37
6	858	1871.163604866137	37
6	860	1873.230586242004	38
6	866	1889.171303031015	39
6	874	1908.390896428453	40
6	878	1922.459756976486	40
6	879	1925.01012884744	39
6	883	1929.965468515927	38
6	884	1939.460328554905	37
6	885	1944.034801289654	36
6	893	1953.154341822785	36
6	894	1955.6713662586	36
6	898	1957.958807211611	36
6	900	1958.78621161249	37
6	902	1961.387477703924	37
6	903	1973.781719272174	36
6	904	1975.064206858829	35
6	911	1982.118910009493	35
6	913	1988.259230996169	36
6	915	1989.254752134088	37
6	917	1999.574401708247	37
6	918	2002.481695754544	36
6	919	2005.496323795545	35
6	921	2009.415578530733	35
6	925	2019.676921367552	36
6	932	2026.199892969346	37
6	938	2040.621379519716	37
6	939	2043.588801077357	36
6	941	2046.095534625078	36
6	942	2047.770065611434	36
6	943	2053.59563207871	35
6	944	2053.900155143704	34
6	948	2062.559819886271	34
6	952	2067.97077610183	35
6	954	2068.207186465525	36
6	956	2070.390746796148	37
6	960	2079.613808485977	38
6	970	2106.43432796086	39
6	972	2107.23919062207	40
6	981	2121.979406440984	41
6	985	2129.836419138046	42
6	991	2139.755152732331	43
6	994	2140.259631609512	44
6	997	2157.627423304001	45
6	999	2171.095969015303	46
6	1001	2175.570323536926	47
6	1003	2182.56237537649	48
6	1009	2190.052476805452	49
6	1011	2190.534655587643	50
6	1012	2192.278065961019	50
6	1013	2194.00346536226	49
6	1017	2199.206720632074	49
6	1019	2199.435648587307	50
6	1026	2218.126545013904	51
6	1029	2229.042693499583	51
6	1030	2230.30555774738	50
6	1031	2233.2760039686	49
6	1033	2235.641893261106	49
6	1035	2235.989629010231	50
6	1036	2237.038221913776	50
6	1038	2240.700158213268	50
6	1040	2246.420518575202	51
6	1042	2246.492313956009	52
6	1043	2248.291465685556	52
6	1045	2249.465598681333	52
6	1046	2249.532857856968	52
6	1048	2249.982771900026	52
6	1053	2254.26808561051	53
6	1054	2263.143837078221	53
6	1055	2265.471872388431	52
6	1057	2271.570851785134	52
6	1059	2272.325738493696	53
6	1060	2277.277608702357	53
6	1061	2278.865460478806	52
6	1062	2292.621983366431	51
6	1066	2306.78462971679	50
6	1068	2306.930094956021	50
6	1070	2309.771897382743	51
6	1075	2317.243445888437	52
6	1076	2319.577455729465	52
6	1078	2323.095494087291	52
6	1080	2324.853037154747	53
6	1082	2325.960436090938	54
6	1083	2326.953735887294	54
6	1085	2332.419764879063	54
6	1087	2336.351130649538	55
6	1088	2341.342651540774	55
6	1090	2343.03888059311	55
6	1092	2343.960495122872	56
6	1094	2345.60143337475	57
6	1096	2352.841460758396	58
6	1098	2355.388540674754	59
6	1100	2360.859292971737	60
6	1102	2364.480158459102	61
6	1103	2364.720730324719	61
6	1105	2366.840552200106	61
6	1106	2367.300671035271	61
6	1108	2370.056817384359	61
6	1109	2373.062189889668	61
6	1111	2374.281138577653	61
6	1112	2377.306597742029	61
6	1116	2379.331653338291	61
6	1118	2383.233276973216	62
6	1120	2393.905269330195	62
6	1122	2395.553949359182	62
6	1123	2398.135964722294	62
6	1128	2399.420097252837	62
6	1129	2402.297812092174	62
6	1134	2417.268262125275	62
6	1136	2419.133451329679	63
6	1137	2420.664845542591	63
6	1138	2422.891484932777	62
6	1139	2424.045523525257	61
6	1140	2426.821700175404	60
6	1145	2429.232149905465	60
6	1146	2437.762232289202	60
6	1147	2439.583761920134	59
6	1149	2441.783611930452	59
6	1150	2443.610956922297	59
6	1154	2452.309464931063	59
6	1159	2455.406009742327	60
6	1161	2455.559475358924	61
6	1167	2462.114056386014	62
6	1169	2466.330720422387	63
6	1171	2467.218619836442	64
6	1172	2468.951581251228	64
6	1174	2480.211963592418	64
6	1175	2480.626753993824	64
6	1176	2492.691679608098	63
6	1177	2493.096831775738	62
6	1178	2494.424315940173	61
7	152	363.479528953122	95.890535616731
7	160	381.254152694578	110.47920448555
7	161	383.387619223246	108.42763808403
7	172	395.891124759052	61.813718325916
7	186	411.757135787471	42.952480792671
7	191	419.809819860477	50.776823227339
7	195	429.344434613723	43.909161271071
7	196	429.417365191028	43.964247441201
7	202	437.957506465685	42.452569386458
7	203	442.020430511032	41.781553524601
7	206	447.587969732421	41.585826853488
7	207	448.224759317546	39.680894701463
7	208	453.920910753619	41.75647282537
7	213	469.673175085092	52.428610204265
7	214	476.270434857164	51.457894164645
7	248	545.033831771982	100.30129707597
7	249	548.40995874682	92.975739698966
7	250	549.043509118253	93.589786113243
7	255	551.75609229566	75.052643023278
7	258	558.668096699342	80.320880421141
7	272	577.848806525226	97.333754385154
7	279	582.683943161272	99.468395648093
7	280	583.365821165707	98.122058880551
7	286	597.120385242499	98.250520831545
7	289	611.70018193947	110.85099718685
7	290	612.379974459766	106.34144757338
7	293	616.85910816384	87.82655643165
7	294	621.422175296271	72.290906543761
7	295	625.341028304169	75.511997889995
7	298	628.885382089754	76.102925974859
7	302	636.835898082884	69.41336311511
7	303	638.024556899909	69.940939692794
7	304	639.641570346438	71.258226844763
7	345	729.71798208651	152.79770888007
7	346	736.248050078209	157.0199509896
7	347	736.298930155909	156.27300294539
7	350	742.266526140924	160.30572296621
7	353	743.406987847363	159.97313614738
7	379	785.938934401804	158.44261408435
7	380	789.290164459642	155.67782869637
7	383	806.646342742752	152.92846617536
7	384	807.816832576756	138.89787681883
7	385	808.487728226908	134.85560169537
7	459	968.398410018868	275.47959933817
7	515	1079.35661480658	341.73564884656
7	553	1155.277348044241	389.92490978353
7	554	1158.113089275711	387.7501456344
7	555	1158.576052271425	385.98544606657
7	556	1161.794785652913	388.20227836353
7	560	1185.621025180486	402.81680993187
7	563	1188.36185738431	402.84188473251
7	566	1190.535967972125	396.45514825512
7	569	1192.979075020464	382.60104414456
7	574	1210.909886493312	398.82665832995
7	579	1214.083727854926	393.94309196059
7	584	1226.797343620351	385.63113062307
7	585	1228.224744896809	384.1848238194
7	586	1230.200118624322	381.89751545643
7	589	1233.372594286726	383.66649710828
7	592	1240.015593851842	381.49482980531
7	593	1240.600347498187	379.26823908326
7	594	1240.965131421933	359.67923402787
7	601	1253.233668372585	326.54453387982
7	602	1261.961473482799	309.80228990288
7	603	1263.235597048532	290.40363507
7	604	1263.367142206927	284.00676715872
7	605	1265.786015283046	282.17074098598
7	620	1276.79511235353	291.34453971544
7	626	1297.246242270786	291.99248627749
7	627	1303.385675319693	283.53846881703
7	630	1304.857818428291	278.95173079952
7	631	1305.245156510644	278.42945609258
7	634	1307.170675315354	276.41888996934
7	635	1310.828755745028	256.76590597349
7	636	1314.756259730613	249.09044444224
7	637	1315.212599500084	246.01327550656
7	640	1322.39238999755	245.48194677941
7	641	1330.898922735195	247.87936167439
7	642	1334.129713556146	248.41300119175
7	649	1352.040459531219	264.02395753516
7	655	1355.406626044487	262.16126995788
7	656	1355.713473717618	245.7233094457
7	659	1364.733738517943	253.23848614266
7	701	1470.980372088753	341.93221816301
7	705	1484.091860041164	342.91545277283
7	706	1484.279078748315	339.06992167679
7	726	1544.840473908186	355.44733685541
7	727	1545.525611590108	353.25408140249
7	728	1546.192630947748	348.70768449073
7	731	1564.496060793909	364.24853886367
7	732	1570.025153349096	357.7109087015
7	733	1575.486420681261	362.15220236677
7	736	1584.407218329841	369.66205831652
7	737	1588.949497220745	364.73226780532
7	755	1622.711247489885	383.38644437046
7	756	1623.77331902164	381.85172661444
7	757	1625.789686821978	377.60712301042
7	763	1643.834127968644	375.25048214342
7	766	1649.474672330942	380.55261694665
7	767	1650.313571826867	380.41038034982
7	773	1669.429328394473	392.89023376591
7	780	1690.361167239169	395.25775778673
7	781	1691.810745542147	387.205483821
7	782	1694.10616963364	388.83032151081
7	787	1700.637174319569	384.99904646838
7	788	1701.564413156886	367.34843764397
7	792	1704.702976336811	364.50058897466
7	795	1711.440269136485	358.93341340354
7	796	1712.788965887768	357.85855426548
7	797	1719.545515565942	358.95847553596
7	798	1722.643437824852	357.2710217641
7	799	1723.696737880759	355.27611448329
7	800	1727.131423805304	356.72703527442
7	817	1758.42442367335	377.11990383022
7	818	1758.524384469739	364.96168681735
7	821	1764.421099367781	370.04343597693
7	822	1769.610610136501	335.1143045532
7	823	1770.428513047704	334.79446299953
7	845	1818.419224460239	345.16843678139
7	852	1850.080431469057	365.53497284512
7	853	1854.688936025915	363.35737794287
7	854	1858.4642786465	366.66597621293
7	878	1922.459756976486	381.13166547384
7	879	1925.01012884744	375.84803312555
7	883	1929.965468515927	340.96664006178
7	884	1939.460328554905	350.3291259672
7	885	1944.034801289654	354.74063654679
7	894	1955.6713662586	329.10092031807
7	902	1961.387477703924	313.24317331784
7	903	1973.781719272174	319.5897039738
7	904	1975.064206858829	308.8379735181
7	917	1999.574401708247	304.92474360042
7	918	2002.481695754544	305.11022459889
7	919	2005.496323795545	301.41077283339
7	938	2040.621379519716	294.39132639739
7	939	2043.588801077357	293.4200194237
7	942	2047.770065611434	296.91529840544
7	943	2053.59563207871	301.66993763284
7	944	2053.900155143704	300.74297957711
7	1012	2192.278065961019	416.35983408088
7	1013	2194.00346536226	414.41796674752
7	1029	2229.042693499583	428.21524224782
7	1030	2230.30555774738	421.33129266532
7	1031	2233.2760039686	419.80548303599
7	1036	2237.038221913776	419.55747447968
7	1043	2248.291465685556	420.18012078428
7	1046	2249.532857856968	417.49915362068
7	1054	2263.143837078221	400.02716246369
7	1055	2265.471872388431	394.30826752229
7	1060	2277.277608702357	404.04702246035
7	1061	2278.865460478806	389.69415744779
7	1062	2292.621983366431	384.23108693798
7	1066	2306.78462971679	362.3508447041
7	1076	2319.577455729465	366.42311390668
7	1083	2326.953735887294	369.82861123606
7	1088	2341.342651540774	383.38384432916
7	1103	2364.720730324719	405.93451871223
7	1106	2367.300671035271	390.6761549213
7	1109	2373.062189889668	390.94327988017
7	1112	2377.306597742029	389.04736674586
7	1120	2393.905269330195	384.48969079946
7	1123	2398.135964722294	386.75505634856
7	1129	2402.297812092174	376.09791912283
7	1137	2420.664845542591	374.56931091751
7	1138	2422.891484932777	367.96517495281
7	1139	2424.045523525257	361.48570363899
7	1140	2426.821700175404	358.85092407357
7	1146	2437.762232289202	367.37148549305
7	1147	2439.583761920134	359.96995343416
7	1150	2443.610956922297	337.17662896144
7	1172	2468.951581251228	329.1964285189
7	1175	2480.626753993824	340.36712238431
7	1176	2492.691679608098	335.0642563041
7	1177	2493.096831775738	322.00086276043
7	1178	2494.424315940173	318.85399240325
8	154	368.8046549948	8
8	156	369.032996633138	9
8	163	385.435273342652	8
8	171	395.504937079227	9
8	182	406.002142878933	9
8	184	408.543864616083	10
8	188	412.164437928249	10
8	190	417.244564880827	11
8	200	435.069822641035	9
8	205	444.73253469601	8
8	210	455.434219047854	6
8	212	455.45372300501	7
8	218	478.347216278201	6
8	220	478.710433170724	7
8	223	480.515052140072	8
8	227	485.243762285156	9
8	229	496.430731378896	10
8	233	498.869864410954	11
8	235	500.849184752619	12
8	239	506.038526886384	13
8	243	529.03255173219	14
8	252	549.13126875251	12
8	254	549.829030414174	13
8	257	552.782456114895	13
8	260	558.884773278836	13
8	264	568.083617207115	14
8	266	568.383343501675	15
8	269	570.956829549864	16
8	271	576.920273206442	17
8	274	579.228099088614	17
8	276	580.025927210517	18
8	278	581.960803174712	19
8	282	583.433851699979	18
8	288	605.380070849932	18
8	292	616.36163040096	17
8	297	627.496320317452	15
8	317	668.91895575793	12
8	321	673.632126531543	13
8	328	692.737293312491	14
8	330	692.918810680698	15
8	332	698.208839881957	16
8	334	702.555790210454	17
8	337	710.703307436593	18
8	342	714.356468550313	19
8	349	737.620965960018	17
8	352	743.1260328442	17
8	362	765.352438260707	17
8	365	770.362943641312	18
8	368	772.590606204854	19
8	373	781.007393373859	20
8	377	785.519972651797	21
8	382	794.080819717003	20
8	387	810.378030875903	18
8	394	820.140635894339	19
8	409	841.166212997282	20
8	416	844.039921077412	21
8	422	848.302603167896	22
8	424	849.706097178447	23
8	426	858.520764046529	24
8	428	861.33210841493	25
8	436	881.28589739406	26
8	451	926.689134492761	27
8	455	952.159183579918	28
8	467	983.615274297069	28
8	471	985.450572638088	29
8	475	997.883823659565	30
8	479	1005.253755993298	31
8	486	1019.847206502666	32
8	488	1025.906087628769	33
8	490	1026.815700418062	34
8	493	1030.751785346012	35
8	503	1054.062849771534	36
8	508	1069.199323993526	37
8	514	1076.910443218145	38
8	522	1088.016501996055	38
8	524	1089.058385482649	39
8	528	1093.245356086608	40
8	532	1109.990164271915	41
8	536	1111.495252375282	42
8	539	1119.046614610703	43
8	541	1129.048153925745	44
8	546	1140.924912413329	45
8	548	1141.176407268333	46
8	550	1145.209157071525	47
8	552	1153.208662393435	48
8	562	1186.892623908681	44
8	565	1189.393137052777	44
8	568	1192.271530187622	44
8	571	1197.484946457018	44
8	573	1200.247521930234	45
8	576	1212.314244647592	45
8	578	1213.33421831449	46
8	581	1214.745160013319	46
8	583	1224.217229415423	47
8	588	1232.030075498215	45
8	591	1239.324803119424	45
8	596	1241.921592407204	43
8	598	1248.182563811562	44
8	600	1249.989371655212	45
8	607	1268.583645825222	41
8	613	1269.903191477051	42
8	617	1275.699501245044	43
8	619	1276.539094628564	44
8	625	1295.103409452435	44
8	629	1304.605261721148	43
8	633	1305.27584812283	42
8	639	1315.638127851192	39
8	644	1334.215975512914	37
8	646	1336.216146553867	38
8	648	1340.202387362151	39
8	654	1354.930411622285	39
8	658	1360.587040029986	38
8	661	1365.372416060755	38
8	663	1368.420623397465	39
8	667	1370.786550902306	40
8	673	1381.304519843128	41
8	679	1393.562697652392	42
8	681	1394.377663390847	43
8	692	1434.496305583305	44
8	694	1435.634050048171	45
8	698	1454.156554264205	46
8	700	1457.51916996784	47
8	712	1491.331558083045	45
8	714	1491.798302433568	46
8	730	1549.162095721887	44
8	735	1581.557356075964	42
8	741	1589.131202587709	41
8	743	1589.294164742861	42
8	745	1590.705176290522	43
8	749	1599.956013350065	44
8	761	1636.95698598887	42
8	765	1648.144304386084	42
8	772	1666.226233340729	41
8	784	1694.649658107823	38
8	786	1697.371471155653	39
8	794	1709.751706419028	37
8	804	1746.230053122328	32
8	806	1750.168781653657	33
8	810	1750.854767205996	34
8	812	1751.925694445872	35
8	814	1753.15717556659	36
8	820	1759.551241949131	35
8	827	1775.91823188014	33
8	829	1779.585498614743	34
8	836	1800.827451251764	35
8	840	1808.974265082063	36
8	842	1813.470520932614	37
8	844	1817.480747434096	38
8	847	1828.11134490128	38
8	849	1832.033704236289	39
8	851	1832.306448773937	40
8	858	1871.163604866137	38
8	860	1873.230586242004	39
8	866	1889.171303031015	40
8	874	1908.390896428453	41
8	893	1953.154341822785	37
8	898	1957.958807211611	37
8	900	1958.78621161249	38
8	911	1982.118910009493	36
8	913	1988.259230996169	37
8	915	1989.254752134088	38
8	921	2009.415578530733	36
8	925	2019.676921367552	37
8	932	2026.199892969346	38
8	941	2046.095534625078	37
8	948	2062.559819886271	35
8	952	2067.97077610183	36
8	954	2068.207186465525	37
8	956	2070.390746796148	38
8	960	2079.613808485977	39
8	970	2106.43432796086	40
8	972	2107.23919062207	41
8	981	2121.979406440984	42
8	985	2129.836419138046	43
8	991	2139.755152732331	44
8	994	2140.259631609512	45
8	997	2157.627423304001	46
8	999	2171.095969015303	47
8	1001	2175.570323536926	48
8	1003	2182.56237537649	49
8	1009	2190.052476805452	50
8	1011	2190.534655587643	51
8	1017	2199.206720632074	50
8	1019	2199.435648587307	51
8	1026	2218.126545013904	52
8	1033	2235.641893261106	50
8	1035	2235.989629010231	51
8	1038	2240.700158213268	51
8	1040	2246.420518575202	52
8	1042	2246.492313956009	53
8	1045	2249.465598681333	53
8	1048	2249.982771900026	53
8	1053	2254.26808561051	54
8	1057	2271.570851785134	53
8	1059	2272.325738493696	54
8	1068	2306.930094956021	51
8	1070	2309.771897382743	52
8	1075	2317.243445888437	53
8	1078	2323.095494087291	53
8	1080	2324.853037154747	54
8	1082	2325.960436090938	55
8	1085	2332.419764879063	55
8	1087	2336.351130649538	56
8	1090	2343.03888059311	56
8	1092	2343.960495122872	57
8	1094	2345.60143337475	58
8	1096	2352.841460758396	59
8	1098	2355.388540674754	60
8	1100	2360.859292971737	61
8	1102	2364.480158459102	62
8	1105	2366.840552200106	62
8	1108	2370.056817384359	62
8	1111	2374.281138577653	62
8	1116	2379.331653338291	62
8	1118	2383.233276973216	63
8	1122	2395.553949359182	63
8	1128	2399.420097252837	63
8	1134	2417.268262125275	63
8	1136	2419.133451329679	64
8	1145	2429.232149905465	61
8	1149	2441.783611930452	60
8	1154	2452.309464931063	60
8	1159	2455.406009742327	61
8	1161	2455.559475358924	62
8	1167	2462.114056386014	63
8	1169	2466.330720422387	64
8	1171	2467.218619836442	65
8	1174	2480.211963592418	65
9	158	369.138949755894	1
9	165	385.453117749827	1
9	168	392.547813056844	1
9	174	400.238876986431	1
9	176	400.875830780534	2
9	179	402.148108483634	2
9	193	424.812540692519	1
9	198	429.941475816797	1
9	216	476.703449272382	1
9	225	483.215547513179	1
9	231	497.665056686089	2
9	237	502.518415000999	3
9	241	518.010136143749	4
9	262	567.422534967774	1
9	284	589.254921646886	1
9	300	633.612335763276	1
9	306	653.717876567391	1
9	308	656.162405383807	2
9	311	664.883556027538	2
9	313	665.805119266422	3
9	315	666.345196335487	4
9	323	681.955333536092	3
9	326	685.56874799801	3
9	339	711.427100791882	3
9	355	753.719190786411	1
9	357	758.457762291243	2
9	360	759.862359115068	2
9	370	773.592507289388	1
9	375	782.804215248613	1
9	389	812.083228163358	1
9	391	814.53789680283	2
9	396	821.314613689265	2
9	398	823.339640693145	3
9	400	824.380758877111	4
9	403	826.130509309885	4
9	406	840.108369561828	4
9	411	841.927159132011	4
9	414	843.753911163271	4
9	418	844.204056085925	5
9	420	844.767347024862	6
9	432	874.251744450862	5
9	438	881.630829256108	4
9	440	882.640125728282	5
9	443	895.753310537335	5
9	447	908.271428453241	4
9	449	916.148443900527	5
9	461	972.831961978536	1
9	464	979.360375048207	1
9	469	984.240373431469	1
9	473	994.891896571427	2
9	477	1003.858883076407	3
9	482	1015.591232681327	3
9	484	1016.22762365404	4
9	497	1037.619457588496	2
9	500	1044.868849600906	2
9	506	1065.665815288377	1
9	510	1069.837508154843	2
9	517	1083.0195610608	1
9	520	1085.716712364398	1
9	526	1091.165896348159	2
9	530	1101.862008106945	3
9	534	1110.640880361671	4
9	558	1168.530077245097	1
9	609	1268.922055384295	1
9	611	1269.704014982941	2
9	622	1289.557095687291	1
9	651	1352.506855732944	1
9	665	1370.404388530883	1
9	669	1373.105114693269	2
9	671	1380.113067217977	3
9	675	1381.736131665	4
9	683	1398.191573523998	3
9	685	1401.824001929381	4
9	689	1411.331822722844	3
9	703	1473.250787678847	1
9	708	1484.54545862394	1
9	710	1490.786627567511	2
9	718	1515.939404877614	1
9	720	1518.058639666684	2
9	724	1541.328091502649	1
9	739	1588.998828454145	1
9	747	1591.826544490865	2
9	751	1607.947249559554	3
9	759	1626.570445940533	1
9	769	1654.192015298371	1
9	775	1674.039597021772	1
9	777	1676.296778732605	2
9	790	1704.085550962152	1
9	802	1734.959901667771	1
9	808	1750.512206608145	2
9	825	1772.016630625158	1
9	832	1784.953323999097	1
9	834	1793.940302291954	2
9	856	1863.116674614531	1
9	862	1884.1048210951	2
9	864	1886.579840852465	3
9	868	1891.821254052115	4
9	871	1901.129284237924	4
9	881	1926.365454818449	1
9	887	1944.433785012692	1
9	890	1950.622018393725	1
9	896	1957.125124651231	1
9	906	1976.624516113971	1
9	908	1977.707499429506	2
9	923	2011.380908373739	1
9	927	2024.89113310012	2
9	930	2025.694562311325	2
9	936	2037.032684837172	1
9	946	2054.92630997997	1
9	950	2066.558161474897	2
9	958	2074.312271274971	3
9	962	2085.148294294305	4
9	964	2099.473183195357	5
9	968	2102.146138877737	4
9	977	2116.145782370907	2
9	979	2121.486056362826	3
9	983	2128.938193055579	4
9	989	2138.670385373158	3
9	1006	2186.38555087349	1
9	1015	2196.988326593044	1
9	1021	2203.396636789965	2
9	1024	2217.082690419149	2
9	1050	2251.232106227058	1
9	1064	2294.752183040791	1
9	1072	2310.846390442859	1
9	1114	2378.277617112147	1
9	1125	2399.108451542096	1
9	1131	2403.159387325714	1
9	1142	2427.431392732234	1
9	1152	2444.598988443805	1
9	1157	2455.21295102021	1
9	1164	2458.382625969776	1
10	158	369.138949755894	5
10	165	385.453117749827	6
10	168	392.547813056844	7
10	174	400.238876986431	8
10	193	424.812540692519	9
10	198	429.941475816797	10
10	216	476.703449272382	11
10	225	483.215547513179	12
10	262	567.422534967774	13
10	284	589.254921646886	14
10	300	633.612335763276	15
10	306	653.717876567391	16
10	355	753.719190786411	17
10	370	773.592507289388	18
10	375	782.804215248613	19
10	389	812.083228163358	20
10	461	972.831961978536	21
10	464	979.360375048207	22
10	469	984.240373431469	23
10	506	1065.665815288377	24
10	517	1083.0195610608	25
10	520	1085.716712364398	26
10	558	1168.530077245097	27
10	609	1268.922055384295	28
10	622	1289.557095687291	29
10	651	1352.506855732944	30
10	665	1370.404388530883	31
10	703	1473.250787678847	32
10	708	1484.54545862394	33
10	718	1515.939404877614	34
10	724	1541.328091502649	35
10	739	1588.998828454145	36
10	759	1626.570445940533	37
10	769	1654.192015298371	38
10	775	1674.039597021772	39
10	790	1704.085550962152	40
10	802	1734.959901667771	41
10	825	1772.016630625158	42
10	832	1784.953323999097	43
10	856	1863.116674614531	44
10	881	1926.365454818449	45
10	887	1944.433785012692	46
10	890	1950.622018393725	47
10	896	1957.125124651231	48
10	906	1976.624516113971	49
10	923	2011.380908373739	50
10	936	2037.032684837172	51
10	946	2054.92630997997	52
10	1006	2186.38555087349	53
10	1015	2196.988326593044	54
10	1050	2251.232106227058	55
10	1064	2294.752183040791	56
10	1072	2310.846390442859	57
10	1114	2378.277617112147	58
10	1125	2399.108451542096	59
10	1131	2403.159387325714	60
10	1142	2427.431392732234	61
10	1152	2444.598988443805	62
10	1157	2455.21295102021	63
10	1164	2458.382625969776	64
11	1179	2500	0.0792
12	1179	2500	0.0616

