file 65213 1678560319                                           
version 2
run experiments_hard_game_mode1-1599-20230311-19:45:19-13070
attr configname experiments_hard_game_mode1
attr datetime 20230311-19:45:19
attr experiment experiments_hard_game_mode1
attr inifile omnetpp.ini
attr iterationvars "$0=10, $1=4, $2=100"
attr iterationvarsf 10,4,100-
attr measurement "$0=10, $1=4, $2=100"
attr network Network
attr processid 13070
attr repetition 9
attr replication #9
attr resultdir results
attr runnumber 1599
attr seedset 9
param *.boss.arrival_mean 20
param *.boss.service_mean 10
param *.minion.arrival_mean 10
param *.minion.service_mean 4
param *.player.recover_rate_x 100
param **.minion.arrival_distribution 0
param **.minion.service_distribution 0
param **.boss.arrival_distribution 0
param **.boss.service_distribution 0

vector 0 Network.player boss_defeated_stat:vector ETV
attr source signal_boss_defeated
vector 1 Network.player boss_jobs_queue_number_stat:vector ETV
attr source signal_boss_jobs_queue_number
vector 2 Network.player boss_response_time_stat:vector ETV
attr source signal_boss_response_time
vector 3 Network.player minion_waiting_time_stat:vector ETV
attr source signal_minion_waiting_time
vector 4 Network.player minion_defeated_stat:vector ETV
attr source signal_minion_defeated
vector 5 Network.player minion_jobs_queue_number_stat:vector ETV
attr source signal_minion_jobs_queue_number
vector 6 Network.player minion_response_time_stat:vector ETV
attr source signal_minion_response_time
vector 7 Network.player minion_jobs_number_stat:vector ETV
attr source signal_minion_jobs_number
vector 8 Network.player boss_jobs_number_stat:vector ETV
attr source signal_boss_jobs_number
vector 9 Network.player minion_recovered_stat:vector ETV
attr source signal_minion_recovered
vector 10 Network.player boss_waiting_time_stat:vector ETV
attr source signal_boss_waiting_time
vector 11 Network.player minion_throughput:vector ETV
attr source signal_minion_throughput
vector 12 Network.player boss_throughput:vector ETV
attr source signal_boss_throughput
0	2016 3095 125 1108 357.51849045691 2463.099764071269 115 10 124 7705 642965
1	5111 5910 125 1115 357.51849045691 2481.626538504285 230 0 5 222 594
2	11021 4507 125 1108 357.51849045691 2463.099764071269 115 0.405336205784 74.920920333172 2171.5161717348 68159.934014199
3	15528 10174 125 1113 357.51849045691 2479.641160041305 263 0 287.64500238018 28937.791643164 4823527.4182175
4	25702 5916 126 1113 358.395117939064 2479.641160041305 216 30 245 29700 4923540
5	31618 11334 126 1117 358.395117939064 2498.157739472885 432 0 33 6056 132936
6	42952 8523 126 1113 358.395117939064 2479.641160041305 216 0.456726232311 290.16884661491 24555.979406399 4174068.1864704
7	51475 5665 128 1117 358.869815898493 2498.157739472885 216 1 34 3244 72740
8	57140 2955 136 1115 366.90674060042 2481.626538504285 115 1 6 226 634
9	60095 1248 136 1115 366.90674060042 2481.626538504285 47 4 50 1269 42911
10	61343 3830 136 1115 366.90674060042 2481.626538504285 115 0 63.257538120678 1047.5442652869 30072.240743239
11	65173 19 1118 1118 2500 2500 1 0.098 0.098 0.098 0.009604
12	65192 20 1118 1118 2500 2500 1 0.0496 0.0496 0.0496 0.00246016

