file 57662 1678560271                                           
version 2
run experiments_hard_game_mode1-1412-20230311-19:44:31-12113
attr configname experiments_hard_game_mode1
attr datetime 20230311-19:44:31
attr experiment experiments_hard_game_mode1
attr inifile omnetpp.ini
attr iterationvars "$0=9.5, $1=6, $2=100"
attr iterationvarsf 9.5,6,100-
attr measurement "$0=9.5, $1=6, $2=100"
attr network Network
attr processid 12113
attr repetition 2
attr replication #2
attr resultdir results
attr runnumber 1412
attr seedset 2
param *.boss.arrival_mean 20
param *.boss.service_mean 9.5
param *.minion.arrival_mean 10
param *.minion.service_mean 6
param *.player.recover_rate_x 100
param **.minion.arrival_distribution 0
param **.minion.service_distribution 0
param **.boss.arrival_distribution 0
param **.boss.service_distribution 0

vector 0 Network.player boss_defeated_stat:vector ETV
attr source signal_boss_defeated
vector 1 Network.player boss_jobs_queue_number_stat:vector ETV
attr source signal_boss_jobs_queue_number
vector 2 Network.player boss_response_time_stat:vector ETV
attr source signal_boss_response_time
vector 3 Network.player minion_waiting_time_stat:vector ETV
attr source signal_minion_waiting_time
vector 4 Network.player minion_jobs_number_stat:vector ETV
attr source signal_minion_jobs_number
vector 5 Network.player minion_jobs_queue_number_stat:vector ETV
attr source signal_minion_jobs_queue_number
vector 6 Network.player minion_defeated_stat:vector ETV
attr source signal_minion_defeated
vector 7 Network.player minion_response_time_stat:vector ETV
attr source signal_minion_response_time
vector 8 Network.player boss_jobs_number_stat:vector ETV
attr source signal_boss_jobs_number
vector 9 Network.player minion_recovered_stat:vector ETV
attr source signal_minion_recovered
vector 10 Network.player boss_waiting_time_stat:vector ETV
attr source signal_boss_waiting_time
vector 11 Network.player minion_throughput:vector ETV
attr source signal_minion_throughput
vector 12 Network.player boss_throughput:vector ETV
attr source signal_boss_throughput
0	2020 3325 155 1107 354.627892458176 2479.632766170734 123 22 144 10209 1002409
1	5345 6424 155 1109 354.627892458176 2486.574186514758 250 0 4 254 610
2	11769 4819 155 1107 354.627892458176 2479.632766170734 123 0.057168663487 79.500671777401 2254.7093330371 70910.368035934
3	16588 7589 155 1055 354.627892458176 2404.131879384961 192 101.30663142096 806.023769615 90279.597937735 48148948.675953
4	24177 5983 157 1113 361.253872248248 2491.854625862879 224 13 103 13854 965662
5	30160 9561 157 1113 361.253872248248 2491.854625862879 358 12 102 22085 1518051
6	39721 3635 158 1055 367.277856931508 2404.131879384961 134 22 155 11859 1250019
7	43356 5305 158 1055 367.277856931508 2404.131879384961 134 118.35874219292 811.19230700838 65168.834260378 35348656.174395
8	48661 3267 161 1109 368.958402505989 2486.574186514758 127 1 5 259 711
9	51928 1533 161 1059 368.958402505989 2411.664070294826 58 5 62 1943 81345
10	53461 4161 161 1107 368.958402505989 2479.632766170734 123 0 68.708436665344 1031.8257422598 26293.503973802
11	57622 19 1114 1114 2500 2500 1 0.062 0.062 0.062 0.003844
12	57641 20 1114 1114 2500 2500 1 0.0576 0.0576 0.0576 0.00331776

