version 2
run experiments_hard_game_mode1-78-20230311-19:39:40-4948
attr configname experiments_hard_game_mode1
attr datetime 20230311-19:39:40
attr experiment experiments_hard_game_mode1
attr inifile omnetpp.ini
attr iterationvars "$0=7.5, $1=4, $2=0"
attr iterationvarsf 7.5,4,0-
attr measurement "$0=7.5, $1=4, $2=0"
attr network Network
attr processid 4948
attr repetition 18
attr replication #18
attr resultdir results
attr runnumber 78
attr seedset 18
param *.boss.arrival_mean 20
param *.boss.service_mean 7.5
param *.minion.arrival_mean 10
param *.minion.service_mean 4
param *.player.recover_rate_x 0
param **.minion.arrival_distribution 0
param **.minion.service_distribution 0
param **.boss.arrival_distribution 0
param **.boss.service_distribution 0

vector 0 Network.player boss_jobs_number_stat:vector ETV
attr source signal_boss_jobs_number
vector 1 Network.player boss_jobs_queue_number_stat:vector ETV
attr source signal_boss_jobs_queue_number
vector 2 Network.player minion_recovered_stat:vector ETV
attr source signal_minion_recovered
vector 3 Network.player boss_waiting_time_stat:vector ETV
attr source signal_boss_waiting_time
vector 4 Network.player minion_jobs_number_stat:vector ETV
attr source signal_minion_jobs_number
vector 5 Network.player minion_jobs_queue_number_stat:vector ETV
attr source signal_minion_jobs_queue_number
vector 6 Network.player boss_defeated_stat:vector ETV
attr source signal_boss_defeated
vector 7 Network.player boss_response_time_stat:vector ETV
attr source signal_boss_response_time
vector 8 Network.player minion_waiting_time_stat:vector ETV
attr source signal_minion_waiting_time
vector 9 Network.player minion_defeated_stat:vector ETV
attr source signal_minion_defeated
vector 10 Network.player minion_response_time_stat:vector ETV
attr source signal_minion_response_time
vector 11 Network.player minion_throughput:vector ETV
attr source signal_minion_throughput
vector 12 Network.player boss_throughput:vector ETV
attr source signal_boss_throughput
0	139	352.65760743913	1
0	147	359.293699558628	1
0	150	361.689670555923	1
0	178	423.510220605586	1
0	194	464.310329824607	1
0	206	490.311357624162	1
0	215	503.252965294132	1
0	219	507.787385408353	2
0	223	509.460907223688	3
0	230	515.59083765368	3
0	233	518.812306809382	3
0	239	528.789657893763	4
0	241	536.621619676878	5
0	246	539.876371230947	5
0	248	540.011977590143	6
0	264	576.409290106954	1
0	277	601.646983798841	1
0	292	620.5673933378	1
0	294	621.913209437982	2
0	307	646.35204339536	1
0	312	657.379640067769	1
0	344	733.174320689637	1
0	353	765.857088538859	1
0	383	831.36383180455	1
0	385	831.962629369746	2
0	392	850.840600045191	2
0	398	865.76178541671	3
0	415	901.223484359462	1
0	434	932.184322298713	1
0	440	937.929585530627	1
0	454	971.342649776712	1
0	467	983.072545625181	1
0	470	991.427067730116	1
0	479	1015.605515033844	1
0	487	1025.81114179477	1
0	516	1109.798972014767	1
0	530	1149.457133924026	1
0	551	1196.526696454582	1
0	553	1196.569454728748	2
0	556	1210.285144495441	2
0	559	1213.98675580795	2
0	565	1231.630065478987	3
0	570	1241.308179746611	3
0	581	1263.189796643971	1
0	593	1281.513172219529	1
0	596	1292.096612948606	1
0	602	1294.89263798076	2
0	604	1295.723033753267	3
0	606	1296.428746356222	4
0	608	1297.941004178685	5
0	619	1322.14802534089	3
0	621	1323.120498050406	4
0	632	1338.292960251381	4
0	655	1384.918681491055	1
0	661	1412.519964056525	1
0	672	1429.644800299848	1
0	674	1432.943823798201	2
0	682	1454.825693868242	3
0	684	1456.237201907714	4
0	690	1463.501273298819	3
0	697	1476.895200702336	3
0	701	1478.65248867971	4
0	708	1493.942844496456	4
0	713	1513.068384497825	4
0	721	1530.316331484607	3
0	774	1626.275814319071	1
0	785	1648.090529582688	1
0	787	1648.406833864499	2
0	792	1660.09057612624	2
0	797	1673.738745992098	2
0	799	1676.701949053993	3
0	802	1677.810560318481	3
0	806	1682.363952277894	2
0	811	1701.700788650236	2
0	813	1706.668184001908	3
0	830	1748.582026119455	1
0	853	1779.095334613409	1
0	867	1801.263659048677	1
0	878	1825.874136888878	1
0	884	1830.294960282079	1
0	894	1845.141402175686	1
0	901	1885.574877957284	1
0	946	1962.87460879635	1
0	959	2024.60862566707	1
0	961	2030.819784934859	2
0	968	2055.285658945094	1
0	983	2081.351597619549	1
0	995	2096.782173260599	1
0	1001	2106.087901989699	1
0	1025	2154.144294006872	1
0	1033	2167.364661838233	1
0	1040	2176.992351096176	1
0	1049	2206.891406240519	1
0	1061	2247.512079356014	1
0	1070	2306.924212961346	1
0	1076	2348.186366084548	1
0	1085	2370.15674638938	1
0	1109	2425.111267728735	1
0	1121	2451.626198357569	1
0	1127	2469.476608553846	1
0	1133	2490.238705866935	1
0	1135	2494.252370332495	2
0	1137	2494.636027121347	3
1	139	352.65760743913	0
1	142	356.172175224029	0
1	147	359.293699558628	0
1	148	359.713187106573	0
1	150	361.689670555923	0
1	153	382.028093215176	0
1	178	423.510220605586	0
1	181	429.121542653068	0
1	194	464.310329824607	0
1	195	472.144269745197	0
1	206	490.311357624162	0
1	209	497.432951762818	0
1	215	503.252965294132	0
1	219	507.787385408353	1
1	223	509.460907223688	2
1	224	511.608754400432	2
1	230	515.59083765368	2
1	231	517.086397157336	2
1	233	518.812306809382	2
1	239	528.789657893763	3
1	241	536.621619676878	4
1	242	537.201367359175	4
1	246	539.876371230947	4
1	248	540.011977590143	5
1	251	547.25369645132	5
1	254	555.568395409302	4
1	257	562.667100206329	3
1	258	564.648057827887	2
1	261	570.303495722128	1
1	262	572.519682930826	0
1	264	576.409290106954	0
1	265	579.54488447686	0
1	277	601.646983798841	0
1	280	603.558596544506	0
1	292	620.5673933378	0
1	294	621.913209437982	1
1	295	624.311027864432	1
1	296	624.942103953838	0
1	307	646.35204339536	0
1	308	653.473182667564	0
1	312	657.379640067769	0
1	315	658.904699233199	0
1	344	733.174320689637	0
1	345	737.889209208413	0
1	353	765.857088538859	0
1	356	775.538089293945	0
1	383	831.36383180455	0
1	385	831.962629369746	1
1	386	832.346200738553	1
1	392	850.840600045191	1
1	398	865.76178541671	2
1	401	883.651387035126	2
1	402	887.072951431428	1
1	403	888.231820506528	0
1	415	901.223484359462	0
1	416	907.81728394231	0
1	434	932.184322298713	0
1	435	934.054723208453	0
1	440	937.929585530627	0
1	441	939.444853996671	0
1	454	971.342649776712	0
1	455	973.790332454166	0
1	467	983.072545625181	0
1	468	989.097780999329	0
1	470	991.427067730116	0
1	475	1001.736523643975	0
1	479	1015.605515033844	0
1	480	1016.965387632569	0
1	487	1025.81114179477	0
1	494	1055.334272615352	0
1	516	1109.798972014767	0
1	519	1115.011770953647	0
1	530	1149.457133924026	0
1	537	1160.745052401669	0
1	551	1196.526696454582	0
1	553	1196.569454728748	1
1	554	1203.386859799847	1
1	556	1210.285144495441	1
1	557	1212.296198874863	1
1	559	1213.98675580795	1
1	565	1231.630065478987	2
1	566	1235.221032100646	2
1	570	1241.308179746611	2
1	573	1257.460774037053	2
1	578	1261.373091743319	1
1	579	1261.980932927813	0
1	581	1263.189796643971	0
1	586	1278.979005741734	0
1	593	1281.513172219529	0
1	594	1283.281709396942	0
1	596	1292.096612948606	0
1	602	1294.89263798076	1
1	604	1295.723033753267	2
1	606	1296.428746356222	3
1	608	1297.941004178685	4
1	609	1300.548189359367	4
1	612	1308.761103139422	3
1	617	1312.54225602698	2
1	619	1322.14802534089	2
1	621	1323.120498050406	3
1	622	1324.589651381065	3
1	632	1338.292960251381	3
1	643	1361.559639038212	3
1	646	1369.187558024797	2
1	647	1372.127394561735	1
1	648	1372.381389772357	0
1	655	1384.918681491055	0
1	656	1394.869656335013	0
1	661	1412.519964056525	0
1	662	1415.03803289337	0
1	672	1429.644800299848	0
1	674	1432.943823798201	1
1	682	1454.825693868242	2
1	684	1456.237201907714	3
1	687	1460.956014329632	3
1	688	1461.623790956347	2
1	690	1463.501273298819	2
1	693	1474.398111623965	2
1	697	1476.895200702336	2
1	701	1478.65248867971	3
1	706	1490.010160641559	3
1	708	1493.942844496456	3
1	709	1497.186936928139	3
1	713	1513.068384497825	3
1	716	1520.398811352583	3
1	717	1524.834220007977	2
1	721	1530.316331484607	2
1	724	1534.610256199249	2
1	727	1543.405825270394	1
1	728	1543.597759233777	0
1	774	1626.275814319071	0
1	777	1633.356669275886	0
1	785	1648.090529582688	0
1	787	1648.406833864499	1
1	790	1658.657974146326	1
1	792	1660.09057612624	1
1	793	1660.630232081081	1
1	797	1673.738745992098	1
1	799	1676.701949053993	2
1	800	1677.308987608988	2
1	802	1677.810560318481	2
1	803	1679.913069402644	2
1	804	1682.224350223772	1
1	806	1682.363952277894	1
1	807	1694.63572073883	1
1	811	1701.700788650236	1
1	813	1706.668184001908	2
1	814	1714.728075880266	2
1	817	1721.268971494294	1
1	818	1725.195412577216	0
1	830	1748.582026119455	0
1	831	1753.574344139704	0
1	853	1779.095334613409	0
1	856	1783.118574332478	0
1	867	1801.263659048677	0
1	868	1804.413135049449	0
1	878	1825.874136888878	0
1	879	1827.528247335431	0
1	884	1830.294960282079	0
1	885	1836.03514859555	0
1	894	1845.141402175686	0
1	897	1876.976690112801	0
1	901	1885.574877957284	0
1	902	1885.677065617251	0
1	946	1962.87460879635	0
1	947	1965.693483082138	0
1	959	2024.60862566707	0
1	961	2030.819784934859	1
1	962	2035.11523557977	1
1	963	2036.594714116829	0
1	968	2055.285658945094	0
1	971	2062.325226977739	0
1	983	2081.351597619549	0
1	984	2081.438309305889	0
1	995	2096.782173260599	0
1	996	2102.635555165068	0
1	1001	2106.087901989699	0
1	1004	2118.220665712646	0
1	1025	2154.144294006872	0
1	1028	2157.203165952213	0
1	1033	2167.364661838233	0
1	1036	2172.621679800755	0
1	1040	2176.992351096176	0
1	1043	2181.097886574181	0
1	1049	2206.891406240519	0
1	1052	2211.626557450301	0
1	1061	2247.512079356014	0
1	1062	2252.266959260316	0
1	1070	2306.924212961346	0
1	1071	2318.26140876604	0
1	1076	2348.186366084548	0
1	1077	2350.634000652608	0
1	1085	2370.15674638938	0
1	1086	2372.657029574948	0
1	1109	2425.111267728735	0
1	1110	2433.453865746017	0
1	1121	2451.626198357569	0
1	1122	2452.486431727641	0
1	1127	2469.476608553846	0
1	1128	2478.786074060864	0
1	1133	2490.238705866935	0
1	1135	2494.252370332495	1
1	1137	2494.636027121347	2
2	139	352.65760743913	6
2	147	359.293699558628	7
2	150	361.689670555923	8
2	178	423.510220605586	9
2	264	576.409290106954	10
2	277	601.646983798841	11
2	292	620.5673933378	12
2	307	646.35204339536	13
2	312	657.379640067769	14
2	415	901.223484359462	15
2	434	932.184322298713	16
2	454	971.342649776712	17
2	487	1025.81114179477	18
2	516	1109.798972014767	19
2	581	1263.189796643971	20
2	593	1281.513172219529	21
2	596	1292.096612948606	22
2	655	1384.918681491055	23
2	661	1412.519964056525	24
2	672	1429.644800299848	25
2	774	1626.275814319071	26
2	785	1648.090529582688	27
2	830	1748.582026119455	28
2	853	1779.095334613409	29
2	867	1801.263659048677	30
2	878	1825.874136888878	31
2	884	1830.294960282079	32
2	894	1845.141402175686	33
2	901	1885.574877957284	34
2	946	1962.87460879635	35
2	1033	2167.364661838233	36
3	139	352.65760743913	0
3	147	359.293699558628	0
3	150	361.689670555923	0
3	178	423.510220605586	0
3	194	464.310329824607	0
3	206	490.311357624162	0
3	215	503.252965294132	0
3	224	511.608754400432	3.821368992079
3	231	517.086397157336	7.625489933648
3	242	537.201367359175	21.610529705495
3	251	547.25369645132	28.441389641938
3	254	555.568395409302	26.778737515539
3	257	562.667100206329	26.045480529451
3	258	564.648057827887	24.77168659694
3	261	570.303495722128	30.291518131985
3	264	576.409290106954	0
3	277	601.646983798841	0
3	292	620.5673933378	0
3	295	624.311027864432	2.39781842645
3	307	646.35204339536	0
3	312	657.379640067769	0
3	344	733.174320689637	0
3	353	765.857088538859	0
3	383	831.36383180455	0
3	386	832.346200738553	0.383571368807
3	401	883.651387035126	32.810786989935
3	402	887.072951431428	21.311166014718
3	415	901.223484359462	0
3	434	932.184322298713	0
3	440	937.929585530627	0
3	454	971.342649776712	0
3	467	983.072545625181	0
3	470	991.427067730116	0
3	479	1015.605515033844	0
3	487	1025.81114179477	0
3	516	1109.798972014767	0
3	530	1149.457133924026	0
3	551	1196.526696454582	0
3	554	1203.386859799847	6.817405071099
3	557	1212.296198874863	2.011054379422
3	566	1235.221032100646	21.234276292696
3	573	1257.460774037053	25.830708558066
3	578	1261.373091743319	20.064911996708
3	581	1263.189796643971	0
3	593	1281.513172219529	0
3	596	1292.096612948606	0
3	609	1300.548189359367	5.655551378607
3	612	1308.761103139422	13.038069386155
3	617	1312.54225602698	16.113509670758
3	622	1324.589651381065	26.64864720238
3	643	1361.559639038212	39.411613697322
3	646	1369.187558024797	46.067059974391
3	647	1372.127394561735	33.834434310354
3	655	1384.918681491055	0
3	661	1412.519964056525	0
3	672	1429.644800299848	0
3	687	1460.956014329632	28.012190531431
3	688	1461.623790956347	6.798097088105
3	693	1474.398111623965	18.160909716251
3	706	1490.010160641559	26.50888734274
3	709	1497.186936928139	20.291736225803
3	716	1520.398811352583	41.746322672873
3	717	1524.834220007977	30.891375511521
3	724	1534.610256199249	21.541871701424
3	727	1543.405825270394	13.089493785787
3	774	1626.275814319071	0
3	785	1648.090529582688	0
3	790	1658.657974146326	10.251140281827
3	793	1660.630232081081	0.539655954841
3	800	1677.308987608988	3.57024161689
3	803	1679.913069402644	3.211120348651
3	804	1682.224350223772	4.413789905291
3	807	1694.63572073883	12.271768460936
3	814	1714.728075880266	13.02728723003
3	817	1721.268971494294	14.600787492386
3	830	1748.582026119455	0
3	853	1779.095334613409	0
3	867	1801.263659048677	0
3	878	1825.874136888878	0
3	884	1830.294960282079	0
3	894	1845.141402175686	0
3	901	1885.574877957284	0
3	946	1962.87460879635	0
3	959	2024.60862566707	0
3	962	2035.11523557977	4.295450644911
3	968	2055.285658945094	0
3	983	2081.351597619549	0
3	995	2096.782173260599	0
3	1001	2106.087901989699	0
3	1025	2154.144294006872	0
3	1033	2167.364661838233	0
3	1040	2176.992351096176	0
3	1049	2206.891406240519	0
3	1061	2247.512079356014	0
3	1070	2306.924212961346	0
3	1076	2348.186366084548	0
3	1085	2370.15674638938	0
3	1109	2425.111267728735	0
3	1121	2451.626198357569	0
3	1127	2469.476608553846	0
3	1133	2490.238705866935	0
4	141	355.05946736505	8
4	152	370.780850023652	6
4	157	386.01824043156	5
4	163	397.684376195028	2
4	167	407.278190585379	1
4	169	407.91544005567	2
4	172	417.79778371846	2
4	176	419.657785982005	1
4	180	424.276063284641	2
4	184	445.699346670034	2
4	188	447.543103794211	1
4	191	460.516704985146	1
4	197	474.19422053615	1
4	200	481.095683169202	1
4	203	486.127831312219	1
4	208	490.485140357307	1
4	212	501.288951545055	1
4	217	505.002956299096	1
4	221	508.839663443019	2
4	226	513.738271046524	3
4	228	514.458292495847	4
4	235	525.229499277953	5
4	237	525.730885217399	6
4	244	537.391873471516	7
4	250	543.219500807899	8
4	253	548.535664666951	9
4	256	560.623706455632	10
4	260	568.939460714816	11
4	268	584.468749162211	11
4	274	599.791279867924	8
4	279	602.50064407349	8
4	283	605.718975695784	8
4	286	616.248476632966	8
4	289	619.18447714698	8
4	299	639.624648878793	7
4	302	641.806301898067	7
4	304	644.169706261645	8
4	314	658.230766056464	6
4	317	659.622136286692	7
4	321	665.804613480816	6
4	327	682.178400840308	3
4	332	700.87674194091	1
4	334	701.285677243009	2
4	338	717.967404583469	1
4	341	722.446726874082	1
4	347	739.610347347772	1
4	349	750.885863105092	2
4	355	769.247020053464	1
4	359	786.806884617963	1
4	362	796.034432044079	1
4	365	801.770196139294	1
4	367	802.643361737249	2
4	369	803.466342464771	3
4	374	821.989938605393	1
4	377	822.971999659924	1
4	379	825.692127493628	2
4	388	837.481048809211	1
4	390	837.528711359265	2
4	394	853.367451096851	3
4	396	864.80791871467	4
4	400	868.699468202168	5
4	406	892.215476562267	5
4	412	896.95419122637	2
4	418	908.783784786466	2
4	421	921.983408396422	2
4	423	923.077491675642	3
4	426	926.313872219769	3
4	428	928.366526091904	4
4	431	931.138786419577	4
4	443	951.775819964726	1
4	446	954.938401825785	1
4	449	960.15791517345	1
4	451	961.941637758824	2
4	458	973.955373969978	1
4	460	974.438970779056	2
4	462	976.208487875792	3
4	472	994.275476802733	1
4	474	998.967850855492	2
4	482	1021.422423220967	1
4	485	1025.61861987627	1
4	489	1034.732109192486	2
4	491	1038.782605635946	3
4	493	1043.159900290471	4
4	497	1064.460086608793	4
4	499	1065.265403748812	5
4	506	1093.886914810011	1
4	508	1095.796884728062	2
4	511	1100.441881947243	2
4	513	1102.411024622887	3
4	518	1110.248847979331	3
4	521	1115.662036455481	4
4	526	1127.991864436109	2
4	532	1150.403494908239	1
4	534	1157.698185414769	2
4	536	1160.726672716901	3
4	542	1179.987550244786	1
4	545	1190.406193379886	1
4	548	1192.060187505366	1
4	561	1214.542207979603	1
4	563	1230.587609546064	2
4	568	1239.074375508244	3
4	572	1257.072305290322	4
4	575	1258.154433461831	5
4	577	1258.463916101759	6
4	583	1268.084140595639	7
4	585	1269.559912571375	8
4	588	1279.343956200392	9
4	591	1281.438934440836	9
4	598	1293.39115214529	10
4	600	1294.09831111435	11
4	611	1306.377084729727	12
4	614	1308.790255576544	13
4	616	1312.306243155178	14
4	624	1325.552127347144	15
4	626	1329.476278199886	16
4	628	1331.977731951153	17
4	630	1335.18914020612	18
4	634	1345.473493177319	19
4	636	1353.837422051082	20
4	638	1355.903882210185	21
4	640	1356.72186603143	22
4	642	1361.4761275669	23
4	645	1367.411236736202	24
4	658	1399.696189430956	20
4	666	1417.078528100198	18
4	669	1420.290782061921	18
4	676	1438.259455455825	18
4	678	1444.792201787484	19
4	680	1449.871614903672	20
4	686	1460.060926220485	21
4	692	1464.592283923065	22
4	695	1476.202711998038	23
4	699	1478.069516448218	24
4	703	1485.640289736562	25
4	705	1487.04370975529	26
4	711	1512.283199849435	27
4	715	1514.492181875754	28
4	719	1525.749158143837	29
4	723	1532.577202008577	30
4	726	1538.005236612714	31
4	734	1551.435827516609	28
4	740	1561.172855466474	25
4	742	1562.687982903677	26
4	745	1576.644626109085	26
4	747	1577.971520441329	27
4	749	1578.224976662378	28
4	752	1580.245655261544	28
4	756	1584.930820075336	27
4	760	1598.806839497624	26
4	764	1609.425566048026	25
4	771	1624.066798678646	21
4	776	1627.508938156312	21
4	782	1644.804533826314	19
4	789	1656.941765470321	19
4	795	1667.440571028196	20
4	809	1696.918963719115	21
4	816	1719.112607261954	22
4	822	1730.314919826024	21
4	826	1747.308895643383	20
4	828	1748.047353153453	21
4	833	1758.501417219979	22
4	835	1759.620362943869	23
4	837	1761.129210365635	24
4	840	1763.813737269511	24
4	847	1770.185782847709	20
4	851	1778.687776808715	19
4	855	1781.263490443706	20
4	858	1783.647511303199	21
4	861	1791.920343721064	21
4	872	1809.927053426328	16
4	876	1824.121326190655	15
4	881	1828.799173711548	16
4	887	1836.776512552437	16
4	896	1863.001971466587	12
4	899	1877.221133022566	13
4	904	1886.960024108163	14
4	908	1894.963428843149	13
4	910	1898.466332015644	14
4	915	1905.001104474535	12
4	919	1918.282732109325	11
4	922	1930.581653249306	11
4	925	1935.826789934323	11
4	930	1942.879357732617	9
4	937	1951.691519557266	5
4	939	1951.845844740435	6
4	943	1955.941756291918	5
4	953	1981.415149903608	1
4	956	1991.932271441198	1
4	965	2036.820239663622	1
4	970	2055.395634036457	1
4	974	2066.336908056797	1
4	977	2068.572735745909	1
4	980	2073.629401755589	1
4	986	2090.373689927269	1
4	989	2091.510531786147	1
4	992	2094.509784816636	1
4	998	2103.10888607586	1
4	1003	2109.544519618569	1
4	1006	2121.370922174609	2
4	1008	2121.865282291356	3
4	1013	2140.760935507749	1
4	1016	2148.408502014201	1
4	1018	2150.88545136286	2
4	1022	2153.152701023359	1
4	1027	2156.826185249186	1
4	1030	2158.885137271309	2
4	1035	2167.645034195839	2
4	1042	2180.820140528645	1
4	1046	2190.617248134383	1
4	1051	2208.631005398133	1
4	1054	2213.327587140208	2
4	1058	2229.887447686045	1
4	1064	2260.949383513056	1
4	1067	2299.27861517504	1
4	1073	2325.819276184382	1
4	1079	2354.169776292782	1
4	1082	2363.140470416597	1
4	1088	2372.742441384221	1
4	1090	2376.357023247149	2
4	1094	2387.929246926715	1
4	1096	2388.368622764903	2
4	1100	2399.324458944691	1
4	1103	2416.76104363929	1
4	1106	2420.683923370384	1
4	1112	2433.483901769592	1
4	1114	2436.064121627286	2
4	1118	2449.110225251561	1
4	1124	2452.839439866003	1
4	1130	2485.429838161415	1
5	141	355.05946736505	7
5	143	357.725303029557	7
5	144	357.825774778348	6
5	145	358.519436916108	5
5	152	370.780850023652	5
5	154	382.47556037525	5
5	155	385.786033825158	4
5	157	386.01824043156	4
5	158	387.001125535048	4
5	159	392.029998609198	3
5	160	393.606891589439	2
5	161	395.956690488776	1
5	163	397.684376195028	1
5	164	404.317559131877	1
5	165	405.333296406269	0
5	167	407.278190585379	0
5	169	407.91544005567	1
5	170	417.33514203939	1
5	172	417.79778371846	1
5	173	418.107060154421	1
5	174	418.550665289605	0
5	176	419.657785982005	0
5	180	424.276063284641	1
5	182	431.61710391332	1
5	184	445.699346670034	1
5	185	445.735197677742	1
5	186	446.238722713655	0
5	188	447.543103794211	0
5	189	447.720698001759	0
5	191	460.516704985146	0
5	192	461.673993371675	0
5	197	474.19422053615	0
5	198	474.332767896339	0
5	200	481.095683169202	0
5	201	482.994427446966	0
5	203	486.127831312219	0
5	204	489.169947028666	0
5	208	490.485140357307	0
5	210	500.748395618868	0
5	212	501.288951545055	0
5	213	501.400305398207	0
5	217	505.002956299096	0
5	221	508.839663443019	1
5	226	513.738271046524	2
5	228	514.458292495847	3
5	235	525.229499277953	4
5	237	525.730885217399	5
5	244	537.391873471516	6
5	250	543.219500807899	7
5	253	548.535664666951	8
5	256	560.623706455632	9
5	260	568.939460714816	10
5	266	581.191805288247	10
5	268	584.468749162211	10
5	269	585.46632464544	10
5	270	586.325716641923	9
5	271	597.578682459985	8
5	272	598.830299170368	7
5	274	599.791279867924	7
5	275	600.598691625916	7
5	279	602.50064407349	7
5	281	603.878701273807	7
5	283	605.718975695784	7
5	284	615.641069472944	7
5	286	616.248476632966	7
5	287	618.657079788069	7
5	289	619.18447714698	7
5	290	619.579799966226	7
5	297	626.764644187367	6
5	299	639.624648878793	6
5	300	640.783410845523	6
5	302	641.806301898067	6
5	304	644.169706261645	7
5	305	645.042864216776	7
5	309	653.701290733019	6
5	310	654.943547619263	5
5	314	658.230766056464	5
5	317	659.622136286692	6
5	318	663.578618125479	6
5	319	663.806246298526	5
5	321	665.804613480816	5
5	322	667.857292274826	5
5	323	670.983453751701	4
5	324	674.416418081049	3
5	325	678.940832650565	2
5	327	682.178400840308	2
5	328	682.633851068877	2
5	329	686.536078337767	1
5	330	687.05397209059	0
5	332	700.87674194091	0
5	334	701.285677243009	1
5	335	708.83013215548	1
5	336	709.787585814997	0
5	338	717.967404583469	0
5	339	719.120190243089	0
5	341	722.446726874082	0
5	342	725.279267191774	0
5	347	739.610347347772	0
5	349	750.885863105092	1
5	350	755.005482470375	1
5	351	757.595106022167	0
5	355	769.247020053464	0
5	357	779.775044513145	0
5	359	786.806884617963	0
5	360	787.146555676206	0
5	362	796.034432044079	0
5	363	799.101598792699	0
5	365	801.770196139294	0
5	367	802.643361737249	1
5	369	803.466342464771	2
5	370	803.536685281458	2
5	371	804.25571213509	1
5	372	809.540677300922	0
5	374	821.989938605393	0
5	375	822.215515923203	0
5	377	822.971999659924	0
5	379	825.692127493628	1
5	380	828.226301400428	1
5	381	828.805384956056	0
5	388	837.481048809211	0
5	390	837.528711359265	1
5	394	853.367451096851	2
5	396	864.80791871467	3
5	400	868.699468202168	4
5	404	888.734258648346	4
5	406	892.215476562267	4
5	407	892.582606644959	4
5	408	892.754691626509	3
5	409	893.801390550101	2
5	410	895.337310710543	1
5	412	896.95419122637	1
5	413	899.779377650289	1
5	418	908.783784786466	1
5	419	913.672700629504	1
5	421	921.983408396422	1
5	423	923.077491675642	2
5	424	925.293444516581	2
5	426	926.313872219769	2
5	428	928.366526091904	3
5	429	929.038184777205	3
5	431	931.138786419577	3
5	432	932.006035664027	3
5	436	934.525333381744	2
5	437	935.760820712806	1
5	438	935.903725177229	0
5	443	951.775819964726	0
5	444	951.809865963988	0
5	446	954.938401825785	0
5	447	958.469937869985	0
5	449	960.15791517345	0
5	451	961.941637758824	1
5	452	969.13688546114	1
5	456	973.790707075929	0
5	458	973.955373969978	0
5	460	974.438970779056	1
5	462	976.208487875792	2
5	463	977.458439330486	2
5	464	981.485912405916	1
5	465	982.758242684162	0
5	472	994.275476802733	0
5	474	998.967850855492	1
5	476	1001.946723908787	1
5	477	1005.81353272573	0
5	482	1021.422423220967	0
5	483	1024.949241974437	0
5	485	1025.61861987627	0
5	489	1034.732109192486	1
5	491	1038.782605635946	2
5	493	1043.159900290471	3
5	495	1062.513101898903	3
5	497	1064.460086608793	3
5	499	1065.265403748812	4
5	500	1075.807965460142	4
5	501	1080.236788369767	3
5	502	1080.25907332314	2
5	503	1084.713291459057	1
5	504	1089.378538554844	0
5	506	1093.886914810011	0
5	508	1095.796884728062	1
5	509	1100.077345426345	1
5	511	1100.441881947243	1
5	513	1102.411024622887	2
5	514	1109.207168548346	2
5	518	1110.248847979331	2
5	521	1115.662036455481	3
5	522	1121.312052207249	3
5	523	1127.143503472161	2
5	524	1127.30467082748	1
5	526	1127.991864436109	1
5	527	1131.67426904521	1
5	528	1131.988702751274	0
5	532	1150.403494908239	0
5	534	1157.698185414769	1
5	536	1160.726672716901	2
5	538	1167.371079454468	2
5	539	1176.063765201643	1
5	540	1176.76970445496	0
5	542	1179.987550244786	0
5	543	1187.682095756969	0
5	545	1190.406193379886	0
5	546	1191.582106160441	0
5	548	1192.060187505366	0
5	549	1196.205101717206	0
5	561	1214.542207979603	0
5	563	1230.587609546064	1
5	568	1239.074375508244	2
5	572	1257.072305290322	3
5	575	1258.154433461831	4
5	577	1258.463916101759	5
5	583	1268.084140595639	6
5	585	1269.559912571375	7
5	588	1279.343956200392	8
5	589	1279.664084178571	8
5	591	1281.438934440836	8
5	598	1293.39115214529	9
5	600	1294.09831111435	10
5	611	1306.377084729727	11
5	614	1308.790255576544	12
5	616	1312.306243155178	13
5	624	1325.552127347144	14
5	626	1329.476278199886	15
5	628	1331.977731951153	16
5	630	1335.18914020612	17
5	634	1345.473493177319	18
5	636	1353.837422051082	19
5	638	1355.903882210185	20
5	640	1356.72186603143	21
5	642	1361.4761275669	22
5	645	1367.411236736202	23
5	649	1375.177126576655	23
5	650	1376.792387220409	22
5	651	1378.363284287462	21
5	652	1379.233816283517	20
5	653	1380.769194242326	19
5	658	1399.696189430956	19
5	659	1405.103369634351	19
5	663	1415.391118595485	18
5	664	1416.91930990288	17
5	666	1417.078528100198	17
5	667	1419.564713181461	17
5	669	1420.290782061921	17
5	670	1425.806941397189	17
5	676	1438.259455455825	17
5	678	1444.792201787484	18
5	680	1449.871614903672	19
5	686	1460.060926220485	20
5	692	1464.592283923065	21
5	695	1476.202711998038	22
5	699	1478.069516448218	23
5	703	1485.640289736562	24
5	705	1487.04370975529	25
5	711	1512.283199849435	26
5	715	1514.492181875754	27
5	719	1525.749158143837	28
5	723	1532.577202008577	29
5	726	1538.005236612714	30
5	729	1549.047038907752	30
5	730	1550.035835205811	29
5	731	1550.667051151336	28
5	732	1551.323578288017	27
5	734	1551.435827516609	27
5	735	1557.581929760758	27
5	736	1557.694816077399	26
5	737	1559.968421286475	25
5	738	1560.908532823883	24
5	740	1561.172855466474	24
5	742	1562.687982903677	25
5	743	1569.429360598927	25
5	745	1576.644626109085	25
5	747	1577.971520441329	26
5	749	1578.224976662378	27
5	750	1580.200215861803	27
5	752	1580.245655261544	27
5	753	1583.595524712661	27
5	754	1583.924135209668	26
5	756	1584.930820075336	26
5	757	1587.730876029783	26
5	758	1588.983464484295	25
5	760	1598.806839497624	25
5	761	1607.252938323469	25
5	762	1608.177058871607	24
5	764	1609.425566048026	24
5	765	1614.33672745069	24
5	766	1616.503581189869	23
5	767	1620.762093613844	22
5	768	1622.517281868258	21
5	769	1622.731387036312	20
5	771	1624.066798678646	20
5	772	1625.78510629958	20
5	776	1627.508938156312	20
5	778	1634.563788566164	20
5	779	1635.099089010298	19
5	780	1637.181659171759	18
5	782	1644.804533826314	18
5	783	1645.218689957047	18
5	789	1656.941765470321	18
5	795	1667.440571028196	19
5	809	1696.918963719115	20
5	816	1719.112607261954	21
5	819	1725.318488766183	21
5	820	1726.611224682039	20
5	822	1730.314919826024	20
5	823	1732.483621895044	20
5	824	1735.898443704253	19
5	826	1747.308895643383	19
5	828	1748.047353153453	20
5	833	1758.501417219979	21
5	835	1759.620362943869	22
5	837	1761.129210365635	23
5	838	1763.339711623278	23
5	840	1763.813737269511	23
5	841	1764.334814168407	23
5	842	1766.287734629827	22
5	843	1766.465036685178	21
5	844	1766.575116417333	20
5	845	1769.437340732914	19
5	847	1770.185782847709	19
5	848	1771.521228045104	19
5	849	1777.089931855195	18
5	851	1778.687776808715	18
5	855	1781.263490443706	19
5	858	1783.647511303199	20
5	859	1790.529843910783	20
5	861	1791.920343721064	20
5	862	1792.662741398655	20
5	863	1795.155182590375	19
5	864	1796.090089513808	18
5	865	1798.057138028819	17
5	869	1806.618498550204	16
5	870	1809.571541211534	15
5	872	1809.927053426328	15
5	873	1816.795465740077	15
5	874	1820.197065753416	14
5	876	1824.121326190655	14
5	881	1828.799173711548	15
5	882	1829.70757809664	15
5	887	1836.776512552437	15
5	888	1838.686789233567	15
5	889	1839.633589443502	14
5	890	1842.807191029011	13
5	891	1843.675306777814	12
5	892	1844.561322813744	11
5	896	1863.001971466587	11
5	899	1877.221133022566	12
5	904	1886.960024108163	13
5	905	1888.786676353511	13
5	906	1891.027026544174	12
5	908	1894.963428843149	12
5	910	1898.466332015644	13
5	911	1903.614288051685	13
5	912	1904.539066551157	12
5	913	1904.541446523733	11
5	915	1905.001104474535	11
5	916	1908.737640658657	11
5	917	1912.065899516894	10
5	919	1918.282732109325	10
5	920	1927.884032179413	10
5	922	1930.581653249306	10
5	923	1933.12231750131	10
5	925	1935.826789934323	10
5	926	1935.915365692537	10
5	927	1936.470431863735	9
5	928	1939.065011985234	8
5	930	1942.879357732617	8
5	931	1944.019578535257	8
5	932	1946.861905555696	7
5	933	1947.259788409951	6
5	934	1950.513554495524	5
5	935	1951.522563560206	4
5	937	1951.691519557266	4
5	939	1951.845844740435	5
5	940	1952.085880957217	5
5	941	1953.612406016084	4
5	943	1955.941756291918	4
5	944	1962.448576950264	4
5	948	1967.012537578913	3
5	949	1970.860273519588	2
5	950	1975.135582944008	1
5	951	1975.46868576362	0
5	953	1981.415149903608	0
5	954	1983.747115762954	0
5	956	1991.932271441198	0
5	957	1994.008556310054	0
5	965	2036.820239663622	0
5	966	2037.722417160013	0
5	970	2055.395634036457	0
5	972	2065.103160702509	0
5	974	2066.336908056797	0
5	975	2066.914590343206	0
5	977	2068.572735745909	0
5	978	2071.69877458543	0
5	980	2073.629401755589	0
5	981	2074.389507067414	0
5	986	2090.373689927269	0
5	987	2091.179626133296	0
5	989	2091.510531786147	0
5	990	2093.292097980869	0
5	992	2094.509784816636	0
5	993	2094.786856793216	0
5	998	2103.10888607586	0
5	999	2103.267781337466	0
5	1003	2109.544519618569	0
5	1006	2121.370922174609	1
5	1008	2121.865282291356	2
5	1009	2123.291930639561	2
5	1010	2123.624628335022	1
5	1011	2127.547684843518	0
5	1013	2140.760935507749	0
5	1014	2144.496529227228	0
5	1016	2148.408502014201	0
5	1018	2150.88545136286	1
5	1019	2152.515698621875	1
5	1020	2152.81082410679	0
5	1022	2153.152701023359	0
5	1023	2153.804752822703	0
5	1027	2156.826185249186	0
5	1030	2158.885137271309	1
5	1031	2165.800705773185	1
5	1035	2167.645034195839	1
5	1037	2174.035298741265	1
5	1038	2175.392570829233	0
5	1042	2180.820140528645	0
5	1044	2183.469488297844	0
5	1046	2190.617248134383	0
5	1047	2191.687812903817	0
5	1051	2208.631005398133	0
5	1054	2213.327587140208	1
5	1055	2221.679998767335	1
5	1056	2223.37717585578	0
5	1058	2229.887447686045	0
5	1059	2239.740086516598	0
5	1064	2260.949383513056	0
5	1065	2260.983089595417	0
5	1067	2299.27861517504	0
5	1068	2300.517282839332	0
5	1073	2325.819276184382	0
5	1074	2329.525416195724	0
5	1079	2354.169776292782	0
5	1080	2354.396015027359	0
5	1082	2363.140470416597	0
5	1083	2368.089031847606	0
5	1088	2372.742441384221	0
5	1090	2376.357023247149	1
5	1091	2377.735982556381	1
5	1092	2378.980895872288	0
5	1094	2387.929246926715	0
5	1096	2388.368622764903	1
5	1097	2395.48277681571	1
5	1098	2396.45305297355	0
5	1100	2399.324458944691	0
5	1101	2400.795904980784	0
5	1103	2416.76104363929	0
5	1104	2417.034158885104	0
5	1106	2420.683923370384	0
5	1107	2424.497259350282	0
5	1112	2433.483901769592	0
5	1114	2436.064121627286	1
5	1115	2438.795559827259	1
5	1116	2447.249082013595	0
5	1118	2449.110225251561	0
5	1119	2449.292578768471	0
5	1124	2452.839439866003	0
5	1125	2456.404071396204	0
5	1130	2485.429838161415	0
5	1131	2487.407046783045	0
6	142	356.172175224029	17
6	148	359.713187106573	18
6	153	382.028093215176	19
6	181	429.121542653068	20
6	195	472.144269745197	21
6	209	497.432951762818	22
6	224	511.608754400432	23
6	231	517.086397157336	24
6	242	537.201367359175	25
6	251	547.25369645132	26
6	254	555.568395409302	27
6	257	562.667100206329	28
6	258	564.648057827887	29
6	261	570.303495722128	30
6	262	572.519682930826	31
6	265	579.54488447686	32
6	280	603.558596544506	33
6	295	624.311027864432	34
6	296	624.942103953838	35
6	308	653.473182667564	36
6	315	658.904699233199	37
6	345	737.889209208413	38
6	356	775.538089293945	39
6	386	832.346200738553	40
6	401	883.651387035126	41
6	402	887.072951431428	42
6	403	888.231820506528	43
6	416	907.81728394231	44
6	435	934.054723208453	45
6	441	939.444853996671	46
6	455	973.790332454166	47
6	468	989.097780999329	48
6	475	1001.736523643975	49
6	480	1016.965387632569	50
6	494	1055.334272615352	51
6	519	1115.011770953647	52
6	537	1160.745052401669	53
6	554	1203.386859799847	54
6	557	1212.296198874863	55
6	566	1235.221032100646	56
6	573	1257.460774037053	57
6	578	1261.373091743319	58
6	579	1261.980932927813	59
6	586	1278.979005741734	60
6	594	1283.281709396942	61
6	609	1300.548189359367	62
6	612	1308.761103139422	63
6	617	1312.54225602698	64
6	622	1324.589651381065	65
6	643	1361.559639038212	66
6	646	1369.187558024797	67
6	647	1372.127394561735	68
6	648	1372.381389772357	69
6	656	1394.869656335013	70
6	662	1415.03803289337	71
6	687	1460.956014329632	72
6	688	1461.623790956347	73
6	693	1474.398111623965	74
6	706	1490.010160641559	75
6	709	1497.186936928139	76
6	716	1520.398811352583	77
6	717	1524.834220007977	78
6	724	1534.610256199249	79
6	727	1543.405825270394	80
6	728	1543.597759233777	81
6	777	1633.356669275886	82
6	790	1658.657974146326	83
6	793	1660.630232081081	84
6	800	1677.308987608988	85
6	803	1679.913069402644	86
6	804	1682.224350223772	87
6	807	1694.63572073883	88
6	814	1714.728075880266	89
6	817	1721.268971494294	90
6	818	1725.195412577216	91
6	831	1753.574344139704	92
6	856	1783.118574332478	93
6	868	1804.413135049449	94
6	879	1827.528247335431	95
6	885	1836.03514859555	96
6	897	1876.976690112801	97
6	902	1885.677065617251	98
6	947	1965.693483082138	99
6	962	2035.11523557977	100
6	963	2036.594714116829	101
6	971	2062.325226977739	102
6	984	2081.438309305889	103
6	996	2102.635555165068	104
6	1004	2118.220665712646	105
6	1028	2157.203165952213	106
6	1036	2172.621679800755	107
6	1043	2181.097886574181	108
6	1052	2211.626557450301	109
6	1062	2252.266959260316	110
6	1071	2318.26140876604	111
6	1077	2350.634000652608	112
6	1086	2372.657029574948	113
6	1110	2433.453865746017	114
6	1122	2452.486431727641	115
6	1128	2478.786074060864	116
7	142	356.172175224029	3.514567784899
7	148	359.713187106573	0.419487547945
7	153	382.028093215176	20.338422659253
7	181	429.121542653068	5.611322047482
7	195	472.144269745197	7.83393992059
7	209	497.432951762818	7.121594138656
7	224	511.608754400432	8.3557891063
7	231	517.086397157336	9.299011748983
7	242	537.201367359175	27.740460135487
7	251	547.25369645132	31.66285879764
7	254	555.568395409302	36.75608859992
7	257	562.667100206329	33.877442312566
7	258	564.648057827887	28.026438151009
7	261	570.303495722128	30.427124491181
7	262	572.519682930826	32.507705340683
7	265	579.54488447686	3.135594369906
7	280	603.558596544506	1.911612745665
7	295	624.311027864432	3.743634526632
7	296	624.942103953838	3.028894515856
7	308	653.473182667564	7.121139272204
7	315	658.904699233199	1.52505916543
7	345	737.889209208413	4.714888518776
7	356	775.538089293945	9.681000755086
7	386	832.346200738553	0.982368934003
7	401	883.651387035126	51.68875766538
7	402	887.072951431428	36.232351386237
7	403	888.231820506528	22.470035089818
7	416	907.81728394231	6.593799582848
7	435	934.054723208453	1.87040090974
7	441	939.444853996671	1.515268466044
7	455	973.790332454166	2.447682677454
7	468	989.097780999329	6.025235374148
7	475	1001.736523643975	10.309455913859
7	480	1016.965387632569	1.359872598725
7	494	1055.334272615352	29.523130820582
7	519	1115.011770953647	5.21279893888
7	537	1160.745052401669	11.287918477643
7	554	1203.386859799847	6.860163345265
7	557	1212.296198874863	15.726744146115
7	566	1235.221032100646	24.935887605205
7	573	1257.460774037053	43.474018229103
7	578	1261.373091743319	29.743026264332
7	579	1261.980932927813	20.672753181202
7	586	1278.979005741734	15.789209097763
7	594	1283.281709396942	1.768537177413
7	609	1300.548189359367	8.451576410761
7	612	1308.761103139422	13.868465158662
7	617	1312.54225602698	16.819222273713
7	622	1324.589651381065	28.160905024843
7	643	1361.559639038212	63.618634859527
7	646	1369.187558024797	47.039532683907
7	647	1372.127394561735	49.006896511329
7	648	1372.381389772357	34.088429520976
7	656	1394.869656335013	9.950974843958
7	662	1415.03803289337	2.518068836845
7	687	1460.956014329632	31.311214029784
7	688	1461.623790956347	28.679967158146
7	693	1474.398111623965	19.572417755723
7	706	1490.010160641559	33.772958733845
7	709	1497.186936928139	33.68566362932
7	716	1520.398811352583	43.503610650247
7	717	1524.834220007977	46.181731328267
7	724	1534.610256199249	40.667411702793
7	727	1543.405825270394	30.337440772569
7	728	1543.597759233777	13.28142774917
7	777	1633.356669275886	7.080854956815
7	790	1658.657974146326	10.567444563638
7	793	1660.630232081081	12.223398216582
7	800	1677.308987608988	17.218411482748
7	803	1679.913069402644	6.174323410546
7	804	1682.224350223772	5.522401169779
7	807	1694.63572073883	16.825160420349
7	814	1714.728075880266	32.364123602372
7	817	1721.268971494294	19.568182844058
7	818	1725.195412577216	18.527228575308
7	831	1753.574344139704	4.992318020249
7	856	1783.118574332478	4.023239719069
7	868	1804.413135049449	3.149476000772
7	879	1827.528247335431	1.654110446553
7	885	1836.03514859555	5.740188313471
7	897	1876.976690112801	31.835287937115
7	902	1885.677065617251	0.102187659967
7	947	1965.693483082138	2.818874285788
7	962	2035.11523557977	10.5066099127
7	963	2036.594714116829	5.77492918197
7	971	2062.325226977739	7.039568032645
7	984	2081.438309305889	0.08671168634
7	996	2102.635555165068	5.853381904469
7	1004	2118.220665712646	12.132763722947
7	1028	2157.203165952213	3.058871945341
7	1036	2172.621679800755	5.257017962522
7	1043	2181.097886574181	4.105535478005
7	1052	2211.626557450301	4.735151209782
7	1062	2252.266959260316	4.754879904302
7	1071	2318.26140876604	11.337195804694
7	1077	2350.634000652608	2.44763456806
7	1086	2372.657029574948	2.500283185568
7	1110	2433.453865746017	8.342598017282
7	1122	2452.486431727641	0.860233370072
7	1128	2478.786074060864	9.309465507018
8	142	356.172175224029	33.901991168693
8	143	357.725303029557	32.088229594521
8	144	357.825774778348	30.378064492919
8	145	358.519436916108	24.712690905994
8	148	359.713187106573	15.848140253242
8	153	382.028093215176	35.73363724201
8	154	382.47556037525	29.81795293612
8	155	385.786033825158	30.726566460108
8	158	387.001125535048	27.70742597642
8	159	392.029998609198	30.340328053275
8	160	393.606891589439	22.826041565787
8	161	395.956690488776	9.938450057216
8	164	404.317559131877	6.633182936849
8	167	407.278190585379	0
8	170	417.33514203939	9.41970198372
8	173	418.107060154421	0.309276435961
8	176	419.657785982005	0
8	181	429.121542653068	5.611322047482
8	182	431.61710391332	7.341040628679
8	185	445.735197677742	0.035851007708
8	188	447.543103794211	0
8	191	460.516704985146	0
8	197	474.19422053615	0
8	200	481.095683169202	0
8	203	486.127831312219	0
8	209	497.432951762818	6.947811405511
8	212	501.288951545055	0
8	262	572.519682930826	67.51672663173
8	265	579.54488447686	70.705221033841
8	266	581.191805288247	67.453534241723
8	269	585.46632464544	71.008032149593
8	270	586.325716641923	61.09621736397
8	271	597.578682459985	71.847797242586
8	272	598.830299170368	61.438425698852
8	275	600.598691625916	57.379190818017
8	280	603.558596544506	55.022931877555
8	281	603.878701273807	43.254994818175
8	284	615.641069472944	46.701608758128
8	287	618.657079788069	42.247789681115
8	290	619.579799966226	35.111050804015
8	296	624.942103953838	25.150824085914
8	297	626.764644187367	25.117660388526
8	300	640.783410845523	38.282766772033
8	305	645.042864216776	39.323888520992
8	308	653.473182667564	37.224706034598
8	309	653.701290733019	34.516813586039
8	310	654.943547619263	34.376154281463
8	315	658.904699233199	19.280050354406
8	318	663.578618125479	21.772316227412
8	319	663.806246298526	19.636540036881
8	322	667.857292274826	21.505248879466
8	323	670.983453751701	13.603813683932
8	324	674.416418081049	16.185652024585
8	325	678.940832650565	19.318696363873
8	328	682.633851068877	16.829237588061
8	329	686.536078337767	4.357677497459
8	332	700.87674194091	0
8	335	708.83013215548	7.544454912471
8	338	717.967404583469	0
8	341	722.446726874082	0
8	347	739.610347347772	0
8	350	755.005482470375	4.119619365283
8	356	775.538089293945	6.291069240481
8	359	786.806884617963	0
8	362	796.034432044079	0
8	365	801.770196139294	0
8	370	803.536685281458	0.893323544209
8	371	804.25571213509	0.789369670319
8	374	821.989938605393	0
8	377	822.971999659924	0
8	380	828.226301400428	2.5341739068
8	403	888.231820506528	50.750771697317
8	404	888.734258648346	51.205547289081
8	407	892.582606644959	39.215155548108
8	408	892.754691626509	27.946772911839
8	409	893.801390550101	25.101922347933
8	410	895.337310710543	3.121834148276
8	413	899.779377650289	2.825186423919
8	416	907.81728394231	6.593799582848
8	419	913.672700629504	4.888915843038
8	424	925.293444516581	3.310036120159
8	429	929.038184777205	5.960693101563
8	432	932.006035664027	5.692163444258
8	435	934.054723208453	5.688197116549
8	436	934.525333381744	3.386546962167
8	437	935.760820712806	3.576498414093
8	443	951.775819964726	0
8	446	954.938401825785	0
8	449	960.15791517345	0
8	452	969.13688546114	7.195247702316
8	455	973.790332454166	2.447682677454
8	458	973.955373969978	0
8	463	977.458439330486	3.01946855143
8	464	981.485912405916	5.277424530124
8	475	1001.736523643975	7.461046841242
8	476	1001.946723908787	2.978873053295
8	482	1021.422423220967	0
8	485	1025.61861987627	0
8	494	1055.334272615352	29.523130820582
8	495	1062.513101898903	27.780992706417
8	500	1075.807965460142	37.025359824196
8	501	1080.236788369767	37.076888079296
8	502	1080.25907332314	15.798986714347
8	503	1084.713291459057	19.447887710245
8	506	1093.886914810011	0
8	509	1100.077345426345	4.280460698283
8	514	1109.207168548346	8.765286601103
8	519	1115.011770953647	12.60074633076
8	522	1121.312052207249	11.513080192482
8	523	1127.143503472161	16.89465549283
8	524	1127.30467082748	11.642634371999
8	527	1131.67426904521	3.682404609101
8	537	1160.745052401669	10.34155749343
8	538	1167.371079454468	9.672894039699
8	539	1176.063765201643	15.337092484742
8	542	1179.987550244786	0
8	545	1190.406193379886	0
8	548	1192.060187505366	0
8	579	1261.980932927813	47.43872494821
8	586	1278.979005741734	48.39139619567
8	589	1279.664084178571	40.589708670327
8	594	1283.281709396942	26.20940410662
8	648	1372.381389772357	114.22695631053
8	649	1375.177126576655	116.7132104749
8	650	1376.792387220409	113.60259057644
8	651	1378.363284287462	110.27914369182
8	652	1379.233816283517	109.67390371214
8	653	1380.769194242326	101.42523804193
8	656	1394.869656335013	113.43072189418
8	659	1405.103369634351	123.59019741482
8	662	1415.03803289337	122.94141994476
8	663	1415.391118595485	121.9999664502
8	664	1416.91930990288	122.82099878853
8	667	1419.564713181461	113.18762845173
8	670	1425.806941397189	117.01668582064
8	728	1543.597759233777	231.2915160786
8	729	1549.047038907752	223.49491156061
8	730	1550.035835205811	220.55955700593
8	731	1550.667051151336	218.68931920018
8	732	1551.323578288017	216.1344380819
8	735	1557.581929760758	212.10843658344
8	736	1557.694816077399	203.85739402632
8	737	1559.968421286475	204.06453907629
8	738	1560.908532823883	204.18666679245
8	743	1569.429360598927	207.95323303203
8	750	1580.200215861803	212.7889791256
8	753	1583.595524712661	198.67684322161
8	754	1583.924135209668	184.22794577871
8	757	1587.730876029783	175.21091197326
8	758	1588.983464484295	171.9049363841
8	761	1607.252938323469	186.96215626155
8	762	1608.177058871607	178.53225857176
8	765	1614.33672745069	176.07727199486
8	766	1616.503581189869	171.71137940239
8	767	1620.762093613844	170.89047871017
8	768	1622.517281868258	162.45635564777
8	769	1622.731387036312	158.13910311325
8	772	1625.78510629958	149.58239430154
8	777	1633.356669275886	155.28715282767
8	778	1634.563788566164	148.9234988296
8	779	1635.099089010298	148.05537925501
8	780	1637.181659171759	124.89845932232
8	783	1645.218689957047	130.72650808129
8	818	1725.195412577216	199.44625443338
8	819	1725.318488766183	192.74128675761
8	820	1726.611224682039	188.60598806933
8	823	1732.483621895044	181.04779437843
8	824	1735.898443704253	174.72558823778
8	831	1753.574344139704	190.88636123603
8	838	1763.339711623278	186.69508551419
8	841	1764.334814168407	186.36329372708
8	842	1766.287734629827	188.06275796745
8	843	1766.465036685178	186.21938142363
8	844	1766.575116417333	181.644296342
8	845	1769.437340732914	170.63050123529
8	848	1771.521228045104	162.09566199708
8	849	1777.089931855195	153.02313317655
8	856	1783.118574332478	156.84276001341
8	859	1790.529843910783	163.02090575447
8	862	1792.662741398655	147.85820757234
8	863	1795.155182590375	147.06465300769
8	864	1796.090089513808	139.14832404349
8	865	1798.057138028819	130.61656700062
8	868	1804.413135049449	107.49417133033
8	869	1806.618498550204	87.50589128825
8	870	1809.571541211534	79.25662138551
8	873	1816.795465740077	69.486570096694
8	874	1820.197065753416	72.149712599963
8	879	1827.528247335431	78.946221215976
8	882	1829.70757809664	71.206160876661
8	885	1836.03514859555	76.414785651681
8	888	1838.686789233567	77.557578867932
8	889	1839.633589443502	75.819852173991
8	890	1842.807191029011	72.621408181302
8	891	1843.675306777814	64.987529969099
8	892	1844.561322813744	65.465988200335
8	897	1876.976690112801	95.713199669095
8	902	1885.677065617251	102.02955431405
8	905	1888.786676353511	96.866332632447
8	906	1891.027026544174	89.763367495497
8	911	1903.614288051685	93.687234625357
8	912	1904.539066551157	80.417740360502
8	913	1904.541446523733	78.667309634855
8	916	1908.737640658657	79.938466947109
8	917	1912.065899516894	81.770939234815
8	920	1927.884032179413	91.107519626976
8	923	1933.12231750131	87.980915325624
8	926	1935.915365692537	72.91339422595
8	927	1936.470431863735	59.249298841169
8	928	1939.065011985234	53.49013402795
8	931	1944.019578535257	57.059554427094
8	932	1946.861905555696	51.898476712547
8	933	1947.259788409951	48.793456394307
8	934	1950.513554495524	45.512450020989
8	935	1951.522563560206	33.239831450881
8	940	1952.085880957217	21.504227707911
8	941	1953.612406016084	17.785616081761
8	944	1962.448576950264	19.569219217647
8	947	1965.693483082138	14.001963524872
8	948	1967.012537578913	15.166692838478
8	949	1970.860273519588	14.91851722767
8	950	1975.135582944008	12.260974147658
8	953	1981.415149903608	0
8	956	1991.932271441198	0
8	965	2036.820239663622	0
8	971	2062.325226977739	6.929592941282
8	974	2066.336908056797	0
8	977	2068.572735745909	0
8	980	2073.629401755589	0
8	986	2090.373689927269	0
8	989	2091.510531786147	0
8	992	2094.509784816636	0
8	998	2103.10888607586	0
8	1004	2118.220665712646	8.676146094077
8	1009	2123.291930639561	1.921008464952
8	1010	2123.624628335022	1.759346043666
8	1013	2140.760935507749	0
8	1016	2148.408502014201	0
8	1019	2152.515698621875	1.630247259015
8	1022	2153.152701023359	0
8	1028	2157.203165952213	0.376980703027
8	1031	2165.800705773185	6.915568501876
8	1036	2172.621679800755	5.257017962522
8	1037	2174.035298741265	6.390264545426
8	1043	2181.097886574181	0.277746045536
8	1046	2190.617248134383	0
8	1052	2211.626557450301	2.995552052168
8	1055	2221.679998767335	8.352411627127
8	1058	2229.887447686045	0
8	1064	2260.949383513056	0
8	1067	2299.27861517504	0
8	1073	2325.819276184382	0
8	1079	2354.169776292782	0
8	1082	2363.140470416597	0
8	1088	2372.742441384221	0
8	1091	2377.735982556381	1.378959309232
8	1094	2387.929246926715	0
8	1097	2395.48277681571	7.114154050807
8	1100	2399.324458944691	0
8	1103	2416.76104363929	0
8	1106	2420.683923370384	0
8	1112	2433.483901769592	0
8	1115	2438.795559827259	2.731438199973
8	1118	2449.110225251561	0
8	1124	2452.839439866003	0
8	1130	2485.429838161415	0
9	143	357.725303029557	26
9	144	357.825774778348	27
9	145	358.519436916108	28
9	154	382.47556037525	29
9	155	385.786033825158	30
9	158	387.001125535048	31
9	159	392.029998609198	32
9	160	393.606891589439	33
9	161	395.956690488776	34
9	164	404.317559131877	35
9	165	405.333296406269	36
9	170	417.33514203939	37
9	173	418.107060154421	38
9	174	418.550665289605	39
9	182	431.61710391332	40
9	185	445.735197677742	41
9	186	446.238722713655	42
9	189	447.720698001759	43
9	192	461.673993371675	44
9	198	474.332767896339	45
9	201	482.994427446966	46
9	204	489.169947028666	47
9	210	500.748395618868	48
9	213	501.400305398207	49
9	266	581.191805288247	50
9	269	585.46632464544	51
9	270	586.325716641923	52
9	271	597.578682459985	53
9	272	598.830299170368	54
9	275	600.598691625916	55
9	281	603.878701273807	56
9	284	615.641069472944	57
9	287	618.657079788069	58
9	290	619.579799966226	59
9	297	626.764644187367	60
9	300	640.783410845523	61
9	305	645.042864216776	62
9	309	653.701290733019	63
9	310	654.943547619263	64
9	318	663.578618125479	65
9	319	663.806246298526	66
9	322	667.857292274826	67
9	323	670.983453751701	68
9	324	674.416418081049	69
9	325	678.940832650565	70
9	328	682.633851068877	71
9	329	686.536078337767	72
9	330	687.05397209059	73
9	335	708.83013215548	74
9	336	709.787585814997	75
9	339	719.120190243089	76
9	342	725.279267191774	77
9	350	755.005482470375	78
9	351	757.595106022167	79
9	357	779.775044513145	80
9	360	787.146555676206	81
9	363	799.101598792699	82
9	370	803.536685281458	83
9	371	804.25571213509	84
9	372	809.540677300922	85
9	375	822.215515923203	86
9	380	828.226301400428	87
9	381	828.805384956056	88
9	404	888.734258648346	89
9	407	892.582606644959	90
9	408	892.754691626509	91
9	409	893.801390550101	92
9	410	895.337310710543	93
9	413	899.779377650289	94
9	419	913.672700629504	95
9	424	925.293444516581	96
9	429	929.038184777205	97
9	432	932.006035664027	98
9	436	934.525333381744	99
9	437	935.760820712806	100
9	438	935.903725177229	101
9	444	951.809865963988	102
9	447	958.469937869985	103
9	452	969.13688546114	104
9	456	973.790707075929	105
9	463	977.458439330486	106
9	464	981.485912405916	107
9	465	982.758242684162	108
9	476	1001.946723908787	109
9	477	1005.81353272573	110
9	483	1024.949241974437	111
9	495	1062.513101898903	112
9	500	1075.807965460142	113
9	501	1080.236788369767	114
9	502	1080.25907332314	115
9	503	1084.713291459057	116
9	504	1089.378538554844	117
9	509	1100.077345426345	118
9	514	1109.207168548346	119
9	522	1121.312052207249	120
9	523	1127.143503472161	121
9	524	1127.30467082748	122
9	527	1131.67426904521	123
9	528	1131.988702751274	124
9	538	1167.371079454468	125
9	539	1176.063765201643	126
9	540	1176.76970445496	127
9	543	1187.682095756969	128
9	546	1191.582106160441	129
9	549	1196.205101717206	130
9	589	1279.664084178571	131
9	649	1375.177126576655	132
9	650	1376.792387220409	133
9	651	1378.363284287462	134
9	652	1379.233816283517	135
9	653	1380.769194242326	136
9	659	1405.103369634351	137
9	663	1415.391118595485	138
9	664	1416.91930990288	139
9	667	1419.564713181461	140
9	670	1425.806941397189	141
9	729	1549.047038907752	142
9	730	1550.035835205811	143
9	731	1550.667051151336	144
9	732	1551.323578288017	145
9	735	1557.581929760758	146
9	736	1557.694816077399	147
9	737	1559.968421286475	148
9	738	1560.908532823883	149
9	743	1569.429360598927	150
9	750	1580.200215861803	151
9	753	1583.595524712661	152
9	754	1583.924135209668	153
9	757	1587.730876029783	154
9	758	1588.983464484295	155
9	761	1607.252938323469	156
9	762	1608.177058871607	157
9	765	1614.33672745069	158
9	766	1616.503581189869	159
9	767	1620.762093613844	160
9	768	1622.517281868258	161
9	769	1622.731387036312	162
9	772	1625.78510629958	163
9	778	1634.563788566164	164
9	779	1635.099089010298	165
9	780	1637.181659171759	166
9	783	1645.218689957047	167
9	819	1725.318488766183	168
9	820	1726.611224682039	169
9	823	1732.483621895044	170
9	824	1735.898443704253	171
9	838	1763.339711623278	172
9	841	1764.334814168407	173
9	842	1766.287734629827	174
9	843	1766.465036685178	175
9	844	1766.575116417333	176
9	845	1769.437340732914	177
9	848	1771.521228045104	178
9	849	1777.089931855195	179
9	859	1790.529843910783	180
9	862	1792.662741398655	181
9	863	1795.155182590375	182
9	864	1796.090089513808	183
9	865	1798.057138028819	184
9	869	1806.618498550204	185
9	870	1809.571541211534	186
9	873	1816.795465740077	187
9	874	1820.197065753416	188
9	882	1829.70757809664	189
9	888	1838.686789233567	190
9	889	1839.633589443502	191
9	890	1842.807191029011	192
9	891	1843.675306777814	193
9	892	1844.561322813744	194
9	905	1888.786676353511	195
9	906	1891.027026544174	196
9	911	1903.614288051685	197
9	912	1904.539066551157	198
9	913	1904.541446523733	199
9	916	1908.737640658657	200
9	917	1912.065899516894	201
9	920	1927.884032179413	202
9	923	1933.12231750131	203
9	926	1935.915365692537	204
9	927	1936.470431863735	205
9	928	1939.065011985234	206
9	931	1944.019578535257	207
9	932	1946.861905555696	208
9	933	1947.259788409951	209
9	934	1950.513554495524	210
9	935	1951.522563560206	211
9	940	1952.085880957217	212
9	941	1953.612406016084	213
9	944	1962.448576950264	214
9	948	1967.012537578913	215
9	949	1970.860273519588	216
9	950	1975.135582944008	217
9	951	1975.46868576362	218
9	954	1983.747115762954	219
9	957	1994.008556310054	220
9	966	2037.722417160013	221
9	972	2065.103160702509	222
9	975	2066.914590343206	223
9	978	2071.69877458543	224
9	981	2074.389507067414	225
9	987	2091.179626133296	226
9	990	2093.292097980869	227
9	993	2094.786856793216	228
9	999	2103.267781337466	229
9	1009	2123.291930639561	230
9	1010	2123.624628335022	231
9	1011	2127.547684843518	232
9	1014	2144.496529227228	233
9	1019	2152.515698621875	234
9	1020	2152.81082410679	235
9	1023	2153.804752822703	236
9	1031	2165.800705773185	237
9	1037	2174.035298741265	238
9	1038	2175.392570829233	239
9	1044	2183.469488297844	240
9	1047	2191.687812903817	241
9	1055	2221.679998767335	242
9	1056	2223.37717585578	243
9	1059	2239.740086516598	244
9	1065	2260.983089595417	245
9	1068	2300.517282839332	246
9	1074	2329.525416195724	247
9	1080	2354.396015027359	248
9	1083	2368.089031847606	249
9	1091	2377.735982556381	250
9	1092	2378.980895872288	251
9	1097	2395.48277681571	252
9	1098	2396.45305297355	253
9	1101	2400.795904980784	254
9	1104	2417.034158885104	255
9	1107	2424.497259350282	256
9	1115	2438.795559827259	257
9	1116	2447.249082013595	258
9	1119	2449.292578768471	259
9	1125	2456.404071396204	260
9	1131	2487.407046783045	261
10	143	357.725303029557	35.455118974221
10	144	357.825774778348	32.188701343312
10	145	358.519436916108	31.071726630679
10	154	382.47556037525	36.181104402084
10	155	385.786033825158	33.128426386028
10	158	387.001125535048	31.941658169998
10	159	392.029998609198	32.73629905057
10	160	393.606891589439	31.917221033516
10	161	395.956690488776	25.175840465124
10	164	404.317559131877	18.299318700317
10	165	405.333296406269	7.648920211241
10	170	417.33514203939	10.056951454011
10	173	418.107060154421	10.191620098751
10	174	418.550665289605	0.752881571145
10	182	431.61710391332	8.106883307734
10	185	445.735197677742	21.459134393101
10	186	446.238722713655	0.539376043621
10	189	447.720698001759	0.177594207548
10	192	461.673993371675	1.157288386529
10	198	474.332767896339	0.138547360189
10	201	482.994427446966	1.898744277764
10	204	489.169947028666	3.042115716447
10	210	500.748395618868	10.263255261561
10	213	501.400305398207	0.111353853152
10	266	581.191805288247	72.352141845228
10	269	585.46632464544	71.728053598916
10	270	586.325716641923	71.867424146076
10	271	597.578682459985	72.349183182032
10	272	598.830299170368	73.099413952969
10	275	600.598691625916	63.2068181544
10	281	603.878701273807	55.343036606856
10	284	615.641069472944	55.017363017312
10	287	618.657079788069	49.717619073253
10	290	619.579799966226	43.170509859272
10	297	626.764644187367	26.973364319443
10	300	640.783410845523	39.136427046682
10	305	645.042864216776	42.542220143286
10	309	653.701290733019	37.452814100053
10	310	654.943547619263	35.759070472283
10	318	663.578618125479	23.953969246686
10	319	663.806246298526	21.999944400459
10	322	667.857292274826	23.687586013181
10	323	670.983453751701	24.631410356341
10	324	674.416418081049	17.03677801328
10	325	678.940832650565	20.710066594101
10	328	682.633851068877	23.011714782185
10	329	686.536078337767	20.731464856951
10	330	687.05397209059	4.875571250282
10	335	708.83013215548	7.95339021457
10	336	709.787585814997	8.501908571988
10	339	719.120190243089	1.15278565962
10	342	725.279267191774	2.832540317692
10	350	755.005482470375	15.395135122603
10	351	757.595106022167	6.709242917075
10	357	779.775044513145	10.528024459681
10	360	787.146555676206	0.339671058243
10	363	799.101598792699	3.06716674862
10	370	803.536685281458	1.766489142164
10	371	804.25571213509	1.612350397841
10	372	809.540677300922	6.074334836151
10	375	822.215515923203	0.22557731781
10	380	828.226301400428	5.254301740504
10	381	828.805384956056	3.113257462428
10	404	888.734258648346	51.253209839135
10	407	892.582606644959	55.053895285694
10	408	892.754691626509	39.387240529658
10	409	893.801390550101	28.993471835431
10	410	895.337310710543	26.637842508375
10	413	899.779377650289	7.563901088022
10	419	913.672700629504	12.449216270042
10	424	925.293444516581	16.509659730115
10	429	929.038184777205	7.054776380783
10	432	932.006035664027	8.928543988385
10	436	934.525333381744	6.15880728984
10	437	935.760820712806	4.622034293229
10	438	935.903725177229	3.719402878516
10	444	951.809865963988	0.034045999262
10	447	958.469937869985	3.5315360442
10	452	969.13688546114	8.97897028769
10	456	973.790707075929	2.448057299217
10	463	977.458439330486	3.503065360508
10	464	981.485912405916	7.04694162686
10	465	982.758242684162	6.54975480837
10	476	1001.946723908787	7.671247106054
10	477	1005.81353272573	6.845681870238
10	483	1024.949241974437	3.52681875347
10	495	1062.513101898903	36.701960104133
10	500	1075.807965460142	41.075856267656
10	501	1080.236788369767	41.454182733821
10	502	1080.25907332314	37.099173032669
10	503	1084.713291459057	20.253204850264
10	504	1089.378538554844	24.113134806032
10	509	1100.077345426345	6.190430616334
10	514	1109.207168548346	13.410283820284
10	522	1121.312052207249	18.901027584362
10	523	1127.143503472161	17.344531457394
10	524	1127.30467082748	17.055822848149
10	527	1131.67426904521	16.012232589729
10	528	1131.988702751274	3.996838315165
10	538	1167.371079454468	16.967584546229
10	539	1176.063765201643	18.365579786874
10	540	1176.76970445496	16.043031738059
10	543	1187.682095756969	7.694545512183
10	546	1191.582106160441	1.175912780555
10	549	1196.205101717206	4.14491421184
10	589	1279.664084178571	49.076474632507
10	649	1375.177126576655	117.02269311482
10	650	1376.792387220409	118.32847111865
10	651	1378.363284287462	115.17348764349
10	652	1379.233816283517	111.14967568788
10	653	1380.769194242326	111.20928167095
10	659	1405.103369634351	123.66443519352
10	663	1415.391118595485	123.29450564688
10	664	1416.91930990288	123.52815775759
10	667	1419.564713181461	125.46640206711
10	670	1425.806941397189	119.42985666746
10	729	1549.047038907752	236.74079575257
10	730	1550.035835205811	224.48370785867
10	731	1550.667051151336	221.19077295145
10	732	1551.323578288017	219.34584633686
10	735	1557.581929760758	222.39278955464
10	736	1557.694816077399	212.22132290008
10	737	1559.968421286475	206.13099923539
10	738	1560.908532823883	205.0046506137
10	743	1569.429360598927	212.7074945675
10	750	1580.200215861803	218.7240882949
10	753	1583.595524712661	216.18428797646
10	754	1583.924135209668	199.00545371861
10	757	1587.730876029783	188.03468659883
10	758	1588.983464484295	176.46350042777
10	761	1607.252938323469	190.17441022327
10	762	1608.177058871607	187.88627680969
10	765	1614.33672745069	184.69192715084
10	766	1616.503581189869	178.24412573404
10	767	1620.762093613844	175.96989182636
10	768	1622.517281868258	172.64566696459
10	769	1622.731387036312	162.67046081583
10	772	1625.78510629958	161.19282237652
10	778	1634.563788566164	156.49427211795
10	779	1635.099089010298	149.45879927374
10	780	1637.181659171759	150.13794941647
10	783	1645.218689957047	132.93549010761
10	819	1725.318488766183	199.56933062235
10	820	1726.611224682039	194.03402267346
10	823	1732.483621895044	194.47838528233
10	824	1735.898443704253	184.46261618764
10	838	1763.339711623278	200.6517287196
10	841	1764.334814168407	187.69018805932
10	842	1766.287734629827	188.3162141885
10	843	1766.465036685178	188.2400600228
10	844	1766.575116417333	186.32946115579
10	845	1769.437340732914	184.50652065758
10	848	1771.521228045104	172.71438854748
10	849	1777.089931855195	167.66436580717
10	859	1790.529843910783	164.25402959171
10	862	1792.662741398655	165.15380324234
10	863	1795.155182590375	150.35064876406
10	864	1796.090089513808	147.99955993112
10	865	1798.057138028819	141.1153725585
10	869	1806.618498550204	109.69953483109
10	870	1809.571541211534	90.45893394958
10	873	1816.795465740077	86.480545914053
10	874	1820.197065753416	72.888170110033
10	882	1829.70757809664	81.125551977185
10	888	1838.686789233567	79.066426289698
10	889	1839.633589443502	78.504379077867
10	890	1842.807191029011	78.9934537595
10	891	1843.675306777814	73.489523930105
10	892	1844.561322813744	65.873546005029
10	905	1888.786676353511	105.13916505031
10	906	1891.027026544174	99.10668282311
10	911	1903.614288051685	102.35062900301
10	912	1904.539066551157	94.612013124829
10	913	1904.541446523733	80.420120333078
10	916	1908.737640658657	82.863503769779
10	917	1912.065899516894	83.266725805346
10	920	1927.884032179413	97.589071897334
10	923	1933.12231750131	96.345804948873
10	926	1935.915365692537	90.773963516851
10	927	1936.470431863735	73.468460397148
10	928	1939.065011985234	61.843878962668
10	931	1944.019578535257	58.444700577973
10	932	1946.861905555696	59.901881447533
10	933	1947.259788409951	52.296359566802
10	934	1950.513554495524	52.04722247988
10	935	1951.522563560206	46.521459085671
10	940	1952.085880957217	33.803148847892
10	941	1953.612406016084	23.030752766778
10	944	1962.448576950264	26.621787015941
10	948	1967.012537578913	15.321018021647
10	949	1970.860273519588	19.014428779153
10	950	1975.135582944008	19.19382665209
10	951	1975.46868576362	12.59407696727
10	954	1983.747115762954	2.331965859346
10	957	1994.008556310054	2.076284868856
10	966	2037.722417160013	0.902177496391
10	972	2065.103160702509	9.707526666052
10	975	2066.914590343206	0.577682286409
10	978	2071.69877458543	3.126038839521
10	981	2074.389507067414	0.760105311825
10	987	2091.179626133296	0.805936206027
10	990	2093.292097980869	1.781566194722
10	993	2094.786856793216	0.27707197658
10	999	2103.267781337466	0.158895261606
10	1009	2123.291930639561	13.747411020992
10	1010	2123.624628335022	2.253706160413
10	1011	2127.547684843518	5.682402552162
10	1014	2144.496529227228	3.735593719479
10	1019	2152.515698621875	4.107196607674
10	1020	2152.81082410679	1.92537274393
10	1023	2153.804752822703	0.652051799344
10	1031	2165.800705773185	8.974520523999
10	1037	2174.035298741265	6.670636903032
10	1038	2175.392570829233	7.747536633394
10	1044	2183.469488297844	2.649347769199
10	1047	2191.687812903817	1.070564769434
10	1055	2221.679998767335	13.048993369202
10	1056	2223.37717585578	10.049588715572
10	1059	2239.740086516598	9.852638830553
10	1065	2260.983089595417	0.033706082361
10	1068	2300.517282839332	1.238667664292
10	1074	2329.525416195724	3.706140011342
10	1080	2354.396015027359	0.226238734577
10	1083	2368.089031847606	4.948561431009
10	1091	2377.735982556381	4.99354117216
10	1092	2378.980895872288	2.623872625139
10	1097	2395.48277681571	7.553529888995
10	1098	2396.45305297355	8.084430208647
10	1101	2400.795904980784	1.471446036093
10	1104	2417.034158885104	0.273115245814
10	1107	2424.497259350282	3.813335979898
10	1115	2438.795559827259	5.311658057667
10	1116	2447.249082013595	11.184960386309
10	1119	2449.292578768471	0.18235351691
10	1125	2456.404071396204	3.564631530201
10	1131	2487.407046783045	1.97720862163
11	1138	2500	0.1044
12	1138	2500	0.0464

