file 51367 1678560143                                           
version 2
run experiments_hard_game_mode1-855-20230311-19:42:23-9120
attr configname experiments_hard_game_mode1
attr datetime 20230311-19:42:23
attr experiment experiments_hard_game_mode1
attr inifile omnetpp.ini
attr iterationvars "$0=8.5, $1=7, $2=0"
attr iterationvarsf 8.5,7,0-
attr measurement "$0=8.5, $1=7, $2=0"
attr network Network
attr processid 9120
attr repetition 15
attr replication #15
attr resultdir results
attr runnumber 855
attr seedset 15
param *.boss.arrival_mean 20
param *.boss.service_mean 8.5
param *.minion.arrival_mean 10
param *.minion.service_mean 7
param *.player.recover_rate_x 0
param **.minion.arrival_distribution 0
param **.minion.service_distribution 0
param **.boss.arrival_distribution 0
param **.boss.service_distribution 0

vector 0 Network.player minion_defeated_stat:vector ETV
attr source signal_minion_defeated
vector 1 Network.player minion_jobs_queue_number_stat:vector ETV
attr source signal_minion_jobs_queue_number
vector 2 Network.player minion_response_time_stat:vector ETV
attr source signal_minion_response_time
vector 3 Network.player minion_waiting_time_stat:vector ETV
attr source signal_minion_waiting_time
vector 4 Network.player minion_jobs_number_stat:vector ETV
attr source signal_minion_jobs_number
vector 5 Network.player boss_jobs_number_stat:vector ETV
attr source signal_boss_jobs_number
vector 6 Network.player boss_jobs_queue_number_stat:vector ETV
attr source signal_boss_jobs_queue_number
vector 7 Network.player minion_recovered_stat:vector ETV
attr source signal_minion_recovered
vector 8 Network.player boss_waiting_time_stat:vector ETV
attr source signal_boss_waiting_time
vector 9 Network.player boss_defeated_stat:vector ETV
attr source signal_boss_defeated
vector 10 Network.player boss_response_time_stat:vector ETV
attr source signal_boss_response_time
vector 11 Network.player minion_throughput:vector ETV
attr source signal_minion_throughput
vector 12 Network.player boss_throughput:vector ETV
attr source signal_boss_throughput
0	2011 3394 153 932 354.353117860915 2313.562172611164 126 28 153 11403 1198659
1	5405 8558 153 1008 354.353117860915 2485.321044617593 327 0 78 7081 297603
2	13963 4958 153 932 354.353117860915 2313.562172611164 126 4.397000511381 480.92490839092 18809.470203684 5202508.327405
3	18921 6533 153 932 354.353117860915 2313.562172611164 167 0 474.50461622433 24258.541248947 6761177.9251649
4	25454 5289 157 1008 371.826817875947 2485.321044617593 201 1 79 5279 239771
5	30743 2812 171 990 390.19208526962 2439.323409864084 110 1 6 238 692
6	33555 5611 171 1009 390.19208526962 2491.683669699242 219 0 5 256 652
7	39166 1110 171 938 390.19208526962 2315.1814443388 42 12 53 1365 50533
8	40276 3727 171 1009 390.19208526962 2491.683669699242 110 0 77.270999578074 1301.9131336943 46646.739700923
9	44003 2939 174 1009 390.979281370039 2491.683669699242 109 22 130 8284 737494
10	46942 4385 174 1009 390.979281370039 2491.683669699242 109 0.044931815387 86.980493178212 2489.987721753 94910.307973275
11	51327 20 1010 1010 2500 2500 1 0.0612 0.0612 0.0612 0.00374544
12	51347 19 1010 1010 2500 2500 1 0.052 0.052 0.052 0.002704

