version 2
run experiments_hard_game_mode1-216-20230311-19:40:08-5723
attr configname experiments_hard_game_mode1
attr datetime 20230311-19:40:08
attr experiment experiments_hard_game_mode1
attr inifile omnetpp.ini
attr iterationvars "$0=7.5, $1=6, $2=100"
attr iterationvarsf 7.5,6,100-
attr measurement "$0=7.5, $1=6, $2=100"
attr network Network
attr processid 5723
attr repetition 6
attr replication #6
attr resultdir results
attr runnumber 216
attr seedset 6
param *.boss.arrival_mean 20
param *.boss.service_mean 7.5
param *.minion.arrival_mean 10
param *.minion.service_mean 6
param *.player.recover_rate_x 100
param **.minion.arrival_distribution 0
param **.minion.service_distribution 0
param **.boss.arrival_distribution 0
param **.boss.service_distribution 0

vector 0 Network.player boss_defeated_stat:vector ETV
attr source signal_boss_defeated
vector 1 Network.player boss_jobs_queue_number_stat:vector ETV
attr source signal_boss_jobs_queue_number
vector 2 Network.player boss_response_time_stat:vector ETV
attr source signal_boss_response_time
vector 3 Network.player minion_waiting_time_stat:vector ETV
attr source signal_minion_waiting_time
vector 4 Network.player boss_jobs_number_stat:vector ETV
attr source signal_boss_jobs_number
vector 5 Network.player minion_recovered_stat:vector ETV
attr source signal_minion_recovered
vector 6 Network.player boss_waiting_time_stat:vector ETV
attr source signal_boss_waiting_time
vector 7 Network.player minion_jobs_number_stat:vector ETV
attr source signal_minion_jobs_number
vector 8 Network.player minion_jobs_queue_number_stat:vector ETV
attr source signal_minion_jobs_queue_number
vector 9 Network.player minion_defeated_stat:vector ETV
attr source signal_minion_defeated
vector 10 Network.player minion_response_time_stat:vector ETV
attr source signal_minion_response_time
vector 11 Network.player minion_throughput:vector ETV
attr source signal_minion_throughput
vector 12 Network.player boss_throughput:vector ETV
attr source signal_boss_throughput
0	127	350.66322498429	21
0	132	354.124993690655	22
0	147	381.030837298551	23
0	148	393.806934546372	24
0	151	404.182041366049	25
0	152	404.218923006216	26
0	159	421.900616586319	27
0	164	425.212839567358	28
0	165	426.763268809658	29
0	189	467.232438533273	30
0	196	477.124818133748	31
0	203	496.494954903987	32
0	227	565.089991879318	33
0	232	567.367971518805	34
0	249	626.365353759611	35
0	256	644.486705949786	36
0	257	645.714959093724	37
0	263	672.359229491983	38
0	267	685.651306019624	39
0	280	732.675947552697	40
0	281	733.310846318707	41
0	285	743.298471814609	42
0	293	759.359924144407	43
0	297	777.550978205936	44
0	330	898.180419715635	45
0	337	906.445632299117	46
0	338	907.779275707192	47
0	353	935.874451483037	48
0	377	1003.172909950294	49
0	390	1017.910458292164	50
0	398	1044.269661618232	51
0	419	1086.171064039687	52
0	420	1087.668413746027	53
0	429	1115.603302362484	54
0	436	1127.89948115596	55
0	437	1134.882047305821	56
0	443	1147.025174933997	57
0	457	1198.707006752901	58
0	469	1226.446347978433	59
0	475	1244.431011549113	60
0	481	1262.552768098027	61
0	496	1292.324188758742	62
0	504	1351.686708990527	63
0	507	1374.01644472002	64
0	517	1425.574133719453	65
0	533	1458.194221954159	66
0	545	1484.688987628003	67
0	552	1504.793933000633	68
0	557	1514.78077627158	69
0	558	1515.202991400042	70
0	563	1522.505684006435	71
0	570	1532.103098791744	72
0	573	1537.195847879441	73
0	603	1601.239228259267	74
0	612	1610.57597310316	75
0	613	1611.591774379112	76
0	625	1624.170394196973	77
0	634	1640.02052636045	78
0	637	1641.484285085601	79
0	661	1697.233436728847	80
0	671	1737.395910780603	81
0	674	1753.53647086153	82
0	681	1776.810675475563	83
0	694	1808.261571579925	84
0	695	1808.98888912659	85
0	704	1827.544460063765	86
0	707	1833.742494756877	87
0	713	1852.913206390592	88
0	732	1929.038432369554	89
0	735	1936.984295586794	90
0	751	1986.371315168378	91
0	769	2026.239755641097	92
0	801	2100.042624689991	93
0	802	2100.763620699385	94
0	805	2104.434128979384	95
0	806	2106.728194417219	96
0	831	2155.055591642573	97
0	842	2184.12630622627	98
0	866	2226.11076200074	99
0	875	2234.384808013561	100
0	876	2236.93399897671	101
0	881	2249.915638712657	102
0	884	2258.556207672424	103
0	896	2289.48728238212	104
0	899	2294.996622883135	105
0	900	2296.807922721249	106
0	916	2334.744162385487	107
0	938	2387.652387805629	108
0	950	2439.167342397204	109
0	956	2444.849999543411	110
0	983	2478.915025118547	111
0	986	2479.529322061396	112
0	989	2486.330848213123	113
0	990	2491.294417048706	114
1	127	350.66322498429	0
1	129	350.911095348185	0
1	132	354.124993690655	0
1	138	366.390704133182	0
1	140	371.17356131204	1
1	142	377.820612985913	2
1	144	377.96980287222	3
1	147	381.030837298551	3
1	148	393.806934546372	2
1	151	404.182041366049	1
1	152	404.218923006216	0
1	154	406.590606385774	0
1	158	417.617291548579	1
1	159	421.900616586319	1
1	161	423.903095571506	1
1	164	425.212839567358	1
1	165	426.763268809658	0
1	188	467.221505335374	0
1	189	467.232438533273	0
1	195	474.170699178983	0
1	196	477.124818133748	0
1	202	495.971717000857	0
1	203	496.494954903987	0
1	226	561.58967462765	0
1	227	565.089991879318	0
1	229	565.640426342516	0
1	232	567.367971518805	0
1	246	614.526701304873	0
1	248	615.254532494379	1
1	249	626.365353759611	1
1	251	632.049222519165	1
1	256	644.486705949786	1
1	257	645.714959093724	0
1	262	670.963454837439	0
1	263	672.359229491983	0
1	266	684.254351994662	0
1	267	685.651306019624	0
1	275	709.410644553138	0
1	279	730.619893590699	1
1	280	732.675947552697	1
1	281	733.310846318707	0
1	284	741.244643729957	0
1	285	743.298471814609	0
1	292	756.629205910943	0
1	293	759.359924144407	0
1	296	777.546901299853	0
1	297	777.550978205936	0
1	329	886.711462365343	0
1	330	898.180419715635	0
1	332	900.190491588623	0
1	336	903.253106306936	1
1	337	906.445632299117	1
1	338	907.779275707192	0
1	350	928.570672954617	0
1	353	935.874451483037	0
1	376	1002.623456215123	0
1	377	1003.172909950294	0
1	387	1015.88463527209	0
1	390	1017.910458292164	0
1	395	1035.213038508457	0
1	398	1044.269661618232	0
1	406	1050.146256507234	0
1	416	1075.64032921121	1
1	419	1086.171064039687	1
1	420	1087.668413746027	0
1	428	1114.054621743973	0
1	429	1115.603302362484	0
1	431	1121.047574796594	0
1	433	1124.668304703187	1
1	436	1127.89948115596	1
1	437	1134.882047305821	0
1	440	1143.000718365382	0
1	443	1147.025174933997	0
1	456	1193.264556883255	0
1	457	1198.707006752901	0
1	468	1221.041346223951	0
1	469	1226.446347978433	0
1	474	1240.173927918977	0
1	475	1244.431011549113	0
1	480	1260.682995869076	0
1	481	1262.552768098027	0
1	495	1290.63175437432	0
1	496	1292.324188758742	0
1	503	1341.98868381818	0
1	504	1351.686708990527	0
1	506	1367.457978445056	0
1	507	1374.01644472002	0
1	512	1411.373933569448	0
1	517	1425.574133719453	0
1	530	1444.167991827933	0
1	533	1458.194221954159	0
1	536	1464.862235097741	0
1	540	1470.389925185423	1
1	542	1477.399307372857	2
1	545	1484.688987628003	2
1	549	1494.698843858274	2
1	552	1504.793933000633	2
1	557	1514.78077627158	1
1	558	1515.202991400042	0
1	560	1517.650297185485	0
1	563	1522.505684006435	0
1	565	1524.315619169701	0
1	569	1530.802464609031	1
1	570	1532.103098791744	1
1	573	1537.195847879441	0
1	602	1601.102500740114	0
1	603	1601.239228259267	0
1	607	1603.805840100172	0
1	611	1606.701715929049	1
1	612	1610.57597310316	1
1	613	1611.591774379112	0
1	624	1623.577270089592	0
1	625	1624.170394196973	0
1	629	1630.026208879448	0
1	634	1640.02052636045	0
1	636	1640.547007515322	0
1	637	1641.484285085601	0
1	660	1695.493984958524	0
1	661	1697.233436728847	0
1	668	1711.932020289475	0
1	670	1731.714786339412	1
1	671	1737.395910780603	1
1	674	1753.53647086153	0
1	680	1770.244858721005	0
1	681	1776.810675475563	0
1	689	1802.854931859741	0
1	691	1804.889361326234	1
1	694	1808.261571579925	1
1	695	1808.98888912659	0
1	703	1824.889836964607	0
1	704	1827.544460063765	0
1	706	1833.639570527449	0
1	707	1833.742494756877	0
1	710	1842.732282835428	0
1	713	1852.913206390592	0
1	725	1915.436609589533	0
1	727	1916.889482352561	1
1	732	1929.038432369554	1
1	735	1936.984295586794	0
1	746	1967.901726318689	0
1	751	1986.371315168378	0
1	766	2021.635944979653	0
1	769	2026.239755641097	0
1	796	2090.897286542311	0
1	798	2097.051712636309	1
1	800	2098.097723051968	2
1	801	2100.042624689991	2
1	802	2100.763620699385	1
1	804	2102.875204944668	1
1	805	2104.434128979384	1
1	806	2106.728194417219	0
1	826	2145.88207974733	0
1	831	2155.055591642573	0
1	841	2177.459450486187	0
1	842	2184.12630622627	0
1	857	2206.85076913286	0
1	859	2208.249520480578	1
1	861	2213.728139743341	2
1	866	2226.11076200074	2
1	872	2230.463349804384	2
1	874	2232.655512392498	3
1	875	2234.384808013561	3
1	876	2236.93399897671	2
1	881	2249.915638712657	1
1	884	2258.556207672424	0
1	889	2282.496471010907	0
1	895	2286.619675817699	1
1	896	2289.48728238212	1
1	898	2291.06034277556	1
1	899	2294.996622883135	1
1	900	2296.807922721249	0
1	913	2319.005043865611	0
1	916	2334.744162385487	0
1	933	2358.742124793107	0
1	938	2387.652387805629	0
1	947	2419.850593049055	0
1	950	2439.167342397204	0
1	953	2442.607790362262	0
1	956	2444.849999543411	0
1	978	2473.876253655396	0
1	982	2475.158360869859	1
1	983	2478.915025118547	1
1	985	2479.289234085361	1
1	986	2479.529322061396	1
1	988	2485.053898812339	1
1	989	2486.330848213123	1
1	990	2491.294417048706	0
1	993	2499.404620087199	0
2	127	350.66322498429	19.87377710264
2	132	354.124993690655	3.21389834247
2	147	381.030837298551	14.640133165369
2	148	393.806934546372	22.633373234332
2	151	404.182041366049	26.361428380136
2	152	404.218923006216	26.249120133996
2	159	421.900616586319	15.310010200545
2	164	425.212839567358	7.595548018779
2	165	426.763268809658	2.860173238152
2	189	467.232438533273	0.010933197899
2	196	477.124818133748	2.954118954765
2	203	496.494954903987	0.52323790313
2	227	565.089991879318	3.500317251668
2	232	567.367971518805	1.727545176289
2	249	626.365353759611	11.838652454738
2	256	644.486705949786	29.232173455407
2	257	645.714959093724	13.665736574559
2	263	672.359229491983	1.395774654544
2	267	685.651306019624	1.396954024962
2	280	732.675947552697	23.265302999559
2	281	733.310846318707	2.690952728008
2	285	743.298471814609	2.053828084652
2	293	759.359924144407	2.730718233464
2	297	777.550978205936	0.004076906083
2	330	898.180419715635	11.468957350292
2	337	906.445632299117	6.255140710494
2	338	907.779275707192	4.526169400256
2	353	935.874451483037	7.30377852842
2	377	1003.172909950294	0.549453735171
2	390	1017.910458292164	2.025823020074
2	398	1044.269661618232	9.056623109775
2	419	1086.171064039687	36.024807532453
2	420	1087.668413746027	12.028084534817
2	429	1115.603302362484	1.548680618511
2	436	1127.89948115596	6.851906359366
2	437	1134.882047305821	10.213742602634
2	443	1147.025174933997	4.024456568615
2	457	1198.707006752901	5.442449869646
2	469	1226.446347978433	5.405001754482
2	475	1244.431011549113	4.257083630136
2	481	1262.552768098027	1.869772228951
2	496	1292.324188758742	1.692434384422
2	504	1351.686708990527	9.698025172347
2	507	1374.01644472002	6.558466274964
2	517	1425.574133719453	14.200200150005
2	533	1458.194221954159	14.026230126226
2	545	1484.688987628003	19.826752530262
2	552	1504.793933000633	34.40400781521
2	557	1514.78077627158	37.381468898723
2	558	1515.202991400042	20.504147541768
2	563	1522.505684006435	4.85538682095
2	570	1532.103098791744	7.787479622043
2	573	1537.195847879441	6.39338327041
2	603	1601.239228259267	0.136727519153
2	612	1610.57597310316	6.770133002988
2	613	1611.591774379112	4.890058450063
2	625	1624.170394196973	0.593124107381
2	634	1640.02052636045	9.994317481002
2	637	1641.484285085601	0.937277570279
2	661	1697.233436728847	1.739451770323
2	671	1737.395910780603	25.463890491128
2	674	1753.53647086153	21.821684522118
2	681	1776.810675475563	6.565816754558
2	694	1808.261571579925	5.406639720184
2	695	1808.98888912659	4.099527800356
2	704	1827.544460063765	2.654623099158
2	707	1833.742494756877	0.102924229428
2	713	1852.913206390592	10.180923555164
2	732	1929.038432369554	13.601822780021
2	735	1936.984295586794	20.094813234233
2	751	1986.371315168378	18.469588849689
2	769	2026.239755641097	4.603810661444
2	801	2100.042624689991	9.14533814768
2	802	2100.763620699385	3.711908063076
2	805	2104.434128979384	6.336405927416
2	806	2106.728194417219	3.852989472551
2	831	2155.055591642573	9.173511895243
2	842	2184.12630622627	6.666855740083
2	866	2226.11076200074	19.25999286788
2	875	2234.384808013561	26.135287532983
2	876	2236.93399897671	23.205859233369
2	881	2249.915638712657	19.452288908273
2	884	2258.556207672424	25.900695279926
2	896	2289.48728238212	6.990811371213
2	899	2294.996622883135	8.376947065436
2	900	2296.807922721249	5.747579945689
2	916	2334.744162385487	15.739118519876
2	938	2387.652387805629	28.910263012522
2	950	2439.167342397204	19.316749348149
2	956	2444.849999543411	2.242209181149
2	983	2478.915025118547	5.038771463151
2	986	2479.529322061396	4.370961191537
2	989	2486.330848213123	7.041614127762
2	990	2491.294417048706	6.240518236367
3	127	350.66322498429	37.968506056674
3	132	354.124993690655	37.093207406434
3	133	355.912694989885	36.208274581104
3	136	364.506848852297	40.938164166457
3	152	404.218923006216	80.445068280718
3	165	426.763268809658	99.936627193992
3	168	428.534744243479	100.19728227869
3	169	429.254481381419	89.994183978264
3	170	429.367926587421	78.456831239236
3	173	433.269869297455	81.642836107857
3	174	436.824587615337	80.052091153177
3	177	441.379536549445	74.988832416263
3	178	443.319180372813	63.506580144833
3	181	448.602479798387	45.63874208184
3	182	451.735887550752	45.145281164978
3	189	467.232438533273	56.630526803498
3	190	468.292754919411	44.264615489877
3	193	473.910363889843	47.041421861274
3	196	477.124818133748	47.043088158848
3	197	483.586123887974	42.362872841255
3	198	485.953730049556	38.10265263991
3	199	488.650799654512	32.550541497216
3	200	495.858383302007	32.100139248781
3	203	496.494954903987	29.273449568613
3	204	499.841460927402	28.26212410395
3	205	502.579433903066	28.408734724083
3	208	506.976881982864	11.005164982007
3	209	509.160730266089	6.366052668401
3	212	525.18586160872	0
3	215	536.046912014953	4.791832895825
3	218	549.756142199541	0
3	221	554.025330218918	0
3	224	557.678344759667	0
3	227	565.089991879318	3.500317251668
3	232	567.367971518805	1.727545176289
3	233	567.863831338668	1.920208273368
3	238	585.078065107699	9.160253627943
3	239	587.975850676873	4.87745059212
3	242	594.500210084924	0
3	257	645.714959093724	46.962273841097
3	258	651.709300721521	37.182599416648
3	263	672.359229491983	38.397420649901
3	264	676.691528554876	38.500920051335
3	267	685.651306019624	25.058287316122
3	270	690.564293330879	19.60083849344
3	271	700.610866666068	16.356514671406
3	272	706.950110450672	17.125689472736
3	281	733.310846318707	14.939608550651
3	287	743.664457964074	0
3	290	753.942981059847	0
3	293	759.359924144407	2.730718233464
3	299	784.610996476157	0
3	302	794.14696762077	0
3	305	821.459204172439	0
3	310	827.585511304195	3.542701906397
3	311	831.031673842933	5.835403014337
3	316	840.691932067697	8.839721034208
3	317	842.677146213146	8.739180119145
3	320	850.399986038396	0
3	323	864.231979466191	9.343078563861
3	326	873.482015827866	0
3	338	907.779275707192	6.55812054738
3	343	913.405170991995	4.533697727233
3	344	917.058765509924	7.456672309162
3	347	923.781926997375	0
3	353	935.874451483037	4.450523964779
3	358	943.509207936314	5.160268735206
3	359	947.9862045344	4.74381695884
3	362	962.235470988632	0
3	365	967.151027640221	0.820904492185
3	370	980.776144664197	4.778157689417
3	371	988.981777128091	10.275955369684
3	374	998.482918602949	0
3	377	1003.172909950294	0.549453735171
3	382	1012.125172584791	6.204342179392
3	385	1013.113859142976	4.557315212264
3	390	1017.910458292164	5.523753839058
3	391	1031.945040342171	16.060405070081
3	398	1044.269661618232	26.737658917434
3	399	1044.751330121661	12.746426963955
3	404	1048.576224585071	13.363186076614
3	420	1087.668413746027	45.871869062759
3	423	1093.879907884907	49.032250973209
3	426	1112.787644620233	66.396385829301
3	429	1115.603302362484	65.45704585525
3	437	1134.882047305821	76.959843917763
3	438	1139.173211604933	79.94082283699
3	443	1147.025174933997	81.448998028661
3	448	1153.163171071963	82.194230328261
3	451	1172.196890292198	92.433524621002
3	454	1180.710828043831	92.808248484137
3	457	1198.707006752901	101.31425146802
3	458	1205.290034637276	91.235412893303
3	459	1206.786864481092	85.739289684498
3	460	1211.493817884652	85.727584789396
3	461	1213.594839551876	70.594121186494
3	462	1214.765306650041	71.67664933686
3	463	1215.218550316547	66.866116573432
3	464	1219.527814201351	69.385495418731
3	465	1219.855063590458	56.366178562533
3	466	1220.412378270283	46.793129645382
3	469	1226.446347978433	33.181791095178
3	470	1227.0980384363	6.056692212349
3	475	1244.431011549113	16.884009537058
3	478	1250.589599629658	10.415671710681
3	481	1262.552768098027	16.067458775819
3	482	1269.13596725257	8.452971383494
3	485	1273.979051602288	2.644953684995
3	490	1274.831340750009	0.076639197035
3	493	1286.614123545943	11.839168751673
3	496	1292.324188758742	17.028938734933
3	497	1297.488397158255	6.856642783935
3	500	1310.814878514192	0
3	509	1389.787856502193	0
3	517	1425.574133719453	13.799684950774
3	518	1427.986354051096	11.763940899899
3	525	1436.3259000323	8.080790890255
3	528	1443.159723696936	8.160711273148
3	533	1458.194221954159	22.169070313407
3	534	1462.464693203286	20.704447662965
3	558	1515.202991400042	71.034999572109
3	563	1522.505684006435	72.225673022393
3	573	1537.195847879441	72.3336127817
3	574	1541.525538881033	76.424018613336
3	575	1545.132953907946	62.881387246667
3	576	1550.662588326908	58.482080108799
3	579	1553.809454009208	53.398868502097
3	584	1561.427022825868	54.607386209553
3	585	1561.56189091073	50.422688070638
3	586	1564.781000505899	47.130703320414
3	587	1565.499154750517	46.472465563354
3	588	1568.561543675166	44.245924505465
3	595	1574.436520004102	47.568170379644
3	596	1577.466989331581	44.951603889498
3	597	1581.977531511574	28.29369478061
3	598	1592.440113746291	32.535268767557
3	599	1592.520558913962	31.404240739004
3	600	1600.000833640487	26.514406034622
3	603	1601.239228259267	27.433364475712
3	604	1601.857654802369	27.667721797886
3	605	1602.152352158703	1.049851418589
3	613	1611.591774379112	7.78593427894
3	616	1614.126540192025	9.40086159251
3	625	1624.170394196973	12.12974703719
3	626	1625.59163037181	10.143761993361
3	627	1629.079345159686	12.539630907117
3	634	1640.02052636045	17.647759897557
3	637	1641.484285085601	17.907014996009
3	640	1644.497757515311	14.471548635863
3	643	1655.571965247948	23.842634031753
3	646	1662.081580617037	27.354412313712
3	653	1676.779453759986	36.232446244664
3	656	1679.491150114571	36.480998625847
3	657	1685.801274622546	33.705629322505
3	658	1690.562767259213	32.674427351401
3	661	1697.233436728847	28.694693547656
3	664	1698.975047351215	27.13488839544
3	665	1699.094360735998	24.028768329924
3	666	1699.261511173587	19.92206419414
3	674	1753.53647086153	58.042485903006
3	675	1763.159501486008	64.302712124415
3	676	1764.545477034628	52.613456745153
3	681	1776.810675475563	30.664464050881
3	682	1777.698693699755	9.595052511245
3	685	1783.061252882309	12.816394161304
3	695	1808.98888912659	27.166083450799
3	696	1816.756065738538	31.57768525928
3	699	1817.828325272003	14.973393412262
3	700	1819.61703839088	13.634312424209
3	701	1821.534066465427	4.776164451297
3	704	1827.544460063765	2.654623099158
3	707	1833.742494756877	0.102924229428
3	713	1852.913206390592	9.338552045636
3	716	1879.373204660125	0
3	719	1888.328554291555	0.858858339408
3	722	1903.408989516434	0
3	735	1936.984295586794	11.563349244117
3	736	1938.44078768934	11.041861480019
3	739	1947.180942589661	17.762966646186
3	742	1949.030950739095	4.257001084407
3	743	1951.482061996568	2.923654152883
3	751	1986.371315168378	2.704605783668
3	754	1990.207793118136	5.771520049296
3	755	1991.572397109026	2.629222295473
3	758	1993.025318502298	0.152838457738
3	761	1994.825598985141	1.033215337204
3	764	2021.120040871594	0
3	769	2026.239755641097	4.603810661444
3	770	2028.392084686199	3.058637900457
3	773	2054.053071454524	0
3	776	2062.518611221697	0
3	783	2069.291086377028	5.900051724914
3	784	2071.257185441238	6.056773394489
3	785	2071.386833782235	4.017173475082
3	794	2086.397575270346	9.041622576089
3	806	2106.728194417219	26.067020211467
3	809	2113.013812931764	31.674500845541
3	810	2113.609020682593	30.249587819189
3	811	2115.362007820284	24.464721277973
3	812	2118.729716331681	10.966262376448
3	815	2130.147397150886	0
3	818	2137.685566795443	6.609843367144
3	821	2142.161567990562	0
3	824	2144.385352452261	0
3	831	2155.055591642573	9.173511895243
3	832	2159.629060106615	13.345820133279
3	833	2162.044701671169	9.375767682727
3	836	2171.148276558928	0
3	839	2176.964284117084	0
3	842	2184.12630622627	6.666855740083
3	845	2193.48141393373	7.829092517762
3	848	2200.157511841202	0
3	851	2201.869038775595	0
3	884	2258.556207672424	56.558914577028
3	885	2268.093171805248	64.640319203862
3	886	2274.387395083285	67.536625950425
3	887	2278.930275804859	64.062341241163
3	900	2296.807922721249	73.150821804898
3	903	2299.553651279333	72.672398310459
3	906	2303.615471646682	74.974726904825
3	907	2307.861033062869	69.957387146424
3	908	2308.417369134067	65.93971194618
3	911	2317.368644006225	66.99500415356
3	916	2334.744162385487	52.24769137458
3	919	2339.947756628548	56.063855397057
3	920	2340.762493250891	54.524028960222
3	921	2341.291299850597	41.971476653655
3	926	2343.794109425387	43.01104031216
3	927	2347.596518797477	33.792294454744
3	938	2387.652387805629	68.647343940018
3	941	2404.131825145714	75.667183066649
3	942	2413.959239955415	78.413821751743
3	943	2416.302423539583	74.321350917086
3	944	2416.839651347409	73.504903862326
3	945	2419.379062883201	68.723082148759
3	950	2439.167342397204	87.631660828488
3	951	2442.338515999108	83.596391206001
3	956	2444.849999543411	64.455749732287
3	961	2458.248666492926	72.736421191188
3	964	2460.868584540472	65.041417581535
3	967	2464.776138645019	44.925545595964
3	968	2466.325191235229	27.965608122586
3	990	2491.294417048706	48.686626686444
3	991	2498.684270847897	54.557697438895
4	129	350.911095348185	1
4	138	366.390704133182	1
4	140	371.17356131204	2
4	142	377.820612985913	3
4	144	377.96980287222	4
4	154	406.590606385774	1
4	158	417.617291548579	2
4	161	423.903095571506	2
4	188	467.221505335374	1
4	195	474.170699178983	1
4	202	495.971717000857	1
4	226	561.58967462765	1
4	229	565.640426342516	1
4	246	614.526701304873	1
4	248	615.254532494379	2
4	251	632.049222519165	2
4	262	670.963454837439	1
4	266	684.254351994662	1
4	275	709.410644553138	1
4	279	730.619893590699	2
4	284	741.244643729957	1
4	292	756.629205910943	1
4	296	777.546901299853	1
4	329	886.711462365343	1
4	332	900.190491588623	1
4	336	903.253106306936	2
4	350	928.570672954617	1
4	376	1002.623456215123	1
4	387	1015.88463527209	1
4	395	1035.213038508457	1
4	406	1050.146256507234	1
4	416	1075.64032921121	2
4	428	1114.054621743973	1
4	431	1121.047574796594	1
4	433	1124.668304703187	2
4	440	1143.000718365382	1
4	456	1193.264556883255	1
4	468	1221.041346223951	1
4	474	1240.173927918977	1
4	480	1260.682995869076	1
4	495	1290.63175437432	1
4	503	1341.98868381818	1
4	506	1367.457978445056	1
4	512	1411.373933569448	1
4	530	1444.167991827933	1
4	536	1464.862235097741	1
4	540	1470.389925185423	2
4	542	1477.399307372857	3
4	549	1494.698843858274	3
4	560	1517.650297185485	1
4	565	1524.315619169701	1
4	569	1530.802464609031	2
4	602	1601.102500740114	1
4	607	1603.805840100172	1
4	611	1606.701715929049	2
4	624	1623.577270089592	1
4	629	1630.026208879448	1
4	636	1640.547007515322	1
4	660	1695.493984958524	1
4	668	1711.932020289475	1
4	670	1731.714786339412	2
4	680	1770.244858721005	1
4	689	1802.854931859741	1
4	691	1804.889361326234	2
4	703	1824.889836964607	1
4	706	1833.639570527449	1
4	710	1842.732282835428	1
4	725	1915.436609589533	1
4	727	1916.889482352561	2
4	746	1967.901726318689	1
4	766	2021.635944979653	1
4	796	2090.897286542311	1
4	798	2097.051712636309	2
4	800	2098.097723051968	3
4	804	2102.875204944668	2
4	826	2145.88207974733	1
4	841	2177.459450486187	1
4	857	2206.85076913286	1
4	859	2208.249520480578	2
4	861	2213.728139743341	3
4	872	2230.463349804384	3
4	874	2232.655512392498	4
4	889	2282.496471010907	1
4	895	2286.619675817699	2
4	898	2291.06034277556	2
4	913	2319.005043865611	1
4	933	2358.742124793107	1
4	947	2419.850593049055	1
4	953	2442.607790362262	1
4	978	2473.876253655396	1
4	982	2475.158360869859	2
4	985	2479.289234085361	2
4	988	2485.053898812339	2
4	993	2499.404620087199	1
5	129	350.911095348185	9
5	138	366.390704133182	10
5	154	406.590606385774	11
5	188	467.221505335374	12
5	195	474.170699178983	13
5	202	495.971717000857	14
5	226	561.58967462765	15
5	229	565.640426342516	16
5	246	614.526701304873	17
5	262	670.963454837439	18
5	266	684.254351994662	19
5	292	756.629205910943	20
5	376	1002.623456215123	21
5	387	1015.88463527209	22
5	395	1035.213038508457	23
5	406	1050.146256507234	24
5	428	1114.054621743973	25
5	431	1121.047574796594	26
5	440	1143.000718365382	27
5	456	1193.264556883255	28
5	468	1221.041346223951	29
5	474	1240.173927918977	30
5	480	1260.682995869076	31
5	495	1290.63175437432	32
5	530	1444.167991827933	33
5	536	1464.862235097741	34
5	560	1517.650297185485	35
5	565	1524.315619169701	36
5	602	1601.102500740114	37
5	607	1603.805840100172	38
5	624	1623.577270089592	39
5	629	1630.026208879448	40
5	636	1640.547007515322	41
5	660	1695.493984958524	42
5	668	1711.932020289475	43
5	680	1770.244858721005	44
5	689	1802.854931859741	45
5	703	1824.889836964607	46
5	706	1833.639570527449	47
5	766	2021.635944979653	48
5	796	2090.897286542311	49
5	826	2145.88207974733	50
5	841	2177.459450486187	51
5	857	2206.85076913286	52
5	889	2282.496471010907	53
5	913	2319.005043865611	54
5	933	2358.742124793107	55
5	947	2419.850593049055	56
5	953	2442.607790362262	57
5	978	2473.876253655396	58
5	993	2499.404620087199	59
6	129	350.911095348185	0
6	138	366.390704133182	0
6	147	381.030837298551	9.857275986511
6	148	393.806934546372	15.986321560459
6	151	404.182041366049	26.212238493829
6	154	406.590606385774	0
6	159	421.900616586319	4.28332503774
6	164	425.212839567358	1.309743995852
6	188	467.221505335374	0
6	195	474.170699178983	0
6	202	495.971717000857	0
6	226	561.58967462765	0
6	229	565.640426342516	0
6	246	614.526701304873	0
6	249	626.365353759611	11.110821265232
6	256	644.486705949786	12.437483430621
6	262	670.963454837439	0
6	266	684.254351994662	0
6	275	709.410644553138	0
6	280	732.675947552697	2.056053961998
6	284	741.244643729957	0
6	292	756.629205910943	0
6	296	777.546901299853	0
6	329	886.711462365343	0
6	332	900.190491588623	0
6	337	906.445632299117	3.192525992181
6	350	928.570672954617	0
6	376	1002.623456215123	0
6	387	1015.88463527209	0
6	395	1035.213038508457	0
6	406	1050.146256507234	0
6	419	1086.171064039687	10.530734828477
6	428	1114.054621743973	0
6	431	1121.047574796594	0
6	436	1127.89948115596	3.231176452773
6	440	1143.000718365382	0
6	456	1193.264556883255	0
6	468	1221.041346223951	0
6	474	1240.173927918977	0
6	480	1260.682995869076	0
6	495	1290.63175437432	0
6	503	1341.98868381818	0
6	506	1367.457978445056	0
6	512	1411.373933569448	0
6	530	1444.167991827933	0
6	536	1464.862235097741	0
6	545	1484.688987628003	14.29906244258
6	552	1504.793933000633	27.394625627776
6	557	1514.78077627158	20.081932413306
6	560	1517.650297185485	0
6	565	1524.315619169701	0
6	570	1532.103098791744	1.300634182713
6	602	1601.102500740114	0
6	607	1603.805840100172	0
6	612	1610.57597310316	3.874257174111
6	624	1623.577270089592	0
6	629	1630.026208879448	0
6	636	1640.547007515322	0
6	660	1695.493984958524	0
6	668	1711.932020289475	0
6	671	1737.395910780603	5.681124441191
6	680	1770.244858721005	0
6	689	1802.854931859741	0
6	694	1808.261571579925	3.372210253691
6	703	1824.889836964607	0
6	706	1833.639570527449	0
6	710	1842.732282835428	0
6	725	1915.436609589533	0
6	732	1929.038432369554	12.148950016993
6	746	1967.901726318689	0
6	766	2021.635944979653	0
6	796	2090.897286542311	0
6	801	2100.042624689991	2.990912053682
6	802	2100.763620699385	2.665897647417
6	805	2104.434128979384	1.558924034716
6	826	2145.88207974733	0
6	841	2177.459450486187	0
6	857	2206.85076913286	0
6	866	2226.11076200074	17.861241520162
6	875	2234.384808013561	20.65666827022
6	876	2236.93399897671	6.470649172326
6	881	2249.915638712657	17.260126320159
6	889	2282.496471010907	0
6	896	2289.48728238212	2.867606564421
6	899	2294.996622883135	3.936280107575
6	913	2319.005043865611	0
6	933	2358.742124793107	0
6	947	2419.850593049055	0
6	953	2442.607790362262	0
6	978	2473.876253655396	0
6	983	2478.915025118547	3.756664248688
6	986	2479.529322061396	0.240087976035
6	989	2486.330848213123	1.276949400784
6	993	2499.404620087199	0
7	131	351.627033189598	9
7	135	356.77249646216	9
7	146	379.81260022798	9
7	150	402.963737716547	10
7	156	410.601911729775	11
7	163	424.028139429534	12
7	167	426.868942028569	13
7	172	430.0817299749	11
7	176	441.223251046719	10
7	180	447.851077409646	9
7	184	456.100258157296	8
7	186	463.758244053226	9
7	192	471.579336823452	9
7	207	502.794677597688	3
7	212	525.18586160872	1
7	214	531.255079119128	2
7	218	549.756142199541	1
7	221	554.025330218918	1
7	224	557.678344759667	1
7	231	565.9436230653	2
7	235	575.917811479756	2
7	237	583.098400084753	3
7	242	594.500210084924	1
7	244	598.752685252627	2
7	253	633.961808842082	3
7	255	638.190608503541	4
7	260	660.593018703502	4
7	269	689.824420977936	4
7	277	718.371237768056	1
7	287	743.664457964074	1
7	290	753.942981059847	1
7	299	784.610996476157	1
7	302	794.14696762077	1
7	305	821.459204172439	1
7	307	824.042809397798	2
7	309	825.196270828596	3
7	313	831.852211033489	2
7	315	833.937966094001	3
7	320	850.399986038396	1
7	322	854.88890090233	2
7	326	873.482015827866	1
7	334	901.221155159812	1
7	340	908.871473264762	2
7	342	909.602093200762	3
7	347	923.781926997375	1
7	352	931.423927518258	1
7	355	938.348939201108	2
7	357	943.24238757556	3
7	362	962.235470988632	1
7	364	966.330123148036	2
7	367	975.99798697478	2
7	369	978.705821758407	3
7	374	998.482918602949	1
7	379	1005.920830405399	2
7	381	1008.556543930712	3
7	384	1012.386704453106	3
7	389	1017.532002700798	3
7	393	1032.004903157706	3
7	397	1041.796544683268	4
7	401	1044.847656911698	4
7	403	1046.391258790932	5
7	408	1057.922203388058	5
7	410	1059.232388767943	6
7	412	1065.576176905336	7
7	414	1070.968940743702	8
7	418	1079.763365671196	9
7	422	1087.902579559694	10
7	425	1097.392755284878	10
7	435	1125.766233095256	10
7	442	1143.088657313181	10
7	445	1148.352433743115	11
7	447	1150.14231878262	12
7	450	1163.488885027925	12
7	453	1173.619248624901	12
7	472	1227.547002012055	2
7	477	1246.485309322208	3
7	484	1271.334097917293	2
7	487	1274.754701552974	2
7	489	1274.77495479427	3
7	492	1275.295250023809	3
7	500	1310.814878514192	1
7	509	1389.787856502193	1
7	514	1411.774448768679	1
7	516	1416.222413151197	2
7	520	1428.245109142045	2
7	522	1434.999012423788	3
7	524	1436.025151640752	4
7	527	1441.760245540321	4
7	532	1450.280010984042	4
7	538	1465.101520267697	4
7	544	1482.251566661279	5
7	547	1492.180508218109	6
7	551	1500.410585507111	7
7	554	1506.819636616315	8
7	556	1511.139202840092	9
7	562	1519.026689187163	10
7	567	1526.868349624458	11
7	572	1532.515385442083	12
7	578	1553.683836730964	10
7	581	1559.904844978734	10
7	583	1561.116318174958	11
7	590	1573.486427605865	7
7	592	1573.805863783555	8
7	594	1574.189933004483	9
7	609	1604.725678599515	2
7	615	1612.040647159783	3
7	618	1615.447868378449	3
7	620	1616.539714252569	4
7	622	1622.372766462893	5
7	631	1631.729331216195	4
7	633	1634.727168303325	5
7	639	1643.010151488724	6
7	642	1652.095645300041	6
7	645	1657.888339907812	6
7	648	1668.538743181191	6
7	650	1671.840158955775	7
7	652	1675.065592406074	8
7	655	1679.339446979447	8
7	663	1698.856789361593	6
7	673	1746.146211424682	4
7	678	1768.10364118851	3
7	684	1781.822805675791	3
7	687	1785.178380479258	3
7	693	1805.982725966671	4
7	698	1816.75790201413	4
7	712	1843.574654344956	1
7	716	1879.373204660125	1
7	718	1887.469695952147	2
7	722	1903.408989516434	1
7	729	1925.420946342677	1
7	731	1927.398926209321	2
7	734	1929.417975943475	3
7	738	1944.773949654688	3
7	741	1948.558407843685	3
7	748	1983.66670938471	1
7	750	1984.43627306884	2
7	753	1988.943174813553	3
7	757	1992.87248004456	2
7	760	1993.792383647937	2
7	764	2021.120040871594	1
7	768	2025.333446785742	2
7	773	2054.053071454524	1
7	776	2062.518611221697	1
7	778	2063.391034652114	2
7	780	2065.200412046749	3
7	782	2067.369660307153	4
7	787	2077.355952694257	2
7	789	2080.661174205752	3
7	791	2081.339312086223	4
7	793	2083.359432863404	5
7	808	2107.763453955233	5
7	815	2130.147397150886	1
7	817	2131.075723428299	2
7	821	2142.161567990562	1
7	824	2144.385352452261	1
7	828	2146.283239973336	2
7	830	2152.668933988442	3
7	836	2171.148276558928	1
7	839	2176.964284117084	1
7	844	2185.652321415968	2
7	848	2200.157511841202	1
7	851	2201.869038775595	1
7	853	2201.997293095396	2
7	855	2203.452852601386	3
7	863	2214.867934563696	4
7	865	2223.657100916351	5
7	868	2226.881252968874	6
7	870	2228.640744741857	7
7	878	2237.903645916445	8
7	880	2242.477657187887	9
7	883	2250.373639852665	10
7	891	2283.883901231491	8
7	893	2286.238464290669	9
7	902	2299.319823196942	10
7	905	2300.783069113227	10
7	910	2313.804224342733	8
7	915	2328.464642079065	8
7	918	2335.545418203672	9
7	923	2341.981072622497	7
7	925	2343.334747485083	8
7	929	2350.655980734442	7
7	931	2351.535681568716	8
7	935	2380.394249811124	9
7	937	2385.512245301738	10
7	940	2395.827166958937	11
7	949	2438.359583112643	7
7	955	2444.126573409002	7
7	958	2448.04074565643	8
7	960	2454.272997008193	9
7	963	2459.202377342599	9
7	966	2462.063629544418	9
7	970	2466.971518960638	8
7	972	2469.938873253385	9
7	974	2472.405728764313	10
7	976	2472.638354338712	11
7	980	2473.954007465772	12
8	131	351.627033189598	8
8	133	355.912694989885	8
8	135	356.77249646216	8
8	136	364.506848852297	8
8	146	379.81260022798	8
8	150	402.963737716547	9
8	156	410.601911729775	10
8	163	424.028139429534	11
8	167	426.868942028569	12
8	168	428.534744243479	12
8	169	429.254481381419	11
8	170	429.367926587421	10
8	172	430.0817299749	10
8	173	433.269869297455	10
8	174	436.824587615337	9
8	176	441.223251046719	9
8	177	441.379536549445	9
8	178	443.319180372813	8
8	180	447.851077409646	8
8	181	448.602479798387	8
8	182	451.735887550752	7
8	184	456.100258157296	7
8	186	463.758244053226	8
8	190	468.292754919411	8
8	192	471.579336823452	8
8	193	473.910363889843	8
8	197	483.586123887974	7
8	198	485.953730049556	6
8	199	488.650799654512	5
8	200	495.858383302007	4
8	204	499.841460927402	3
8	205	502.579433903066	2
8	207	502.794677597688	2
8	208	506.976881982864	2
8	209	509.160730266089	1
8	210	523.419958768486	0
8	212	525.18586160872	0
8	214	531.255079119128	1
8	215	536.046912014953	1
8	216	537.825934479081	0
8	218	549.756142199541	0
8	219	553.695216551002	0
8	221	554.025330218918	0
8	222	555.605333515854	0
8	224	557.678344759667	0
8	231	565.9436230653	1
8	233	567.863831338668	1
8	235	575.917811479756	1
8	237	583.098400084753	2
8	238	585.078065107699	2
8	239	587.975850676873	1
8	240	591.871155239675	0
8	242	594.500210084924	0
8	244	598.752685252627	1
8	253	633.961808842082	2
8	255	638.190608503541	3
8	258	651.709300721521	3
8	260	660.593018703502	3
8	264	676.691528554876	3
8	269	689.824420977936	3
8	270	690.564293330879	3
8	271	700.610866666068	2
8	272	706.950110450672	1
8	273	709.188052144589	0
8	277	718.371237768056	0
8	282	733.521189206355	0
8	287	743.664457964074	0
8	288	749.247698538455	0
8	290	753.942981059847	0
8	294	766.051283812766	0
8	299	784.610996476157	0
8	300	788.285973688763	0
8	302	794.14696762077	0
8	303	797.425721162012	0
8	305	821.459204172439	0
8	307	824.042809397798	1
8	309	825.196270828596	2
8	310	827.585511304195	2
8	311	831.031673842933	1
8	313	831.852211033489	1
8	315	833.937966094001	2
8	316	840.691932067697	2
8	317	842.677146213146	1
8	318	843.648338990956	0
8	320	850.399986038396	0
8	322	854.88890090233	1
8	323	864.231979466191	1
8	324	865.805437499438	0
8	326	873.482015827866	0
8	327	880.126946179797	0
8	334	901.221155159812	0
8	340	908.871473264762	1
8	342	909.602093200762	2
8	343	913.405170991995	2
8	344	917.058765509924	1
8	345	921.246135398169	0
8	347	923.781926997375	0
8	348	925.835215612994	0
8	352	931.423927518258	0
8	355	938.348939201108	1
8	357	943.24238757556	2
8	358	943.509207936314	2
8	359	947.9862045344	1
8	360	953.721853693825	0
8	362	962.235470988632	0
8	364	966.330123148036	1
8	365	967.151027640221	1
8	367	975.99798697478	1
8	369	978.705821758407	2
8	370	980.776144664197	2
8	371	988.981777128091	1
8	372	994.735574007939	0
8	374	998.482918602949	0
8	379	1005.920830405399	1
8	381	1008.556543930712	2
8	382	1012.125172584791	2
8	384	1012.386704453106	2
8	385	1013.113859142976	2
8	389	1017.532002700798	2
8	391	1031.945040342171	2
8	393	1032.004903157706	2
8	397	1041.796544683268	3
8	399	1044.751330121661	3
8	401	1044.847656911698	3
8	403	1046.391258790932	4
8	404	1048.576224585071	4
8	408	1057.922203388058	4
8	410	1059.232388767943	5
8	412	1065.576176905336	6
8	414	1070.968940743702	7
8	418	1079.763365671196	8
8	422	1087.902579559694	9
8	423	1093.879907884907	9
8	425	1097.392755284878	9
8	426	1112.787644620233	9
8	435	1125.766233095256	9
8	438	1139.173211604933	9
8	442	1143.088657313181	9
8	445	1148.352433743115	10
8	447	1150.14231878262	11
8	448	1153.163171071963	11
8	450	1163.488885027925	11
8	451	1172.196890292198	11
8	453	1173.619248624901	11
8	454	1180.710828043831	11
8	458	1205.290034637276	10
8	459	1206.786864481092	9
8	460	1211.493817884652	8
8	461	1213.594839551876	7
8	462	1214.765306650041	6
8	463	1215.218550316547	5
8	464	1219.527814201351	4
8	465	1219.855063590458	3
8	466	1220.412378270283	2
8	470	1227.0980384363	1
8	472	1227.547002012055	1
8	477	1246.485309322208	2
8	478	1250.589599629658	2
8	482	1269.13596725257	1
8	484	1271.334097917293	1
8	485	1273.979051602288	1
8	487	1274.754701552974	1
8	489	1274.77495479427	2
8	490	1274.831340750009	2
8	492	1275.295250023809	2
8	493	1286.614123545943	2
8	497	1297.488397158255	1
8	498	1304.365899244937	0
8	500	1310.814878514192	0
8	501	1311.293959448941	0
8	509	1389.787856502193	0
8	510	1390.565124891309	0
8	514	1411.774448768679	0
8	516	1416.222413151197	1
8	518	1427.986354051096	1
8	520	1428.245109142045	1
8	522	1434.999012423788	2
8	524	1436.025151640752	3
8	525	1436.3259000323	3
8	527	1441.760245540321	3
8	528	1443.159723696936	3
8	532	1450.280010984042	3
8	534	1462.464693203286	3
8	538	1465.101520267697	3
8	544	1482.251566661279	4
8	547	1492.180508218109	5
8	551	1500.410585507111	6
8	554	1506.819636616315	7
8	556	1511.139202840092	8
8	562	1519.026689187163	9
8	567	1526.868349624458	10
8	572	1532.515385442083	11
8	574	1541.525538881033	11
8	575	1545.132953907946	10
8	576	1550.662588326908	9
8	578	1553.683836730964	9
8	579	1553.809454009208	9
8	581	1559.904844978734	9
8	583	1561.116318174958	10
8	584	1561.427022825868	10
8	585	1561.56189091073	9
8	586	1564.781000505899	8
8	587	1565.499154750517	7
8	588	1568.561543675166	6
8	590	1573.486427605865	6
8	592	1573.805863783555	7
8	594	1574.189933004483	8
8	595	1574.436520004102	8
8	596	1577.466989331581	7
8	597	1581.977531511574	6
8	598	1592.440113746291	5
8	599	1592.520558913962	4
8	600	1600.000833640487	3
8	604	1601.857654802369	2
8	605	1602.152352158703	1
8	609	1604.725678599515	1
8	615	1612.040647159783	2
8	616	1614.126540192025	2
8	618	1615.447868378449	2
8	620	1616.539714252569	3
8	622	1622.372766462893	4
8	626	1625.59163037181	4
8	627	1629.079345159686	3
8	631	1631.729331216195	3
8	633	1634.727168303325	4
8	639	1643.010151488724	5
8	640	1644.497757515311	5
8	642	1652.095645300041	5
8	643	1655.571965247948	5
8	645	1657.888339907812	5
8	646	1662.081580617037	5
8	648	1668.538743181191	5
8	650	1671.840158955775	6
8	652	1675.065592406074	7
8	653	1676.779453759986	7
8	655	1679.339446979447	7
8	656	1679.491150114571	7
8	657	1685.801274622546	6
8	658	1690.562767259213	5
8	663	1698.856789361593	5
8	664	1698.975047351215	5
8	665	1699.094360735998	4
8	666	1699.261511173587	3
8	673	1746.146211424682	3
8	675	1763.159501486008	3
8	676	1764.545477034628	2
8	678	1768.10364118851	2
8	682	1777.698693699755	2
8	684	1781.822805675791	2
8	685	1783.061252882309	2
8	687	1785.178380479258	2
8	693	1805.982725966671	3
8	696	1816.756065738538	3
8	698	1816.75790201413	3
8	699	1817.828325272003	3
8	700	1819.61703839088	2
8	701	1821.534066465427	1
8	708	1839.816018363687	0
8	712	1843.574654344956	0
8	714	1859.398147249096	0
8	716	1879.373204660125	0
8	718	1887.469695952147	1
8	719	1888.328554291555	1
8	720	1891.078616539778	0
8	722	1903.408989516434	0
8	723	1904.520041783267	0
8	729	1925.420946342677	0
8	731	1927.398926209321	1
8	734	1929.417975943475	2
8	736	1938.44078768934	2
8	738	1944.773949654688	2
8	739	1947.180942589661	2
8	741	1948.558407843685	2
8	742	1949.030950739095	2
8	743	1951.482061996568	1
8	744	1953.714777377285	0
8	748	1983.66670938471	0
8	750	1984.43627306884	1
8	753	1988.943174813553	2
8	754	1990.207793118136	2
8	755	1991.572397109026	1
8	757	1992.87248004456	1
8	758	1993.025318502298	1
8	760	1993.792383647937	1
8	761	1994.825598985141	1
8	762	2009.414522433518	0
8	764	2021.120040871594	0
8	768	2025.333446785742	1
8	770	2028.392084686199	1
8	771	2036.935006884968	0
8	773	2054.053071454524	0
8	774	2054.403466160022	0
8	776	2062.518611221697	0
8	778	2063.391034652114	1
8	780	2065.200412046749	2
8	782	2067.369660307153	3
8	783	2069.291086377028	3
8	784	2071.257185441238	2
8	785	2071.386833782235	1
8	787	2077.355952694257	1
8	789	2080.661174205752	2
8	791	2081.339312086223	3
8	793	2083.359432863404	4
8	794	2086.397575270346	4
8	808	2107.763453955233	4
8	809	2113.013812931764	4
8	810	2113.609020682593	3
8	811	2115.362007820284	2
8	812	2118.729716331681	1
8	813	2129.402630178333	0
8	815	2130.147397150886	0
8	817	2131.075723428299	1
8	818	2137.685566795443	1
8	819	2138.403331232217	0
8	821	2142.161567990562	0
8	822	2144.345525052768	0
8	824	2144.385352452261	0
8	828	2146.283239973336	1
8	830	2152.668933988442	2
8	832	2159.629060106615	2
8	833	2162.044701671169	1
8	834	2163.196214240817	0
8	836	2171.148276558928	0
8	837	2176.905100966645	0
8	839	2176.964284117084	0
8	844	2185.652321415968	1
8	845	2193.48141393373	1
8	846	2197.55976682699	0
8	848	2200.157511841202	0
8	849	2200.363090630348	0
8	851	2201.869038775595	0
8	853	2201.997293095396	1
8	855	2203.452852601386	2
8	863	2214.867934563696	3
8	865	2223.657100916351	4
8	868	2226.881252968874	5
8	870	2228.640744741857	6
8	878	2237.903645916445	7
8	880	2242.477657187887	8
8	883	2250.373639852665	9
8	885	2268.093171805248	9
8	886	2274.387395083285	8
8	887	2278.930275804859	7
8	891	2283.883901231491	7
8	893	2286.238464290669	8
8	902	2299.319823196942	9
8	903	2299.553651279333	9
8	905	2300.783069113227	9
8	906	2303.615471646682	9
8	907	2307.861033062869	8
8	908	2308.417369134067	7
8	910	2313.804224342733	7
8	911	2317.368644006225	7
8	915	2328.464642079065	7
8	918	2335.545418203672	8
8	919	2339.947756628548	8
8	920	2340.762493250891	7
8	921	2341.291299850597	6
8	923	2341.981072622497	6
8	925	2343.334747485083	7
8	926	2343.794109425387	7
8	927	2347.596518797477	6
8	929	2350.655980734442	6
8	931	2351.535681568716	7
8	935	2380.394249811124	8
8	937	2385.512245301738	9
8	940	2395.827166958937	10
8	941	2404.131825145714	10
8	942	2413.959239955415	9
8	943	2416.302423539583	8
8	944	2416.839651347409	7
8	945	2419.379062883201	6
8	949	2438.359583112643	6
8	951	2442.338515999108	6
8	955	2444.126573409002	6
8	958	2448.04074565643	7
8	960	2454.272997008193	8
8	961	2458.248666492926	8
8	963	2459.202377342599	8
8	964	2460.868584540472	8
8	966	2462.063629544418	8
8	967	2464.776138645019	8
8	968	2466.325191235229	7
8	970	2466.971518960638	7
8	972	2469.938873253385	8
8	974	2472.405728764313	9
8	976	2472.638354338712	10
8	980	2473.954007465772	11
8	991	2498.684270847897	11
9	133	355.912694989885	17
9	136	364.506848852297	18
9	168	428.534744243479	19
9	169	429.254481381419	20
9	170	429.367926587421	21
9	173	433.269869297455	22
9	174	436.824587615337	23
9	177	441.379536549445	24
9	178	443.319180372813	25
9	181	448.602479798387	26
9	182	451.735887550752	27
9	190	468.292754919411	28
9	193	473.910363889843	29
9	197	483.586123887974	30
9	198	485.953730049556	31
9	199	488.650799654512	32
9	200	495.858383302007	33
9	204	499.841460927402	34
9	205	502.579433903066	35
9	208	506.976881982864	36
9	209	509.160730266089	37
9	210	523.419958768486	38
9	215	536.046912014953	39
9	216	537.825934479081	40
9	219	553.695216551002	41
9	222	555.605333515854	42
9	233	567.863831338668	43
9	238	585.078065107699	44
9	239	587.975850676873	45
9	240	591.871155239675	46
9	258	651.709300721521	47
9	264	676.691528554876	48
9	270	690.564293330879	49
9	271	700.610866666068	50
9	272	706.950110450672	51
9	273	709.188052144589	52
9	282	733.521189206355	53
9	288	749.247698538455	54
9	294	766.051283812766	55
9	300	788.285973688763	56
9	303	797.425721162012	57
9	310	827.585511304195	58
9	311	831.031673842933	59
9	316	840.691932067697	60
9	317	842.677146213146	61
9	318	843.648338990956	62
9	323	864.231979466191	63
9	324	865.805437499438	64
9	327	880.126946179797	65
9	343	913.405170991995	66
9	344	917.058765509924	67
9	345	921.246135398169	68
9	348	925.835215612994	69
9	358	943.509207936314	70
9	359	947.9862045344	71
9	360	953.721853693825	72
9	365	967.151027640221	73
9	370	980.776144664197	74
9	371	988.981777128091	75
9	372	994.735574007939	76
9	382	1012.125172584791	77
9	385	1013.113859142976	78
9	391	1031.945040342171	79
9	399	1044.751330121661	80
9	404	1048.576224585071	81
9	423	1093.879907884907	82
9	426	1112.787644620233	83
9	438	1139.173211604933	84
9	448	1153.163171071963	85
9	451	1172.196890292198	86
9	454	1180.710828043831	87
9	458	1205.290034637276	88
9	459	1206.786864481092	89
9	460	1211.493817884652	90
9	461	1213.594839551876	91
9	462	1214.765306650041	92
9	463	1215.218550316547	93
9	464	1219.527814201351	94
9	465	1219.855063590458	95
9	466	1220.412378270283	96
9	470	1227.0980384363	97
9	478	1250.589599629658	98
9	482	1269.13596725257	99
9	485	1273.979051602288	100
9	490	1274.831340750009	101
9	493	1286.614123545943	102
9	497	1297.488397158255	103
9	498	1304.365899244937	104
9	501	1311.293959448941	105
9	510	1390.565124891309	106
9	518	1427.986354051096	107
9	525	1436.3259000323	108
9	528	1443.159723696936	109
9	534	1462.464693203286	110
9	574	1541.525538881033	111
9	575	1545.132953907946	112
9	576	1550.662588326908	113
9	579	1553.809454009208	114
9	584	1561.427022825868	115
9	585	1561.56189091073	116
9	586	1564.781000505899	117
9	587	1565.499154750517	118
9	588	1568.561543675166	119
9	595	1574.436520004102	120
9	596	1577.466989331581	121
9	597	1581.977531511574	122
9	598	1592.440113746291	123
9	599	1592.520558913962	124
9	600	1600.000833640487	125
9	604	1601.857654802369	126
9	605	1602.152352158703	127
9	616	1614.126540192025	128
9	626	1625.59163037181	129
9	627	1629.079345159686	130
9	640	1644.497757515311	131
9	643	1655.571965247948	132
9	646	1662.081580617037	133
9	653	1676.779453759986	134
9	656	1679.491150114571	135
9	657	1685.801274622546	136
9	658	1690.562767259213	137
9	664	1698.975047351215	138
9	665	1699.094360735998	139
9	666	1699.261511173587	140
9	675	1763.159501486008	141
9	676	1764.545477034628	142
9	682	1777.698693699755	143
9	685	1783.061252882309	144
9	696	1816.756065738538	145
9	699	1817.828325272003	146
9	700	1819.61703839088	147
9	701	1821.534066465427	148
9	708	1839.816018363687	149
9	714	1859.398147249096	150
9	719	1888.328554291555	151
9	720	1891.078616539778	152
9	723	1904.520041783267	153
9	736	1938.44078768934	154
9	739	1947.180942589661	155
9	742	1949.030950739095	156
9	743	1951.482061996568	157
9	744	1953.714777377285	158
9	754	1990.207793118136	159
9	755	1991.572397109026	160
9	758	1993.025318502298	161
9	761	1994.825598985141	162
9	762	2009.414522433518	163
9	770	2028.392084686199	164
9	771	2036.935006884968	165
9	774	2054.403466160022	166
9	783	2069.291086377028	167
9	784	2071.257185441238	168
9	785	2071.386833782235	169
9	794	2086.397575270346	170
9	809	2113.013812931764	171
9	810	2113.609020682593	172
9	811	2115.362007820284	173
9	812	2118.729716331681	174
9	813	2129.402630178333	175
9	818	2137.685566795443	176
9	819	2138.403331232217	177
9	822	2144.345525052768	178
9	832	2159.629060106615	179
9	833	2162.044701671169	180
9	834	2163.196214240817	181
9	837	2176.905100966645	182
9	845	2193.48141393373	183
9	846	2197.55976682699	184
9	849	2200.363090630348	185
9	885	2268.093171805248	186
9	886	2274.387395083285	187
9	887	2278.930275804859	188
9	903	2299.553651279333	189
9	906	2303.615471646682	190
9	907	2307.861033062869	191
9	908	2308.417369134067	192
9	911	2317.368644006225	193
9	919	2339.947756628548	194
9	920	2340.762493250891	195
9	921	2341.291299850597	196
9	926	2343.794109425387	197
9	927	2347.596518797477	198
9	941	2404.131825145714	199
9	942	2413.959239955415	200
9	943	2416.302423539583	201
9	944	2416.839651347409	202
9	945	2419.379062883201	203
9	951	2442.338515999108	204
9	961	2458.248666492926	205
9	964	2460.868584540472	206
9	967	2464.776138645019	207
9	968	2466.325191235229	208
9	991	2498.684270847897	209
10	133	355.912694989885	38.880908705664
10	136	364.506848852297	44.802428443516
10	168	428.534744243479	101.70810262781
10	169	429.254481381419	100.91701941663
10	170	429.367926587421	90.107629184266
10	173	433.269869297455	82.35877394927
10	174	436.824587615337	85.197554425739
10	177	441.379536549445	84.607040087285
10	178	443.319180372813	76.928476239631
10	181	448.602479798387	68.789879570407
10	182	451.735887550752	48.772149834205
10	190	468.292754919411	57.690843189636
10	193	473.910363889843	49.882224460309
10	197	483.586123887974	53.504393913074
10	198	485.953730049556	44.730479002837
10	199	488.650799654512	40.799722244866
10	200	495.858383302007	39.758125144711
10	204	499.841460927402	32.619955592028
10	205	502.579433903066	31.000097079614
10	208	506.976881982864	32.806182803881
10	209	509.160730266089	13.189013265232
10	210	523.419958768486	20.625281170798
10	215	536.046912014953	10.861050406233
10	216	537.825934479081	6.570855359953
10	219	553.695216551002	3.939074351461
10	222	555.605333515854	1.580003296936
10	233	567.863831338668	2.223404996152
10	238	585.078065107699	19.134442042399
10	239	587.975850676873	12.058039197117
10	240	591.871155239675	8.772755154922
10	258	651.709300721521	52.956615468894
10	264	676.691528554876	42.729719712794
10	270	690.564293330879	29.971274627377
10	271	700.610866666068	29.647411828629
10	272	706.950110450672	22.69575845601
10	273	709.188052144589	19.363631166653
10	282	733.521189206355	15.149951438299
10	288	749.247698538455	5.583240574381
10	294	766.051283812766	9.422077901823
10	300	788.285973688763	3.674977212606
10	303	797.425721162012	3.278753541242
10	310	827.585511304195	6.126307131756
10	311	831.031673842933	6.988864445135
10	316	840.691932067697	15.495661239101
10	317	842.677146213146	10.824935179657
10	318	843.648338990956	9.710372896955
10	323	864.231979466191	13.831993427795
10	324	865.805437499438	10.916536597108
10	327	880.126946179797	6.644930351931
10	343	913.405170991995	12.184015832183
10	344	917.058765509924	8.187292245162
10	345	921.246135398169	11.644042197407
10	348	925.835215612994	2.053288615619
10	358	943.509207936314	12.085280418056
10	359	947.9862045344	9.637265333292
10	360	953.721853693825	10.479466118265
10	365	967.151027640221	4.915556651589
10	370	980.776144664197	14.446021516161
10	371	988.981777128091	12.983790153311
10	372	994.735574007939	16.029752249532
10	382	1012.125172584791	9.501716369668
10	385	1013.113859142976	7.193028737577
10	391	1031.945040342171	19.558335889065
10	399	1044.751330121661	27.219327420863
10	404	1048.576224585071	16.571321427365
10	423	1093.879907884907	52.083363201639
10	426	1112.787644620233	67.939987708535
10	438	1139.173211604933	81.251008216875
10	448	1153.163171071963	87.586994166627
10	451	1172.196890292198	101.2279495485
10	454	1180.710828043831	100.94746237264
10	458	1205.290034637276	107.8972793524
10	459	1206.786864481092	92.732242737119
10	460	1211.493817884652	90.446243088058
10	461	1213.594839551876	87.82860645662
10	462	1214.765306650041	71.764588284659
10	463	1215.218550316547	72.129893003366
10	464	1219.527814201351	71.175380458236
10	465	1219.855063590458	69.712744807838
10	466	1220.412378270283	56.923493242358
10	470	1227.0980384363	33.833481553045
10	478	1250.589599629658	23.042597617603
10	482	1269.13596725257	22.650657930362
10	485	1273.979051602288	13.296055733212
10	490	1274.831340750009	3.497242832716
10	493	1286.614123545943	11.859421992969
10	497	1297.488397158255	22.193147134446
10	498	1304.365899244937	13.734144870617
10	501	1311.293959448941	0.479080934749
10	510	1390.565124891309	0.777268389116
10	518	1427.986354051096	16.211905282417
10	525	1436.3259000323	20.103486881103
10	528	1443.159723696936	14.914614554891
10	534	1462.464693203286	26.439541562534
10	574	1541.525538881033	76.663303783292
10	575	1545.132953907946	80.031433640249
10	576	1550.662588326908	68.411021665629
10	579	1553.809454009208	61.628945791099
10	584	1561.427022825868	61.016437318757
10	585	1561.56189091073	54.742254294415
10	586	1564.781000505899	53.641797665807
10	587	1565.499154750517	47.848857565032
10	588	1568.561543675166	49.534854488003
10	595	1574.436520004102	50.120900834401
10	596	1577.466989331581	50.598639707123
10	597	1581.977531511574	49.462146069491
10	598	1592.440113746291	38.756277015327
10	599	1592.520558913962	32.615713935228
10	600	1600.000833640487	38.884515465529
10	604	1601.857654802369	28.051791018814
10	605	1602.152352158703	27.96241915422
10	616	1614.126540192025	10.320700091853
10	626	1625.59163037181	13.550983212027
10	627	1629.079345159686	13.631476781237
10	640	1644.497757515311	20.920487425719
10	643	1655.571965247948	25.5457563685
10	646	1662.081580617037	30.352249400842
10	653	1676.779453759986	42.052285456661
10	656	1679.491150114571	38.944142599249
10	657	1685.801274622546	42.791123133822
10	658	1690.562767259213	38.467121959172
10	664	1698.975047351215	30.436304170024
10	665	1699.094360735998	27.254201780223
10	666	1699.261511173587	24.195918767513
10	675	1763.159501486008	67.665516527484
10	676	1764.545477034628	65.688687673035
10	682	1777.698693699755	31.552482275073
10	685	1783.061252882309	14.957611693799
10	696	1816.756065738538	34.933260062747
10	699	1817.828325272003	32.649944792745
10	700	1819.61703839088	16.762106531139
10	701	1821.534066465427	15.551340498756
10	708	1839.816018363687	6.176447836238
10	714	1859.398147249096	15.82349290414
10	719	1888.328554291555	8.95534963143
10	720	1891.078616539778	3.608920587631
10	723	1904.520041783267	1.111052266833
10	736	1938.44078768934	13.019841346663
10	739	1947.180942589661	19.78201638034
10	742	1949.030950739095	19.61297479562
10	743	1951.482061996568	6.70811234188
10	744	1953.714777377285	5.1563695336
10	754	1990.207793118136	6.541083733426
10	755	1991.572397109026	7.136124040186
10	758	1993.025318502298	4.082143688745
10	761	1994.825598985141	1.953118940581
10	762	2009.414522433518	15.622138785581
10	770	2028.392084686199	6.756139706546
10	771	2036.935006884968	11.601560099226
10	774	2054.403466160022	0.350394705498
10	783	2069.291086377028	6.772475155331
10	784	2071.257185441238	7.866150789124
10	785	2071.386833782235	6.186421735486
10	794	2086.397575270346	19.027914963193
10	809	2113.013812931764	32.352638726012
10	810	2113.609020682593	32.26970859637
10	811	2115.362007820284	32.00257495688
10	812	2118.729716331681	27.83242978937
10	813	2129.402630178333	21.6391762231
10	818	2137.685566795443	7.538169644557
10	819	2138.403331232217	7.327607803918
10	822	2144.345525052768	2.183957062206
10	832	2159.629060106615	13.746980359285
10	833	2162.044701671169	15.761461697833
10	834	2163.196214240817	10.527280252375
10	837	2176.905100966645	5.756824407717
10	845	2193.48141393373	16.021963447543
10	846	2197.55976682699	11.907445411022
10	849	2200.363090630348	0.205578789146
10	885	2268.093171805248	66.095878709852
10	886	2274.387395083285	70.934542481899
10	887	2278.930275804859	72.079506671999
10	903	2299.553651279333	75.896550362982
10	906	2303.615471646682	76.734218677808
10	907	2307.861033062869	79.220288321012
10	908	2308.417369134067	70.513723217622
10	911	2317.368644006225	74.890986818338
10	919	2339.947756628548	57.451285617641
10	920	2340.762493250891	56.8785920194
10	921	2341.291299850597	55.052835559928
10	926	2343.794109425387	44.474286228445
10	927	2347.596518797477	46.81344968425
10	941	2404.131825145714	85.126781280103
10	942	2413.959239955415	85.49459787635
10	943	2416.302423539583	80.757005335911
10	944	2416.839651347409	74.858578724912
10	945	2419.379062883201	76.044315398118
10	951	2442.338515999108	90.802834430392
10	961	2458.248666492926	77.854416681802
10	964	2460.868584540472	75.356339238734
10	967	2464.776138645019	68.948971686082
10	968	2466.325191235229	46.474598186174
10	991	2498.684270847897	56.076480485635
11	994	2500	0.0836
12	994	2500	0.0456

