version 2
run experiments_hard_game_mode1-128-20230311-19:39:50-5202
attr configname experiments_hard_game_mode1
attr datetime 20230311-19:39:50
attr experiment experiments_hard_game_mode1
attr inifile omnetpp.ini
attr iterationvars "$0=7.5, $1=5, $2=0"
attr iterationvarsf 7.5,5,0-
attr measurement "$0=7.5, $1=5, $2=0"
attr network Network
attr processid 5202
attr repetition 8
attr replication #8
attr resultdir results
attr runnumber 128
attr seedset 8
param *.boss.arrival_mean 20
param *.boss.service_mean 7.5
param *.minion.arrival_mean 10
param *.minion.service_mean 5
param *.player.recover_rate_x 0
param **.minion.arrival_distribution 0
param **.minion.service_distribution 0
param **.boss.arrival_distribution 0
param **.boss.service_distribution 0

vector 0 Network.player boss_defeated_stat:vector ETV
attr source signal_boss_defeated
vector 1 Network.player boss_jobs_queue_number_stat:vector ETV
attr source signal_boss_jobs_queue_number
vector 2 Network.player boss_response_time_stat:vector ETV
attr source signal_boss_response_time
vector 3 Network.player boss_waiting_time_stat:vector ETV
attr source signal_boss_waiting_time
vector 4 Network.player minion_waiting_time_stat:vector ETV
attr source signal_minion_waiting_time
vector 5 Network.player minion_defeated_stat:vector ETV
attr source signal_minion_defeated
vector 6 Network.player minion_jobs_queue_number_stat:vector ETV
attr source signal_minion_jobs_queue_number
vector 7 Network.player minion_response_time_stat:vector ETV
attr source signal_minion_response_time
vector 8 Network.player minion_jobs_number_stat:vector ETV
attr source signal_minion_jobs_number
vector 9 Network.player boss_jobs_number_stat:vector ETV
attr source signal_boss_jobs_number
vector 10 Network.player minion_recovered_stat:vector ETV
attr source signal_minion_recovered
vector 11 Network.player minion_throughput:vector ETV
attr source signal_minion_throughput
vector 12 Network.player boss_throughput:vector ETV
attr source signal_boss_throughput
0	160	351.786188604032	22
0	161	352.137820484502	23
0	174	376.983658099847	24
0	183	434.378152227534	25
0	203	483.599975024569	26
0	204	485.404207999936	27
0	207	503.349885905815	28
0	215	522.075900210434	29
0	224	538.625794359711	30
0	243	598.168017056503	31
0	246	622.680938812368	32
0	254	626.893855494585	33
0	284	711.023070919638	34
0	297	744.661720942236	35
0	298	744.859763056841	36
0	305	755.259498104326	37
0	308	758.414274588179	38
0	313	760.300712689998	39
0	316	769.692938540225	40
0	319	770.893358349175	41
0	322	776.690256476103	42
0	328	784.889494039647	43
0	345	833.209621655527	44
0	348	839.008366758864	45
0	357	854.198118660447	46
0	358	854.741432195434	47
0	363	871.925972382495	48
0	397	923.589386613141	49
0	404	935.821601672206	50
0	405	935.904841057047	51
0	451	1069.380075404591	52
0	476	1119.304169363277	53
0	482	1135.217530410293	54
0	495	1151.687965290312	55
0	508	1181.470358858684	56
0	509	1187.190604904349	57
0	512	1191.023637685074	58
0	513	1191.685059834725	59
0	518	1196.250557187263	60
0	519	1209.294218659355	61
0	523	1218.054111221071	62
0	529	1236.022754465786	63
0	546	1279.293287239123	64
0	568	1333.365684403528	65
0	582	1362.183584398764	66
0	591	1414.577165256539	67
0	605	1437.655038619187	68
0	612	1459.243216269351	69
0	637	1544.076222048939	70
0	640	1557.460308203811	71
0	641	1558.73033662348	72
0	658	1608.776766184102	73
0	663	1618.993485029142	74
0	691	1676.367940055171	75
0	727	1753.023687769918	76
0	760	1799.664222035343	77
0	781	1843.245675469244	78
0	782	1845.392068452259	79
0	790	1862.792977038703	80
0	797	1878.588266375167	81
0	814	1909.272556473287	82
0	815	1911.952448588414	83
0	820	1924.945865641772	84
0	843	1989.051115864848	85
0	882	2044.396286570381	86
0	889	2050.319113517689	87
0	890	2052.104241804577	88
0	891	2053.06095413359	89
0	892	2054.183039416242	90
0	904	2076.735164833499	91
0	905	2079.393986867171	92
0	916	2102.621969688535	93
0	938	2144.109577815749	94
0	949	2162.281395226227	95
0	950	2169.645462643851	96
0	957	2186.337504286644	97
0	960	2208.29620161529	98
0	967	2218.801577993243	99
0	987	2251.744248484471	100
0	988	2263.891748930141	101
0	1006	2281.134277678735	102
0	1007	2288.076399373921	103
0	1014	2303.731716119098	104
0	1024	2316.570620055939	105
0	1035	2326.457511590525	106
0	1050	2346.736210103091	107
0	1051	2349.847460328458	108
0	1054	2357.788104786505	109
0	1055	2363.467502525122	110
0	1060	2371.986341447938	111
0	1061	2376.787690516226	112
0	1064	2379.588721036719	113
0	1065	2383.68073348672	114
0	1080	2409.7204685294	115
0	1087	2424.140538525549	116
0	1091	2428.66506710439	117
0	1095	2435.714586180723	118
0	1107	2476.55532410815	119
0	1110	2483.494058970663	120
0	1111	2488.882590804665	121
0	1112	2493.654308117308	122
1	160	351.786188604032	1
1	161	352.137820484502	0
1	173	375.391315048882	0
1	174	376.983658099847	0
1	182	416.09885070976	0
1	183	434.378152227534	0
1	194	457.766007587543	0
1	202	476.548788404644	1
1	203	483.599975024569	1
1	204	485.404207999936	0
1	206	486.357315170998	0
1	207	503.349885905815	0
1	214	519.361765448563	0
1	215	522.075900210434	0
1	221	529.267700894395	0
1	224	538.625794359711	0
1	242	564.300560389618	0
1	243	598.168017056503	0
1	245	619.011098646388	0
1	246	622.680938812368	0
1	251	625.351485420614	0
1	254	626.893855494585	0
1	263	656.547358981017	0
1	275	692.763323156002	1
1	281	703.740050135436	2
1	283	710.380849687831	3
1	284	711.023070919638	3
1	286	720.453856391853	3
1	288	723.431017966754	4
1	292	733.910972131425	5
1	297	744.661720942236	5
1	298	744.859763056841	4
1	305	755.259498104326	3
1	308	758.414274588179	2
1	312	758.996673827888	2
1	313	760.300712689998	2
1	315	766.656699326265	2
1	316	769.692938540225	2
1	319	770.893358349175	1
1	322	776.690256476103	0
1	325	779.450215402787	0
1	328	784.889494039647	0
1	342	818.983464402905	0
1	345	833.209621655527	0
1	347	835.248604404272	0
1	348	839.008366758864	0
1	350	843.367700009282	0
1	356	853.109086923126	1
1	357	854.198118660447	1
1	358	854.741432195434	0
1	360	863.83902178876	0
1	363	871.925972382495	0
1	394	920.493155444247	0
1	397	923.589386613141	0
1	401	931.651819903604	0
1	403	933.345352980081	1
1	404	935.821601672206	1
1	405	935.904841057047	0
1	450	1058.518930789588	0
1	451	1069.380075404591	0
1	471	1108.361782751192	0
1	476	1119.304169363277	0
1	481	1132.694596718756	0
1	482	1135.217530410293	0
1	484	1136.108807583738	0
1	486	1136.333826018112	1
1	494	1148.078871593158	2
1	495	1151.687965290312	2
1	501	1163.720581410365	2
1	503	1168.488416785386	3
1	505	1173.076299037651	4
1	507	1176.916299660197	5
1	508	1181.470358858684	5
1	509	1187.190604904349	4
1	512	1191.023637685074	3
1	513	1191.685059834725	2
1	518	1196.250557187263	1
1	519	1209.294218659355	0
1	522	1216.291314203088	0
1	523	1218.054111221071	0
1	526	1230.755115960214	0
1	529	1236.022754465786	0
1	545	1272.682469325331	0
1	546	1279.293287239123	0
1	563	1317.361855239214	0
1	568	1333.365684403528	0
1	581	1361.686355425169	0
1	582	1362.183584398764	0
1	590	1413.14304119274	0
1	591	1414.577165256539	0
1	598	1419.219797478038	0
1	605	1437.655038619187	0
1	609	1455.374959090924	0
1	612	1459.243216269351	0
1	626	1512.613832586893	0
1	632	1526.463072663728	1
1	637	1544.076222048939	1
1	639	1545.518748707868	1
1	640	1557.460308203811	1
1	641	1558.73033662348	0
1	649	1579.922105872001	0
1	658	1608.776766184102	0
1	660	1614.647544777863	0
1	663	1618.993485029142	0
1	690	1669.12752658445	0
1	691	1676.367940055171	0
1	726	1752.69058199458	0
1	727	1753.023687769918	0
1	753	1784.36714221366	0
1	760	1799.664222035343	0
1	774	1826.11813210479	0
1	780	1838.500648643851	1
1	781	1843.245675469244	1
1	782	1845.392068452259	0
1	789	1862.163813384079	0
1	790	1862.792977038703	0
1	796	1870.862406747146	0
1	797	1878.588266375167	0
1	801	1881.496160769119	0
1	805	1883.79523115591	1
1	813	1903.24141457117	2
1	814	1909.272556473287	2
1	815	1911.952448588414	1
1	820	1924.945865641772	0
1	842	1986.939751930008	0
1	843	1989.051115864848	0
1	871	2024.452246727987	0
1	873	2027.727541502782	1
1	875	2030.661302349244	2
1	879	2037.18732466916	3
1	882	2044.396286570381	3
1	886	2049.562016438356	3
1	889	2050.319113517689	3
1	890	2052.104241804577	2
1	891	2053.06095413359	1
1	892	2054.183039416242	0
1	901	2073.58352631853	0
1	903	2074.263168382427	1
1	904	2076.735164833499	1
1	905	2079.393986867171	0
1	911	2095.128767516438	0
1	916	2102.621969688535	0
1	937	2143.862823377282	0
1	938	2144.109577815749	0
1	944	2148.922937466807	0
1	946	2150.669734305564	1
1	949	2162.281395226227	1
1	950	2169.645462643851	0
1	956	2183.044205315737	0
1	957	2186.337504286644	0
1	959	2202.435043403632	0
1	960	2208.29620161529	0
1	966	2216.788444128043	0
1	967	2218.801577993243	0
1	984	2249.729384129566	0
1	986	2251.367958607534	1
1	987	2251.744248484471	1
1	988	2263.891748930141	0
1	1003	2279.690247357455	0
1	1005	2280.385384205945	1
1	1006	2281.134277678735	1
1	1007	2288.076399373921	0
1	1011	2294.765771610817	0
1	1014	2303.731716119098	0
1	1021	2311.466960642226	0
1	1023	2314.816185985176	1
1	1024	2316.570620055939	1
1	1026	2318.058885096036	1
1	1032	2321.349749090659	2
1	1035	2326.457511590525	2
1	1037	2326.870960380821	2
1	1039	2327.4267847295	3
1	1041	2328.107968982309	4
1	1047	2332.981509177791	5
1	1050	2346.736210103091	5
1	1051	2349.847460328458	4
1	1053	2354.319388697645	4
1	1054	2357.788104786505	4
1	1055	2363.467502525122	3
1	1059	2370.218810734865	3
1	1060	2371.986341447938	3
1	1061	2376.787690516226	2
1	1064	2379.588721036719	1
1	1065	2383.68073348672	0
1	1079	2408.760504512205	0
1	1080	2409.7204685294	0
1	1086	2422.9459360675	0
1	1087	2424.140538525549	0
1	1090	2427.402652917027	0
1	1091	2428.66506710439	0
1	1094	2432.751736103515	0
1	1095	2435.714586180723	0
1	1102	2465.658478271555	0
1	1104	2472.320315154536	1
1	1106	2473.889202106358	2
1	1107	2476.55532410815	2
1	1109	2478.649007051707	2
1	1110	2483.494058970663	2
1	1111	2488.882590804665	1
1	1112	2493.654308117308	0
1	1115	2498.862924785266	0
2	160	351.786188604032	35.087472994061
2	161	352.137820484502	14.529742269991
2	174	376.983658099847	1.592343050965
2	183	434.378152227534	18.279301517774
2	203	483.599975024569	25.833967437026
2	204	485.404207999936	8.855419595292
2	207	503.349885905815	16.992570734817
2	215	522.075900210434	2.714134761871
2	224	538.625794359711	9.358093465316
2	243	598.168017056503	33.867456666885
2	246	622.680938812368	3.66984016598
2	254	626.893855494585	1.542370073971
2	284	711.023070919638	54.475711938621
2	297	744.661720942236	51.898397786234
2	298	744.859763056841	41.119712921405
2	305	755.259498104326	44.878648416495
2	308	758.414274588179	37.960418196326
2	313	760.300712689998	36.869694723244
2	316	769.692938540225	35.7819664088
2	319	770.893358349175	11.896684521287
2	322	776.690256476103	10.033557149838
2	328	784.889494039647	5.43927863686
2	345	833.209621655527	14.226157252622
2	348	839.008366758864	3.759762354592
2	357	854.198118660447	10.830418651165
2	358	854.741432195434	1.632345272308
2	363	871.925972382495	8.086950593735
2	397	923.589386613141	3.096231168894
2	404	935.821601672206	4.169781768602
2	405	935.904841057047	2.559488076966
2	451	1069.380075404591	10.861144615003
2	476	1119.304169363277	10.942386612085
2	482	1135.217530410293	2.522933691537
2	495	1151.687965290312	15.579157706574
2	508	1181.470358858684	45.136532840572
2	509	1187.190604904349	39.111733311191
2	512	1191.023637685074	27.303056274709
2	513	1191.685059834725	23.196643049339
2	518	1196.250557187263	23.174258149612
2	519	1209.294218659355	32.377918999158
2	523	1218.054111221071	1.762797017983
2	529	1236.022754465786	5.267638505572
2	546	1279.293287239123	6.610817913792
2	568	1333.365684403528	16.003829164314
2	582	1362.183584398764	0.497228973595
2	591	1414.577165256539	1.434124063799
2	605	1437.655038619187	18.435241141149
2	612	1459.243216269351	3.868257178427
2	637	1544.076222048939	31.462389462046
2	640	1557.460308203811	30.997235540083
2	641	1558.73033662348	13.211587915612
2	658	1608.776766184102	28.854660312101
2	663	1618.993485029142	4.345940251279
2	691	1676.367940055171	7.240413470721
2	727	1753.023687769918	0.333105775338
2	760	1799.664222035343	15.297079821683
2	781	1843.245675469244	17.127543364454
2	782	1845.392068452259	6.891419808408
2	790	1862.792977038703	0.629163654624
2	797	1878.588266375167	7.725859628021
2	814	1909.272556473287	27.776395704168
2	815	1911.952448588414	28.157217432504
2	820	1924.945865641772	21.704451070602
2	843	1989.051115864848	2.11136393484
2	882	2044.396286570381	19.944039842394
2	889	2050.319113517689	22.591572014907
2	890	2052.104241804577	21.442939455333
2	891	2053.06095413359	15.87362946443
2	892	2054.183039416242	4.621022977886
2	904	2076.735164833499	3.151638514969
2	905	2079.393986867171	5.130818484744
2	916	2102.621969688535	7.493202172097
2	938	2144.109577815749	0.246754438467
2	949	2162.281395226227	13.35845775942
2	950	2169.645462643851	18.975728338287
2	957	2186.337504286644	3.293298970907
2	960	2208.29620161529	5.861158211658
2	967	2218.801577993243	2.0131338652
2	987	2251.744248484471	2.014864354905
2	988	2263.891748930141	12.523790322607
2	1006	2281.134277678735	1.44403032128
2	1007	2288.076399373921	7.691015167976
2	1014	2303.731716119098	8.965944508281
2	1024	2316.570620055939	5.103659413713
2	1035	2326.457511590525	11.641325605349
2	1050	2346.736210103091	28.677325007055
2	1051	2349.847460328458	28.497711237799
2	1054	2357.788104786505	30.917144405684
2	1055	2363.467502525122	36.040717795622
2	1060	2371.986341447938	43.878372465629
2	1061	2376.787690516226	43.806181338435
2	1064	2379.588721036719	25.269332339074
2	1065	2383.68073348672	13.461922751855
2	1080	2409.7204685294	0.959964017195
2	1087	2424.140538525549	1.194602458049
2	1091	2428.66506710439	1.262414187363
2	1095	2435.714586180723	2.962850077208
2	1107	2476.55532410815	10.896845836595
2	1110	2483.494058970663	11.173743816127
2	1111	2488.882590804665	14.993388698307
2	1112	2493.654308117308	15.005301065601
3	160	351.786188604032	14.178110389521
3	173	375.391315048882	0
3	182	416.09885070976	0
3	194	457.766007587543	0
3	203	483.599975024569	7.051186619925
3	206	486.357315170998	0
3	214	519.361765448563	0
3	221	529.267700894395	0
3	242	564.300560389618	0
3	245	619.011098646388	0
3	251	625.351485420614	0
3	263	656.547358981017	0
3	284	711.023070919638	18.259747763636
3	297	744.661720942236	40.9216708068
3	298	744.859763056841	34.47891336901
3	305	755.259498104326	34.805641712473
3	308	758.414274588179	34.983256621425
3	313	760.300712689998	26.389740558573
3	316	769.692938540225	10.696264712337
3	319	770.893358349175	4.23665902291
3	325	779.450215402787	0
3	342	818.983464402905	0
3	347	835.248604404272	0
3	350	843.367700009282	0
3	357	854.198118660447	1.089031737321
3	360	863.83902178876	0
3	394	920.493155444247	0
3	401	931.651819903604	0
3	404	935.821601672206	2.476248692125
3	450	1058.518930789588	0
3	471	1108.361782751192	0
3	481	1132.694596718756	0
3	484	1136.108807583738	0
3	495	1151.687965290312	15.3541392722
3	508	1181.470358858684	33.391487265526
3	509	1187.190604904349	23.470023493984
3	512	1191.023637685074	22.535220899688
3	513	1191.685059834725	18.608760797074
3	518	1196.250557187263	19.334257527066
3	522	1216.291314203088	0
3	526	1230.755115960214	0
3	545	1272.682469325331	0
3	563	1317.361855239214	0
3	581	1361.686355425169	0
3	590	1413.14304119274	0
3	598	1419.219797478038	0
3	609	1455.374959090924	0
3	626	1512.613832586893	0
3	637	1544.076222048939	17.613149385211
3	640	1557.460308203811	11.941559495943
3	649	1579.922105872001	0
3	660	1614.647544777863	0
3	690	1669.12752658445	0
3	726	1752.69058199458	0
3	753	1784.36714221366	0
3	774	1826.11813210479	0
3	781	1843.245675469244	4.745026825393
3	789	1862.163813384079	0
3	796	1870.862406747146	0
3	801	1881.496160769119	0
3	814	1909.272556473287	25.477325317377
3	815	1911.952448588414	8.711034017244
3	842	1986.939751930008	0
3	871	2024.452246727987	0
3	882	2044.396286570381	16.668745067599
3	889	2050.319113517689	19.657811168445
3	890	2052.104241804577	14.916917135417
3	891	2053.06095413359	3.498937695234
3	901	2073.58352631853	0
3	904	2076.735164833499	2.471996451072
3	911	2095.128767516438	0
3	937	2143.862823377282	0
3	944	2148.922937466807	0
3	949	2162.281395226227	11.611660920663
3	956	2183.044205315737	0
3	959	2202.435043403632	0
3	966	2216.788444128043	0
3	984	2249.729384129566	0
3	987	2251.744248484471	0.376289876937
3	1003	2279.690247357455	0
3	1006	2281.134277678735	0.74889347279
3	1011	2294.765771610817	0
3	1021	2311.466960642226	0
3	1024	2316.570620055939	1.754434070763
3	1035	2326.457511590525	8.398626494489
3	1050	2346.736210103091	25.386461012432
3	1051	2349.847460328458	22.976499947637
3	1054	2357.788104786505	30.361320057005
3	1055	2363.467502525122	35.359533542813
3	1060	2371.986341447938	39.004832270147
3	1061	2376.787690516226	22.468301818581
3	1064	2379.588721036719	9.369910301854
3	1079	2408.760504512205	0
3	1086	2422.9459360675	0
3	1090	2427.402652917027	0
3	1094	2432.751736103515	0
3	1102	2465.658478271555	0
3	1107	2476.55532410815	4.235008953614
3	1110	2483.494058970663	9.604856864305
3	1111	2488.882590804665	10.233583752958
3	1115	2498.862924785266	0
4	161	352.137820484502	109.06294177756
4	162	352.552324612373	102.19801643407
4	167	364.819955004404	99.831338087553
4	170	367.931767752184	97.114321038446
4	171	370.096520434769	81.202621997811
4	174	376.983658099847	87.312894526451
4	175	377.550349777692	79.861392571387
4	176	378.44380151647	68.391719288175
4	179	385.291311416186	63.074979515411
4	180	405.713327397695	69.033891195378
4	183	434.378152227534	88.797328291424
4	186	445.005713203921	97.850255146895
4	187	445.522166321476	97.854483117348
4	188	448.928886595169	93.889684342706
4	189	449.907346309401	86.617531758435
4	190	452.469474495806	84.63854449584
4	191	454.728535932667	79.337220883785
4	192	454.87536285167	72.504760345007
4	204	485.404207999936	69.305357290176
4	207	503.349885905815	66.678111963717
4	210	512.234208010147	54.468200422604
4	211	512.344502640484	51.491834017657
4	212	518.725013535585	52.350975989723
4	215	522.075900210434	54.726727223595
4	216	523.499454561475	37.142139390477
4	219	528.803211195322	25.262144352803
4	224	538.625794359711	19.264028911148
4	229	545.42499230108	18.602702075089
4	234	550.299625234218	21.031924339823
4	235	550.998280528404	18.15638463457
4	236	552.4743879319	13.452829566998
4	237	553.242759976504	9.513236625381
4	238	555.981489440296	6.236829101672
4	239	557.104564362341	7.34691224822
4	248	624.377629917337	0
4	254	626.893855494585	0.516844037112
4	257	628.149441136313	0
4	260	646.041393116059	0
4	322	776.690256476103	118.29180006476
4	323	776.977015927488	117.28609162098
4	328	784.889494039647	123.44760361976
4	329	789.46515710766	115.86356888627
4	332	794.896077433302	104.64621104031
4	335	801.314723559973	98.039123706387
4	336	803.200706361442	99.56730955356
4	345	833.209621655527	103.81899511296
4	348	839.008366758864	101.96299711178
4	358	854.741432195434	111.35591184793
4	363	871.925972382495	126.71923474406
4	364	875.675100483841	127.92880209831
4	367	881.305313241516	129.87138953269
4	368	883.31873362999	125.13397498048
4	371	887.032748510905	128.38689689897
4	372	889.217389608233	119.28641658219
4	373	889.445770140029	116.78914633649
4	374	889.857410840242	110.40719543746
4	377	899.652617794793	117.04707909317
4	380	902.902933242986	109.06318362484
4	383	906.961622728252	108.71562734242
4	384	907.506363038429	94.010192668834
4	385	908.412740351883	94.226817620275
4	386	909.0749206237	90.091456220795
4	387	910.873473327686	84.806502505253
4	388	912.62294771353	77.374343309258
4	391	915.621939944595	72.254239935313
4	392	919.880385995343	71.700879327268
4	397	923.589386613141	71.420697341641
4	405	935.904841057047	72.065819268287
4	406	944.025809160422	75.009250713499
4	407	944.103988472258	68.274614144109
4	408	946.355479881026	59.894334565705
4	409	947.242852716675	53.355783186977
4	410	949.326600218291	48.493355855708
4	411	955.942936624301	51.563760475015
4	412	962.139239933763	47.068513489971
4	413	962.53434794288	42.041192498633
4	418	973.533288223486	52.242975933743
4	419	973.694394872959	47.435190658238
4	420	976.00597863345	44.354158729846
4	421	977.12550412731	9.012029320013
4	424	980.322473436844	8.262626706428
4	425	980.934651766066	1.920609059461
4	428	987.510600747464	1.109010836914
4	431	991.477771818955	0
4	434	998.896553163796	2.323233122798
4	437	1009.5893717972	0
4	440	1027.29326052894	0
4	443	1047.195191840301	0
4	446	1051.588422140614	0
4	451	1069.380075404591	17.526472741318
4	454	1070.114748845732	11.595818056144
4	455	1070.504920538705	0.934611051311
4	462	1094.073669335152	21.07821474214
4	465	1098.602101567243	24.27232448485
4	468	1106.409627722188	16.517599316063
4	469	1107.296708956059	11.009957968209
4	476	1119.304169363277	16.908754709
4	477	1127.409880456119	19.048097704927
4	482	1135.217530410293	26.627968937891
4	519	1209.294218659355	100.63513131432
4	520	1212.761221183906	80.688613671123
4	523	1218.054111221071	85.359514502315
4	524	1223.340147586701	87.231340002963
4	529	1236.022754465786	98.514326261086
4	530	1236.329442475216	95.564212705464
4	531	1237.237190285415	92.457108726081
4	532	1239.72398858736	87.862640703704
4	533	1240.434366473781	79.30576558547
4	534	1245.269333482923	55.087048724944
4	537	1252.186090398679	58.078995407042
4	538	1253.228546520054	57.418375912312
4	541	1258.264721317325	41.973407114237
4	542	1272.031102978103	41.275987017889
4	543	1272.346191891776	36.769831462766
4	546	1279.293287239123	33.542719299047
4	547	1296.524320457604	41.900801881628
4	548	1296.990281611949	24.307812286618
4	553	1299.446110813125	1.869309485781
4	554	1301.078561366069	2.096580324812
4	557	1307.674178620585	2.500148048108
4	560	1312.534111945697	0
4	568	1333.365684403528	8.071043880156
4	573	1345.10778242973	15.381808642339
4	574	1347.216794530996	9.298448165949
4	575	1359.246060399609	21.176577893878
4	582	1362.183584398764	2.17489914203
4	583	1365.656569998822	4.633868855081
4	584	1365.744193423553	4.057837998384
4	587	1400.284102277724	0
4	593	1415.619746805441	0
4	596	1418.960130004518	0
4	605	1437.655038619187	18.435241141149
4	606	1443.705116958103	19.176238187651
4	607	1454.891469268179	24.17265317612
4	612	1459.243216269351	26.318534161629
4	613	1460.124303856759	4.749344765835
4	616	1474.915191183214	18.357627493675
4	617	1476.645318368398	10.30339296942
4	620	1496.569148529909	0
4	623	1506.793690175289	0
4	641	1558.73033662348	40.264548888875
4	642	1568.225720479663	46.603193973815
4	647	1575.546622298686	38.309739653613
4	658	1608.776766184102	70.149357162691
4	663	1618.993485029142	50.187708790296
4	664	1619.071195282258	43.865124321959
4	667	1630.649360590929	50.727254718928
4	670	1632.744300043936	45.14677051166
4	671	1632.826361548091	40.275593427188
4	674	1650.672947874651	55.887693176306
4	677	1657.746144097175	57.767604158734
4	678	1660.548291146358	45.900746368495
4	683	1663.656429015436	47.251460129948
4	684	1666.182148494534	45.058741715872
4	691	1676.367940055171	45.113189640927
4	694	1684.23951796929	49.529187203374
4	697	1686.214202676593	33.670995176826
4	698	1694.944168716567	34.351620507344
4	703	1702.928978761001	41.252257355979
4	704	1710.694718995275	43.375986490871
4	705	1713.545194749739	44.705196076583
4	714	1734.378642005596	65.251115421146
4	717	1737.226417970626	53.072680123177
4	720	1740.795151397218	55.407881667905
4	721	1743.301774756522	45.848970519587
4	724	1750.507188478007	48.945629119525
4	727	1753.023687769918	36.482739865297
4	728	1753.979000908196	34.846854048716
4	729	1758.136228662898	35.609701929624
4	730	1761.147695397997	28.100658350024
4	733	1762.162189868891	26.753947103634
4	744	1773.585491551246	32.880773272359
4	745	1777.24144376867	29.522642990285
4	750	1783.085809488933	30.395227494353
4	751	1783.598997145205	21.933088271746
4	760	1799.664222035343	36.569706698847
4	761	1801.348373567244	38.134615843849
4	762	1802.342928663694	37.249429413306
4	765	1805.074013971616	39.604000558548
4	766	1807.486283826303	39.199744693466
4	767	1811.682015129605	33.082506551584
4	770	1814.080170525592	35.044658242669
4	782	1845.392068452259	61.024926238599
4	785	1847.388304258486	59.287663846529
4	790	1862.792977038703	72.125503180082
4	793	1866.905960127427	73.5528747377
4	794	1868.163208433451	64.982288177852
4	797	1878.588266375167	65.858718581884
4	798	1879.088921756862	56.299324513921
4	799	1880.026541402103	53.908409297313
4	820	1924.945865641772	97.216323185349
4	821	1929.7157695848	94.37325860698
4	822	1931.061087741416	84.745207674683
4	823	1932.350191487468	72.739497365095
4	824	1936.527133292888	74.363319908809
4	825	1937.7554659984	71.046883518634
4	828	1943.133648213336	72.27124146619
4	829	1958.468959317043	76.972798547924
4	832	1962.114238928353	78.522706937754
4	833	1967.410931536967	79.94369744609
4	834	1968.346774240704	76.181804786409
4	839	1984.95010779055	87.962045461678
4	840	1985.771462990932	72.439816410402
4	843	1989.051115864848	70.811562295765
4	846	1995.372437309347	55.959422484848
4	847	1997.668553816343	35.762340099296
4	848	2001.445931712266	30.699322594091
4	851	2003.537383038963	23.293002048925
4	854	2006.376801112656	19.437049182648
4	861	2016.043351073415	25.132270223472
4	892	2054.183039416242	51.956520663408
4	897	2064.416487445727	58.758919477824
4	898	2066.877274250426	59.800688980573
4	899	2073.394027371518	61.401210434608
4	905	2079.393986867171	64.075480430034
4	906	2087.716850078744	71.036646525487
4	907	2090.647834068014	73.689025262072
4	916	2102.621969688535	83.27028532478
4	921	2107.316443468747	84.995828461841
4	922	2109.244221172065	84.791974444078
4	923	2110.343360070213	73.955582912427
4	928	2118.015506741035	77.855143143842
4	929	2128.314842406804	79.506325498447
4	938	2144.109577815749	94.341266966352
4	939	2144.969910926242	85.2094487846
4	942	2147.306092494803	85.398146757585
4	950	2169.645462643851	96.061936325321
4	953	2174.945142171705	81.439989719069
4	954	2180.529903796864	85.401136280426
4	957	2186.337504286644	89.107554124592
4	960	2208.29620161529	110.07629477156
4	963	2216.539175463912	111.15543725059
4	964	2216.694736839913	109.94447166464
4	967	2218.801577993243	107.56502074712
4	970	2220.003867384637	103.54717156445
4	973	2228.206706578413	98.044414107638
4	980	2247.507119969565	114.82528869218
4	981	2249.06032827089	109.79412241481
4	982	2249.488007212861	105.62518383558
4	988	2263.891748930141	117.04133479839
4	989	2265.809053010593	116.88611554379
4	990	2267.111653925745	111.89697569739
4	991	2267.604657290514	94.636295373946
4	992	2268.476213788685	85.432008472948
4	993	2270.258019355241	67.822975951609
4	996	2274.517533992407	64.281668253318
4	999	2278.161661778993	61.37321765095
4	1007	2288.076399373921	68.571678905505
4	1014	2303.731716119098	77.529340875628
4	1017	2304.970486415205	76.717659455274
4	1065	2383.68073348672	152.49168993213
4	1068	2384.407911478687	148.41738231921
4	1071	2393.149211080274	143.41982695071
4	1072	2394.566201686291	120.25013933406
4	1077	2404.688426445825	127.03906058828
4	1080	2409.7204685294	130.3510969044
4	1083	2415.895570441351	136.2053230839
4	1084	2420.250988969124	128.73086019186
4	1087	2424.140538525549	129.37476691473
4	1088	2425.917289188604	123.90767950261
4	1091	2428.66506710439	123.72786882452
4	1092	2432.68765539971	127.68024012484
4	1095	2435.714586180723	124.2476255385
4	1096	2439.527072951135	120.19036687838
4	1097	2443.610809693215	123.34835843818
4	1100	2447.804218945319	124.29756130191
4	1112	2493.654308117308	164.62798963295
4	1113	2495.187076083089	165.69905306684
5	162	352.552324612373	23
5	167	364.819955004404	24
5	170	367.931767752184	25
5	171	370.096520434769	26
5	175	377.550349777692	27
5	176	378.44380151647	28
5	179	385.291311416186	29
5	180	405.713327397695	30
5	186	445.005713203921	31
5	187	445.522166321476	32
5	188	448.928886595169	33
5	189	449.907346309401	34
5	190	452.469474495806	35
5	191	454.728535932667	36
5	192	454.87536285167	37
5	210	512.234208010147	38
5	211	512.344502640484	39
5	212	518.725013535585	40
5	216	523.499454561475	41
5	219	528.803211195322	42
5	229	545.42499230108	43
5	234	550.299625234218	44
5	235	550.998280528404	45
5	236	552.4743879319	46
5	237	553.242759976504	47
5	238	555.981489440296	48
5	239	557.104564362341	49
5	240	561.219324893407	50
5	249	624.801160467463	51
5	255	627.532579462356	52
5	258	643.487977706337	53
5	261	646.681850366461	54
5	323	776.977015927488	55
5	329	789.46515710766	56
5	332	794.896077433302	57
5	335	801.314723559973	58
5	336	803.200706361442	59
5	364	875.675100483841	60
5	367	881.305313241516	61
5	368	883.31873362999	62
5	371	887.032748510905	63
5	372	889.217389608233	64
5	373	889.445770140029	65
5	374	889.857410840242	66
5	377	899.652617794793	67
5	380	902.902933242986	68
5	383	906.961622728252	69
5	384	907.506363038429	70
5	385	908.412740351883	71
5	386	909.0749206237	72
5	387	910.873473327686	73
5	388	912.62294771353	74
5	391	915.621939944595	75
5	392	919.880385995343	76
5	406	944.025809160422	77
5	407	944.103988472258	78
5	408	946.355479881026	79
5	409	947.242852716675	80
5	410	949.326600218291	81
5	411	955.942936624301	82
5	412	962.139239933763	83
5	413	962.53434794288	84
5	418	973.533288223486	85
5	419	973.694394872959	86
5	420	976.00597863345	87
5	421	977.12550412731	88
5	424	980.322473436844	89
5	425	980.934651766066	90
5	428	987.510600747464	91
5	429	988.288201066004	92
5	434	998.896553163796	93
5	435	1002.122460968418	94
5	438	1010.969752140855	95
5	441	1038.656413782527	96
5	444	1049.023028240965	97
5	454	1070.114748845732	98
5	455	1070.504920538705	99
5	462	1094.073669335152	100
5	465	1098.602101567243	101
5	468	1106.409627722188	102
5	469	1107.296708956059	103
5	477	1127.409880456119	104
5	520	1212.761221183906	105
5	524	1223.340147586701	106
5	530	1236.329442475216	107
5	531	1237.237190285415	108
5	532	1239.72398858736	109
5	533	1240.434366473781	110
5	534	1245.269333482923	111
5	537	1252.186090398679	112
5	538	1253.228546520054	113
5	541	1258.264721317325	114
5	542	1272.031102978103	115
5	543	1272.346191891776	116
5	547	1296.524320457604	117
5	548	1296.990281611949	118
5	553	1299.446110813125	119
5	554	1301.078561366069	120
5	557	1307.674178620585	121
5	558	1310.734384731028	122
5	561	1315.032710834372	123
5	573	1345.10778242973	124
5	574	1347.216794530996	125
5	575	1359.246060399609	126
5	583	1365.656569998822	127
5	584	1365.744193423553	128
5	585	1365.832133152988	129
5	588	1409.757117765389	130
5	594	1418.778737317312	131
5	606	1443.705116958103	132
5	607	1454.891469268179	133
5	613	1460.124303856759	134
5	616	1474.915191183214	135
5	617	1476.645318368398	136
5	618	1485.949562936483	137
5	621	1500.086961311732	138
5	624	1508.402079337075	139
5	642	1568.225720479663	140
5	647	1575.546622298686	141
5	664	1619.071195282258	142
5	667	1630.649360590929	143
5	670	1632.744300043936	144
5	671	1632.826361548091	145
5	674	1650.672947874651	146
5	677	1657.746144097175	147
5	678	1660.548291146358	148
5	683	1663.656429015436	149
5	684	1666.182148494534	150
5	694	1684.23951796929	151
5	697	1686.214202676593	152
5	698	1694.944168716567	153
5	703	1702.928978761001	154
5	704	1710.694718995275	155
5	705	1713.545194749739	156
5	714	1734.378642005596	157
5	717	1737.226417970626	158
5	720	1740.795151397218	159
5	721	1743.301774756522	160
5	724	1750.507188478007	161
5	728	1753.979000908196	162
5	729	1758.136228662898	163
5	730	1761.147695397997	164
5	733	1762.162189868891	165
5	744	1773.585491551246	166
5	745	1777.24144376867	167
5	750	1783.085809488933	168
5	751	1783.598997145205	169
5	761	1801.348373567244	170
5	762	1802.342928663694	171
5	765	1805.074013971616	172
5	766	1807.486283826303	173
5	767	1811.682015129605	174
5	770	1814.080170525592	175
5	785	1847.388304258486	176
5	793	1866.905960127427	177
5	794	1868.163208433451	178
5	798	1879.088921756862	179
5	799	1880.026541402103	180
5	821	1929.7157695848	181
5	822	1931.061087741416	182
5	823	1932.350191487468	183
5	824	1936.527133292888	184
5	825	1937.7554659984	185
5	828	1943.133648213336	186
5	829	1958.468959317043	187
5	832	1962.114238928353	188
5	833	1967.410931536967	189
5	834	1968.346774240704	190
5	839	1984.95010779055	191
5	840	1985.771462990932	192
5	846	1995.372437309347	193
5	847	1997.668553816343	194
5	848	2001.445931712266	195
5	851	2003.537383038963	196
5	854	2006.376801112656	197
5	861	2016.043351073415	198
5	897	2064.416487445727	199
5	898	2066.877274250426	200
5	899	2073.394027371518	201
5	906	2087.716850078744	202
5	907	2090.647834068014	203
5	921	2107.316443468747	204
5	922	2109.244221172065	205
5	923	2110.343360070213	206
5	928	2118.015506741035	207
5	929	2128.314842406804	208
5	939	2144.969910926242	209
5	942	2147.306092494803	210
5	953	2174.945142171705	211
5	954	2180.529903796864	212
5	963	2216.539175463912	213
5	964	2216.694736839913	214
5	970	2220.003867384637	215
5	973	2228.206706578413	216
5	980	2247.507119969565	217
5	981	2249.06032827089	218
5	982	2249.488007212861	219
5	989	2265.809053010593	220
5	990	2267.111653925745	221
5	991	2267.604657290514	222
5	992	2268.476213788685	223
5	993	2270.258019355241	224
5	996	2274.517533992407	225
5	999	2278.161661778993	226
5	1017	2304.970486415205	227
5	1068	2384.407911478687	228
5	1071	2393.149211080274	229
5	1072	2394.566201686291	230
5	1077	2404.688426445825	231
5	1083	2415.895570441351	232
5	1084	2420.250988969124	233
5	1088	2425.917289188604	234
5	1092	2432.68765539971	235
5	1096	2439.527072951135	236
5	1097	2443.610809693215	237
5	1100	2447.804218945319	238
5	1113	2495.187076083089	239
6	162	352.552324612373	12
6	164	355.039202252463	12
6	166	363.289814550966	13
6	167	364.819955004404	13
6	169	367.830929999966	13
6	170	367.931767752184	13
6	171	370.096520434769	12
6	175	377.550349777692	11
6	176	378.44380151647	10
6	178	382.370602506663	10
6	179	385.291311416186	10
6	180	405.713327397695	9
6	185	436.671773942098	9
6	186	445.005713203921	9
6	187	445.522166321476	8
6	188	448.928886595169	7
6	189	449.907346309401	6
6	190	452.469474495806	5
6	191	454.728535932667	4
6	192	454.87536285167	3
6	196	460.852668622827	3
6	198	466.374037545862	4
6	200	467.349172986839	5
6	209	503.541066842519	6
6	210	512.234208010147	6
6	211	512.344502640484	5
6	212	518.725013535585	4
6	216	523.499454561475	3
6	218	526.822290225991	3
6	219	528.803211195322	3
6	223	532.841895893834	3
6	226	539.021558364902	4
6	228	543.729523351123	5
6	229	545.42499230108	5
6	231	549.744660338624	5
6	233	549.757652114121	6
6	234	550.299625234218	6
6	235	550.998280528404	5
6	236	552.4743879319	4
6	237	553.242759976504	3
6	238	555.981489440296	2
6	239	557.104564362341	1
6	240	561.219324893407	0
6	248	624.377629917337	0
6	249	624.801160467463	0
6	253	626.377011457473	0
6	255	627.532579462356	0
6	257	628.149441136313	0
6	258	643.487977706337	0
6	260	646.041393116059	0
6	261	646.681850366461	0
6	265	658.39845641134	0
6	267	659.690924306509	1
6	269	661.441890419892	2
6	271	673.601588221394	3
6	273	690.249866392987	4
6	277	703.275599853586	5
6	279	703.633396807882	6
6	290	729.390626542569	7
6	294	737.045369647088	8
6	296	743.385520347509	9
6	300	745.206737638433	10
6	302	747.746298385527	11
6	304	751.433923708821	12
6	307	758.184758649513	13
6	310	758.64585161194	14
6	318	769.930973026044	15
6	321	772.656623803539	16
6	323	776.977015927488	16
6	327	782.605538701624	16
6	329	789.46515710766	16
6	331	793.839749618144	16
6	332	794.896077433302	16
6	334	798.245995385835	16
6	335	801.314723559973	16
6	336	803.200706361442	15
6	338	813.496170369595	15
6	340	814.185922731608	16
6	344	826.066970822433	17
6	352	848.179506668075	18
6	354	852.1686892715	19
6	362	869.016558446923	20
6	364	875.675100483841	20
6	366	875.829374328149	20
6	367	881.305313241516	20
6	368	883.31873362999	19
6	370	886.461145315321	19
6	371	887.032748510905	19
6	372	889.217389608233	18
6	373	889.445770140029	17
6	374	889.857410840242	16
6	376	893.887069529698	16
6	377	899.652617794793	16
6	379	900.833244362583	16
6	380	902.902933242986	16
6	382	904.379176149286	16
6	383	906.961622728252	16
6	384	907.506363038429	15
6	385	908.412740351883	14
6	386	909.0749206237	13
6	387	910.873473327686	12
6	388	912.62294771353	11
6	390	915.070726443792	11
6	391	915.621939944595	11
6	392	919.880385995343	10
6	396	921.290312289743	10
6	399	926.259204214721	11
6	406	944.025809160422	11
6	407	944.103988472258	10
6	408	946.355479881026	9
6	409	947.242852716675	8
6	410	949.326600218291	7
6	411	955.942936624301	6
6	412	962.139239933763	5
6	413	962.53434794288	4
6	415	968.113474807297	4
6	417	972.059846730416	5
6	418	973.533288223486	5
6	419	973.694394872959	4
6	420	976.00597863345	3
6	421	977.12550412731	2
6	423	979.014042706605	2
6	424	980.322473436844	2
6	425	980.934651766066	1
6	427	986.40158991055	1
6	428	987.510600747464	1
6	429	988.288201066004	0
6	431	991.477771818955	0
6	433	996.573320040998	1
6	434	998.896553163796	1
6	435	1002.122460968418	0
6	437	1009.5893717972	0
6	438	1010.969752140855	0
6	440	1027.29326052894	0
6	441	1038.656413782527	0
6	443	1047.195191840301	0
6	444	1049.023028240965	0
6	446	1051.588422140614	0
6	448	1051.853602663273	1
6	453	1069.570309487394	2
6	454	1070.114748845732	2
6	455	1070.504920538705	1
6	457	1072.995454593012	1
6	459	1074.329777082393	2
6	461	1089.892028406125	3
6	462	1094.073669335152	3
6	464	1096.28675098785	3
6	465	1098.602101567243	3
6	467	1102.395414654277	3
6	468	1106.409627722188	3
6	469	1107.296708956059	2
6	473	1108.589561472402	2
6	475	1108.659087345032	3
6	477	1127.409880456119	3
6	479	1132.072607512783	3
6	488	1137.5084282047	4
6	490	1140.765229769752	5
6	492	1144.780081559334	6
6	497	1151.861347883656	7
6	499	1161.128600888311	8
6	511	1190.182284757979	9
6	515	1194.107094991637	10
6	517	1195.810170607742	11
6	520	1212.761221183906	11
6	524	1223.340147586701	10
6	528	1235.57636042901	10
6	530	1236.329442475216	10
6	531	1237.237190285415	9
6	532	1239.72398858736	8
6	533	1240.434366473781	7
6	534	1245.269333482923	6
6	536	1245.750567940076	6
6	537	1252.186090398679	6
6	538	1253.228546520054	5
6	540	1254.623518575976	5
6	541	1258.264721317325	5
6	542	1272.031102978103	4
6	543	1272.346191891776	3
6	547	1296.524320457604	2
6	548	1296.990281611949	1
6	550	1297.576801327344	1
6	552	1298.981981041257	2
6	553	1299.446110813125	2
6	554	1301.078561366069	1
6	556	1305.174030572477	1
6	557	1307.674178620585	1
6	558	1310.734384731028	0
6	560	1312.534111945697	0
6	561	1315.032710834372	0
6	565	1325.294640523372	0
6	567	1329.725973787391	1
6	570	1337.918346365047	2
6	572	1338.069482505731	3
6	573	1345.10778242973	3
6	574	1347.216794530996	2
6	575	1359.246060399609	1
6	577	1360.008685256734	1
6	579	1361.022701143741	2
6	583	1365.656569998822	2
6	584	1365.744193423553	1
6	585	1365.832133152988	0
6	587	1400.284102277724	0
6	588	1409.757117765389	0
6	593	1415.619746805441	0
6	594	1418.778737317312	0
6	596	1418.960130004518	0
6	600	1424.528878770452	1
6	602	1430.718816092059	2
6	604	1432.924682107722	3
6	606	1443.705116958103	3
6	607	1454.891469268179	2
6	611	1456.557563689539	2
6	613	1460.124303856759	2
6	615	1466.341925398978	2
6	616	1474.915191183214	2
6	617	1476.645318368398	1
6	618	1485.949562936483	0
6	620	1496.569148529909	0
6	621	1500.086961311732	0
6	623	1506.793690175289	0
6	624	1508.402079337075	0
6	628	1518.465787734605	0
6	630	1521.622526505848	1
6	634	1537.236882645073	2
6	636	1538.627409021411	3
6	642	1568.225720479663	3
6	644	1568.805776238846	3
6	646	1575.206070960299	4
6	647	1575.546622298686	4
6	651	1587.597529532276	4
6	653	1592.550768120903	5
6	655	1594.785254698345	6
6	657	1599.978539938441	7
6	662	1616.404968885488	8
6	664	1619.071195282258	8
6	666	1621.123406778662	8
6	667	1630.649360590929	8
6	669	1631.254750414244	8
6	670	1632.744300043936	8
6	671	1632.826361548091	7
6	673	1634.710330765916	7
6	674	1650.672947874651	7
6	676	1652.543207499767	7
6	677	1657.746144097175	7
6	678	1660.548291146358	6
6	680	1660.592548209223	6
6	682	1661.676721405022	7
6	683	1663.656429015436	7
6	684	1666.182148494534	6
6	686	1667.318732504404	6
6	688	1668.839998673156	7
6	693	1684.153737847449	8
6	694	1684.23951796929	8
6	696	1685.387269729313	8
6	697	1686.214202676593	8
6	698	1694.944168716567	7
6	700	1697.452804236935	7
6	702	1701.561559358482	8
6	703	1702.928978761001	8
6	704	1710.694718995275	7
6	705	1713.545194749739	6
6	707	1716.540947904621	6
6	709	1719.13214685948	7
6	711	1722.526526733274	8
6	713	1733.047037047973	9
6	714	1734.378642005596	9
6	716	1735.408242765257	9
6	717	1737.226417970626	9
6	719	1740.704718278887	9
6	720	1740.795151397218	9
6	721	1743.301774756522	8
6	723	1747.718800778385	8
6	724	1750.507188478007	8
6	728	1753.979000908196	7
6	729	1758.136228662898	6
6	730	1761.147695397997	5
6	732	1761.665908873459	5
6	733	1762.162189868891	5
6	735	1763.094515336496	5
6	737	1763.213757723395	6
6	739	1765.093499250388	7
6	741	1765.470013413068	8
6	743	1768.286539132837	9
6	744	1773.585491551246	9
6	745	1777.24144376867	8
6	747	1778.599508578021	8
6	749	1779.035512282923	9
6	750	1783.085809488933	9
6	751	1783.598997145205	8
6	755	1788.100640411957	8
6	757	1790.667473858621	9
6	759	1793.353085389727	10
6	761	1801.348373567244	10
6	762	1802.342928663694	9
6	764	1803.180920255599	9
6	765	1805.074013971616	9
6	766	1807.486283826303	8
6	767	1811.682015129605	7
6	769	1812.729547793283	7
6	770	1814.080170525592	7
6	772	1822.789597242941	7
6	776	1827.729542456423	8
6	778	1835.34251097782	9
6	784	1846.315880066733	10
6	785	1847.388304258486	10
6	787	1859.610694122373	10
6	792	1866.708582479766	11
6	793	1866.905960127427	11
6	794	1868.163208433451	10
6	798	1879.088921756862	9
6	799	1880.026541402103	8
6	803	1883.591531990599	8
6	807	1887.467234090877	9
6	809	1892.164969454295	10
6	811	1896.988062328872	11
6	817	1913.33164658053	12
6	819	1918.239553569083	13
6	821	1929.7157695848	13
6	822	1931.061087741416	12
6	823	1932.350191487468	11
6	824	1936.527133292888	10
6	825	1937.7554659984	9
6	827	1939.413014824499	9
6	828	1943.133648213336	9
6	829	1958.468959317043	8
6	831	1961.906213717047	8
6	832	1962.114238928353	8
6	833	1967.410931536967	7
6	834	1968.346774240704	6
6	836	1970.746609118175	6
6	838	1980.244380990038	7
6	839	1984.95010779055	7
6	840	1985.771462990932	6
6	845	1990.911080849943	6
6	846	1995.372437309347	6
6	847	1997.668553816343	5
6	848	2001.445931712266	4
6	850	2002.226518752834	4
6	851	2003.537383038963	4
6	853	2005.657567967903	4
6	854	2006.376801112656	4
6	856	2007.076585269853	4
6	858	2011.99281693691	5
6	860	2015.318506437137	6
6	861	2016.043351073415	6
6	863	2016.680203553257	6
6	865	2016.958808805942	7
6	867	2019.351684363755	8
6	869	2022.320615006906	9
6	877	2036.387777157786	10
6	881	2040.160363597193	11
6	884	2048.808516908357	12
6	888	2049.768310849397	13
6	894	2059.760462141642	14
6	896	2061.907945737218	15
6	897	2064.416487445727	15
6	898	2066.877274250426	14
6	899	2073.394027371518	13
6	906	2087.716850078744	12
6	907	2090.647834068014	11
6	909	2093.505152452636	11
6	913	2097.229950162052	12
6	915	2098.219906843734	13
6	918	2105.383738213321	14
6	920	2106.750265175274	15
6	921	2107.316443468747	15
6	922	2109.244221172065	14
6	923	2110.343360070213	13
6	925	2111.236557246119	13
6	927	2116.456695820183	14
6	928	2118.015506741035	14
6	929	2128.314842406804	13
6	931	2130.162292470775	13
6	933	2132.681831277386	14
6	935	2139.266205856075	15
6	939	2144.969910926242	15
6	941	2146.850414131752	15
6	942	2147.306092494803	15
6	948	2155.214678228357	15
6	952	2172.968361916568	16
6	953	2174.945142171705	16
6	954	2180.529903796864	15
6	962	2210.235865739089	15
6	963	2216.539175463912	15
6	964	2216.694736839913	14
6	969	2219.504720468416	14
6	970	2220.003867384637	14
6	972	2226.20237524347	14
6	973	2228.206706578413	14
6	975	2228.252826959931	14
6	977	2231.189043554593	15
6	979	2235.990529159481	16
6	980	2247.507119969565	16
6	981	2249.06032827089	15
6	982	2249.488007212861	14
6	989	2265.809053010593	13
6	990	2267.111653925745	12
6	991	2267.604657290514	11
6	992	2268.476213788685	10
6	993	2270.258019355241	9
6	995	2274.316062352235	9
6	996	2274.517533992407	9
6	998	2277.64936585754	9
6	999	2278.161661778993	9
6	1001	2279.369371625004	9
6	1009	2291.520128777268	10
6	1013	2302.009609685989	11
6	1016	2304.937198279872	12
6	1017	2304.970486415205	12
6	1019	2305.007415274873	12
6	1028	2319.336706072754	13
6	1030	2320.262451255038	14
6	1034	2323.506657643407	15
6	1043	2329.026318484358	16
6	1045	2329.488023016245	17
6	1049	2337.883707012958	18
6	1057	2366.453068044888	19
6	1063	2376.883160209059	20
6	1067	2384.144808062979	21
6	1068	2384.407911478687	21
6	1070	2385.318994031209	21
6	1071	2393.149211080274	21
6	1072	2394.566201686291	20
6	1074	2398.835523000256	20
6	1076	2402.780862958371	21
6	1077	2404.688426445825	21
6	1082	2411.904107173243	21
6	1083	2415.895570441351	21
6	1084	2420.250988969124	20
6	1088	2425.917289188604	19
6	1092	2432.68765539971	18
6	1096	2439.527072951135	17
6	1097	2443.610809693215	16
6	1099	2447.089342177539	16
6	1100	2447.804218945319	16
6	1113	2495.187076083089	15
6	1117	2499.949391704458	15
7	162	352.552324612373	109.47744590543
7	167	364.819955004404	114.4656468261
7	170	367.931767752184	102.94315083533
7	171	370.096520434769	99.279073721031
7	175	377.550349777692	87.879586204296
7	176	378.44380151647	80.754844310165
7	179	385.291311416186	75.239229187891
7	180	405.713327397695	83.49699549692
7	186	445.005713203921	99.424889267811
7	187	445.522166321476	98.36670826445
7	188	448.928886595169	101.26120339104
7	189	449.907346309401	94.868144056938
7	190	452.469474495806	89.17965994484
7	191	454.728535932667	86.897605932701
7	192	454.87536285167	79.484047802788
7	210	512.234208010147	75.562434068049
7	211	512.344502640484	54.578495052941
7	212	518.725013535585	57.872344912758
7	216	523.499454561475	56.150281574636
7	219	528.803211195322	42.445896024324
7	229	545.42499230108	26.063226852517
7	234	550.299625234218	23.477335008227
7	235	550.998280528404	21.730579634009
7	236	552.4743879319	19.632492038066
7	237	553.242759976504	14.221201611602
7	238	555.981489440296	12.251966089173
7	239	557.104564362341	7.359904023717
7	240	561.219324893407	11.461672779286
7	249	624.801160467463	0.423530550126
7	255	627.532579462356	1.155568004883
7	258	643.487977706337	15.338536570024
7	261	646.681850366461	0.640457250402
7	323	776.977015927488	118.57855951615
7	329	789.46515710766	128.02326668777
7	332	794.896077433302	121.29448921191
7	335	801.314723559973	111.06485716699
7	336	803.200706361442	99.925106507856
7	364	875.675100483841	130.46836284541
7	367	881.305313241516	133.55901485599
7	368	883.31873362999	131.88480992117
7	371	887.032748510905	128.84798986139
7	372	889.217389608233	130.57153799629
7	373	889.445770140029	119.51479711398
7	374	889.857410840242	117.2007870367
7	377	899.652617794793	120.20240239201
7	380	902.902933242986	120.29739454136
7	383	906.961622728252	113.12187311011
7	384	907.506363038429	109.26036765259
7	385	908.412740351883	94.916569982288
7	386	909.0749206237	94.888997892092
7	387	910.873473327686	91.890008924781
7	388	912.62294771353	86.555976891097
7	391	915.621939944595	80.373335540323
7	392	919.880385995343	76.512685986061
7	406	944.025809160422	80.186787371662
7	407	944.103988472258	75.087430025335
7	408	946.355479881026	70.526105552877
7	409	947.242852716675	60.781707401354
7	410	949.326600218291	55.439530688593
7	411	955.942936624301	55.109692261718
7	412	962.139239933763	57.760063784477
7	413	962.53434794288	47.463621499088
7	418	973.533288223486	53.040132779239
7	419	973.694394872959	52.404082583216
7	420	976.00597863345	49.746774418729
7	421	977.12550412731	45.473684223706
7	424	980.322473436844	12.208998629547
7	425	980.934651766066	8.87480503565
7	428	987.510600747464	8.496558040859
7	429	988.288201066004	1.886611155454
7	434	998.896553163796	7.418781344841
7	435	1002.122460968418	5.54914092742
7	438	1010.969752140855	1.380380343655
7	441	1038.656413782527	11.363153253587
7	444	1049.023028240965	1.827836400664
7	454	1070.114748845732	18.261146182459
7	455	1070.504920538705	11.985989749117
7	462	1094.073669335152	24.503359847758
7	465	1098.602101567243	25.606646974231
7	468	1106.409627722188	32.079850639795
7	469	1107.296708956059	17.404680549934
7	477	1127.409880456119	25.014465801842
7	520	1212.761221183906	104.10213383887
7	524	1223.340147586701	90.645550867945
7	530	1236.329442475216	98.821014270516
7	531	1237.237190285415	96.471960515663
7	532	1239.72398858736	94.943907028026
7	533	1240.434366473781	88.573018590125
7	534	1245.269333482923	84.140732594612
7	537	1252.186090398679	62.0038056407
7	538	1253.228546520054	59.121451528417
7	541	1258.264721317325	62.454550709583
7	542	1272.031102978103	55.739788775015
7	543	1272.346191891776	41.591075931562
7	547	1296.524320457604	50.773752517528
7	548	1296.990281611949	42.366763035973
7	553	1299.446110813125	26.763641487794
7	554	1301.078561366069	3.501760038725
7	557	1307.674178620585	8.692197579328
7	558	1310.734384731028	5.560354158551
7	561	1315.032710834372	2.498598888675
7	573	1345.10778242973	19.813141906358
7	574	1347.216794530996	17.490820743605
7	575	1359.246060399609	21.327714034562
7	583	1365.656569998822	5.647884742088
7	584	1365.744193423553	4.721492279812
7	585	1365.832133152988	4.145777727819
7	588	1409.757117765389	9.473015487665
7	594	1418.778737317312	3.158990511871
7	606	1443.705116958103	24.485319480065
7	607	1454.891469268179	30.362590497727
7	613	1460.124303856759	27.199621749037
7	616	1474.915191183214	19.54023209229
7	617	1476.645318368398	20.087754678859
7	618	1485.949562936483	19.607637537505
7	621	1500.086961311732	3.517812781823
7	624	1508.402079337075	1.608389161786
7	642	1568.225720479663	49.759932745058
7	647	1575.546622298686	53.924095792838
7	664	1619.071195282258	50.265419043412
7	667	1630.649360590929	55.44328963063
7	670	1632.744300043936	52.822194171935
7	671	1632.826361548091	45.228832015815
7	674	1650.672947874651	58.122179753748
7	677	1657.746144097175	62.96088939883
7	678	1660.548291146358	60.569751207917
7	683	1663.656429015436	49.008884237573
7	684	1666.182148494534	49.777179609046
7	694	1684.23951796929	52.984767555046
7	697	1686.214202676593	51.503871910677
7	698	1694.944168716567	42.4009612168
7	703	1702.928978761001	42.336430551778
7	704	1710.694718995275	49.017997590253
7	705	1713.545194749739	46.226462245335
7	714	1734.378642005596	65.53864333244
7	717	1737.226417970626	68.098891386176
7	720	1740.795151397218	56.641413549769
7	721	1743.301774756522	57.914505027209
7	724	1750.507188478007	53.054384241072
7	728	1753.979000908196	37.438053003575
7	729	1758.136228662898	39.004081803418
7	730	1761.147695397997	38.621168664723
7	733	1762.162189868891	29.115152820918
7	744	1773.585491551246	38.177248785989
7	745	1777.24144376867	36.536725489783
7	750	1783.085809488933	35.367008710548
7	751	1783.598997145205	30.908415150625
7	761	1801.348373567244	38.253858230748
7	762	1802.342928663694	39.129170940299
7	765	1805.074013971616	39.980514721228
7	766	1807.486283826303	42.016270413235
7	767	1811.682015129605	43.395475996768
7	770	1814.080170525592	35.480661947571
7	785	1847.388304258486	63.021162044826
7	793	1866.905960127427	76.238486268806
7	794	1868.163208433451	74.810123043724
7	798	1879.088921756862	66.359373963579
7	799	1880.026541402103	57.236944159162
7	821	1929.7157695848	101.98622712838
7	822	1931.061087741416	95.718576763596
7	823	1932.350191487468	86.034311420735
7	824	1936.527133292888	76.916439170515
7	825	1937.7554659984	75.591652614321
7	828	1943.133648213336	76.42506573357
7	829	1958.468959317043	87.606552569897
7	832	1962.114238928353	80.618078159234
7	833	1967.410931536967	83.819399546368
7	834	1968.346774240704	80.879540149827
7	839	1984.95010779055	92.785138336255
7	840	1985.771462990932	88.78340066206
7	846	1995.372437309347	77.132883740264
7	847	1997.668553816343	58.255538991844
7	848	2001.445931712266	39.539717995219
7	851	2003.537383038963	32.790773920788
7	854	2006.376801112656	26.132420122618
7	861	2016.043351073415	29.103599143407
7	897	2064.416487445727	62.189968692893
7	898	2066.877274250426	61.219706282523
7	899	2073.394027371518	66.317442101665
7	906	2087.716850078744	72.398343641607
7	907	2090.647834068014	73.967630514757
7	921	2107.316443468747	87.964759104992
7	922	2109.244221172065	86.923606165159
7	923	2110.343360070213	85.891113342226
7	928	2118.015506741035	81.627729583249
7	929	2128.314842406804	88.154478809611
7	939	2144.969910926242	95.201600076845
7	942	2147.306092494803	87.545630353161
7	953	2174.945142171705	101.36161585317
7	954	2180.529903796864	87.024751344228
7	963	2216.539175463912	118.31926862018
7	964	2216.694736839913	111.31099862659
7	970	2220.003867384637	108.76731013852
7	973	2228.206706578413	111.75001075823
7	980	2247.507119969565	117.34482749879
7	981	2249.06032827089	116.3784969935
7	982	2249.488007212861	110.22180135679
7	989	2265.809053010593	118.95863887884
7	990	2267.111653925745	118.18871645894
7	991	2267.604657290514	112.38997906216
7	992	2268.476213788685	95.507851872117
7	993	2270.258019355241	87.213814039504
7	996	2274.517533992407	72.082490588775
7	999	2278.161661778993	67.925796039904
7	1017	2304.970486415205	78.768111171735
7	1068	2384.407911478687	153.21886792409
7	1071	2393.149211080274	157.15868192079
7	1072	2394.566201686291	144.83681755673
7	1077	2404.688426445825	130.37236409359
7	1083	2415.895570441351	136.52619881635
7	1084	2420.250988969124	140.56074161167
7	1088	2425.917289188604	131.15151757779
7	1092	2432.68765539971	127.75045711984
7	1096	2439.527072951135	128.06011230891
7	1097	2443.610809693215	124.27410362046
7	1100	2447.804218945319	127.54176769028
7	1113	2495.187076083089	166.16075759873
8	164	355.039202252463	13
8	166	363.289814550966	14
8	169	367.830929999966	14
8	178	382.370602506663	11
8	185	436.671773942098	10
8	196	460.852668622827	4
8	198	466.374037545862	5
8	200	467.349172986839	6
8	209	503.541066842519	7
8	218	526.822290225991	4
8	223	532.841895893834	4
8	226	539.021558364902	5
8	228	543.729523351123	6
8	231	549.744660338624	6
8	233	549.757652114121	7
8	248	624.377629917337	1
8	253	626.377011457473	1
8	257	628.149441136313	1
8	260	646.041393116059	1
8	265	658.39845641134	1
8	267	659.690924306509	2
8	269	661.441890419892	3
8	271	673.601588221394	4
8	273	690.249866392987	5
8	277	703.275599853586	6
8	279	703.633396807882	7
8	290	729.390626542569	8
8	294	737.045369647088	9
8	296	743.385520347509	10
8	300	745.206737638433	11
8	302	747.746298385527	12
8	304	751.433923708821	13
8	307	758.184758649513	14
8	310	758.64585161194	15
8	318	769.930973026044	16
8	321	772.656623803539	17
8	327	782.605538701624	17
8	331	793.839749618144	17
8	334	798.245995385835	17
8	338	813.496170369595	16
8	340	814.185922731608	17
8	344	826.066970822433	18
8	352	848.179506668075	19
8	354	852.1686892715	20
8	362	869.016558446923	21
8	366	875.829374328149	21
8	370	886.461145315321	20
8	376	893.887069529698	17
8	379	900.833244362583	17
8	382	904.379176149286	17
8	390	915.070726443792	12
8	396	921.290312289743	11
8	399	926.259204214721	12
8	415	968.113474807297	5
8	417	972.059846730416	6
8	423	979.014042706605	3
8	427	986.40158991055	2
8	431	991.477771818955	1
8	433	996.573320040998	2
8	437	1009.5893717972	1
8	440	1027.29326052894	1
8	443	1047.195191840301	1
8	446	1051.588422140614	1
8	448	1051.853602663273	2
8	453	1069.570309487394	3
8	457	1072.995454593012	2
8	459	1074.329777082393	3
8	461	1089.892028406125	4
8	464	1096.28675098785	4
8	467	1102.395414654277	4
8	473	1108.589561472402	3
8	475	1108.659087345032	4
8	479	1132.072607512783	4
8	488	1137.5084282047	5
8	490	1140.765229769752	6
8	492	1144.780081559334	7
8	497	1151.861347883656	8
8	499	1161.128600888311	9
8	511	1190.182284757979	10
8	515	1194.107094991637	11
8	517	1195.810170607742	12
8	528	1235.57636042901	11
8	536	1245.750567940076	7
8	540	1254.623518575976	6
8	550	1297.576801327344	2
8	552	1298.981981041257	3
8	556	1305.174030572477	2
8	560	1312.534111945697	1
8	565	1325.294640523372	1
8	567	1329.725973787391	2
8	570	1337.918346365047	3
8	572	1338.069482505731	4
8	577	1360.008685256734	2
8	579	1361.022701143741	3
8	587	1400.284102277724	1
8	593	1415.619746805441	1
8	596	1418.960130004518	1
8	600	1424.528878770452	2
8	602	1430.718816092059	3
8	604	1432.924682107722	4
8	611	1456.557563689539	3
8	615	1466.341925398978	3
8	620	1496.569148529909	1
8	623	1506.793690175289	1
8	628	1518.465787734605	1
8	630	1521.622526505848	2
8	634	1537.236882645073	3
8	636	1538.627409021411	4
8	644	1568.805776238846	4
8	646	1575.206070960299	5
8	651	1587.597529532276	5
8	653	1592.550768120903	6
8	655	1594.785254698345	7
8	657	1599.978539938441	8
8	662	1616.404968885488	9
8	666	1621.123406778662	9
8	669	1631.254750414244	9
8	673	1634.710330765916	8
8	676	1652.543207499767	8
8	680	1660.592548209223	7
8	682	1661.676721405022	8
8	686	1667.318732504404	7
8	688	1668.839998673156	8
8	693	1684.153737847449	9
8	696	1685.387269729313	9
8	700	1697.452804236935	8
8	702	1701.561559358482	9
8	707	1716.540947904621	7
8	709	1719.13214685948	8
8	711	1722.526526733274	9
8	713	1733.047037047973	10
8	716	1735.408242765257	10
8	719	1740.704718278887	10
8	723	1747.718800778385	9
8	732	1761.665908873459	6
8	735	1763.094515336496	6
8	737	1763.213757723395	7
8	739	1765.093499250388	8
8	741	1765.470013413068	9
8	743	1768.286539132837	10
8	747	1778.599508578021	9
8	749	1779.035512282923	10
8	755	1788.100640411957	9
8	757	1790.667473858621	10
8	759	1793.353085389727	11
8	764	1803.180920255599	10
8	769	1812.729547793283	8
8	772	1822.789597242941	8
8	776	1827.729542456423	9
8	778	1835.34251097782	10
8	784	1846.315880066733	11
8	787	1859.610694122373	11
8	792	1866.708582479766	12
8	803	1883.591531990599	9
8	807	1887.467234090877	10
8	809	1892.164969454295	11
8	811	1896.988062328872	12
8	817	1913.33164658053	13
8	819	1918.239553569083	14
8	827	1939.413014824499	10
8	831	1961.906213717047	9
8	836	1970.746609118175	7
8	838	1980.244380990038	8
8	845	1990.911080849943	7
8	850	2002.226518752834	5
8	853	2005.657567967903	5
8	856	2007.076585269853	5
8	858	2011.99281693691	6
8	860	2015.318506437137	7
8	863	2016.680203553257	7
8	865	2016.958808805942	8
8	867	2019.351684363755	9
8	869	2022.320615006906	10
8	877	2036.387777157786	11
8	881	2040.160363597193	12
8	884	2048.808516908357	13
8	888	2049.768310849397	14
8	894	2059.760462141642	15
8	896	2061.907945737218	16
8	909	2093.505152452636	12
8	913	2097.229950162052	13
8	915	2098.219906843734	14
8	918	2105.383738213321	15
8	920	2106.750265175274	16
8	925	2111.236557246119	14
8	927	2116.456695820183	15
8	931	2130.162292470775	14
8	933	2132.681831277386	15
8	935	2139.266205856075	16
8	941	2146.850414131752	16
8	948	2155.214678228357	16
8	952	2172.968361916568	17
8	962	2210.235865739089	16
8	969	2219.504720468416	15
8	972	2226.20237524347	15
8	975	2228.252826959931	15
8	977	2231.189043554593	16
8	979	2235.990529159481	17
8	995	2274.316062352235	10
8	998	2277.64936585754	10
8	1001	2279.369371625004	10
8	1009	2291.520128777268	11
8	1013	2302.009609685989	12
8	1016	2304.937198279872	13
8	1019	2305.007415274873	13
8	1028	2319.336706072754	14
8	1030	2320.262451255038	15
8	1034	2323.506657643407	16
8	1043	2329.026318484358	17
8	1045	2329.488023016245	18
8	1049	2337.883707012958	19
8	1057	2366.453068044888	20
8	1063	2376.883160209059	21
8	1067	2384.144808062979	22
8	1070	2385.318994031209	22
8	1074	2398.835523000256	21
8	1076	2402.780862958371	22
8	1082	2411.904107173243	22
8	1099	2447.089342177539	17
8	1117	2499.949391704458	16
9	173	375.391315048882	1
9	182	416.09885070976	1
9	194	457.766007587543	1
9	202	476.548788404644	2
9	206	486.357315170998	1
9	214	519.361765448563	1
9	221	529.267700894395	1
9	242	564.300560389618	1
9	245	619.011098646388	1
9	251	625.351485420614	1
9	263	656.547358981017	1
9	275	692.763323156002	2
9	281	703.740050135436	3
9	283	710.380849687831	4
9	286	720.453856391853	4
9	288	723.431017966754	5
9	292	733.910972131425	6
9	312	758.996673827888	3
9	315	766.656699326265	3
9	325	779.450215402787	1
9	342	818.983464402905	1
9	347	835.248604404272	1
9	350	843.367700009282	1
9	356	853.109086923126	2
9	360	863.83902178876	1
9	394	920.493155444247	1
9	401	931.651819903604	1
9	403	933.345352980081	2
9	450	1058.518930789588	1
9	471	1108.361782751192	1
9	481	1132.694596718756	1
9	484	1136.108807583738	1
9	486	1136.333826018112	2
9	494	1148.078871593158	3
9	501	1163.720581410365	3
9	503	1168.488416785386	4
9	505	1173.076299037651	5
9	507	1176.916299660197	6
9	522	1216.291314203088	1
9	526	1230.755115960214	1
9	545	1272.682469325331	1
9	563	1317.361855239214	1
9	581	1361.686355425169	1
9	590	1413.14304119274	1
9	598	1419.219797478038	1
9	609	1455.374959090924	1
9	626	1512.613832586893	1
9	632	1526.463072663728	2
9	639	1545.518748707868	2
9	649	1579.922105872001	1
9	660	1614.647544777863	1
9	690	1669.12752658445	1
9	726	1752.69058199458	1
9	753	1784.36714221366	1
9	774	1826.11813210479	1
9	780	1838.500648643851	2
9	789	1862.163813384079	1
9	796	1870.862406747146	1
9	801	1881.496160769119	1
9	805	1883.79523115591	2
9	813	1903.24141457117	3
9	842	1986.939751930008	1
9	871	2024.452246727987	1
9	873	2027.727541502782	2
9	875	2030.661302349244	3
9	879	2037.18732466916	4
9	886	2049.562016438356	4
9	901	2073.58352631853	1
9	903	2074.263168382427	2
9	911	2095.128767516438	1
9	937	2143.862823377282	1
9	944	2148.922937466807	1
9	946	2150.669734305564	2
9	956	2183.044205315737	1
9	959	2202.435043403632	1
9	966	2216.788444128043	1
9	984	2249.729384129566	1
9	986	2251.367958607534	2
9	1003	2279.690247357455	1
9	1005	2280.385384205945	2
9	1011	2294.765771610817	1
9	1021	2311.466960642226	1
9	1023	2314.816185985176	2
9	1026	2318.058885096036	2
9	1032	2321.349749090659	3
9	1037	2326.870960380821	3
9	1039	2327.4267847295	4
9	1041	2328.107968982309	5
9	1047	2332.981509177791	6
9	1053	2354.319388697645	5
9	1059	2370.218810734865	4
9	1079	2408.760504512205	1
9	1086	2422.9459360675	1
9	1090	2427.402652917027	1
9	1094	2432.751736103515	1
9	1102	2465.658478271555	1
9	1104	2472.320315154536	2
9	1106	2473.889202106358	3
9	1109	2478.649007051707	3
9	1115	2498.862924785266	1
10	173	375.391315048882	12
10	182	416.09885070976	13
10	194	457.766007587543	14
10	206	486.357315170998	15
10	214	519.361765448563	16
10	221	529.267700894395	17
10	325	779.450215402787	18
10	342	818.983464402905	19
10	347	835.248604404272	20
10	350	843.367700009282	21
10	360	863.83902178876	22
10	394	920.493155444247	23
10	401	931.651819903604	24
10	450	1058.518930789588	25
10	471	1108.361782751192	26
10	481	1132.694596718756	27
10	484	1136.108807583738	28
10	522	1216.291314203088	29
10	526	1230.755115960214	30
10	545	1272.682469325331	31
10	581	1361.686355425169	32
10	598	1419.219797478038	33
10	609	1455.374959090924	34
10	649	1579.922105872001	35
10	660	1614.647544777863	36
10	690	1669.12752658445	37
10	726	1752.69058199458	38
10	753	1784.36714221366	39
10	774	1826.11813210479	40
10	789	1862.163813384079	41
10	796	1870.862406747146	42
10	801	1881.496160769119	43
10	842	1986.939751930008	44
10	871	2024.452246727987	45
10	901	2073.58352631853	46
10	911	2095.128767516438	47
10	937	2143.862823377282	48
10	944	2148.922937466807	49
10	956	2183.044205315737	50
10	959	2202.435043403632	51
10	966	2216.788444128043	52
10	984	2249.729384129566	53
10	1003	2279.690247357455	54
10	1011	2294.765771610817	55
10	1021	2311.466960642226	56
10	1079	2408.760504512205	57
10	1086	2422.9459360675	58
10	1090	2427.402652917027	59
10	1094	2432.751736103515	60
10	1102	2465.658478271555	61
10	1115	2498.862924785266	62
11	1118	2500	0.0956
12	1118	2500	0.0488

