version 2
run experiments_hard_game_mode1-479-20230311-19:41:03-7073
attr configname experiments_hard_game_mode1
attr datetime 20230311-19:41:03
attr experiment experiments_hard_game_mode1
attr inifile omnetpp.ini
attr iterationvars "$0=8, $1=5, $2=100"
attr iterationvarsf 8,5,100-
attr measurement "$0=8, $1=5, $2=100"
attr network Network
attr processid 7073
attr repetition 29
attr replication #29
attr resultdir results
attr runnumber 479
attr seedset 29
param *.boss.arrival_mean 20
param *.boss.service_mean 8
param *.minion.arrival_mean 10
param *.minion.service_mean 5
param *.player.recover_rate_x 100
param **.minion.arrival_distribution 0
param **.minion.service_distribution 0
param **.boss.arrival_distribution 0
param **.boss.service_distribution 0

vector 0 Network.player minion_defeated_stat:vector ETV
attr source signal_minion_defeated
vector 1 Network.player minion_jobs_queue_number_stat:vector ETV
attr source signal_minion_jobs_queue_number
vector 2 Network.player minion_response_time_stat:vector ETV
attr source signal_minion_response_time
vector 3 Network.player minion_waiting_time_stat:vector ETV
attr source signal_minion_waiting_time
vector 4 Network.player boss_jobs_number_stat:vector ETV
attr source signal_boss_jobs_number
vector 5 Network.player boss_jobs_queue_number_stat:vector ETV
attr source signal_boss_jobs_queue_number
vector 6 Network.player minion_recovered_stat:vector ETV
attr source signal_minion_recovered
vector 7 Network.player boss_waiting_time_stat:vector ETV
attr source signal_boss_waiting_time
vector 8 Network.player boss_defeated_stat:vector ETV
attr source signal_boss_defeated
vector 9 Network.player boss_response_time_stat:vector ETV
attr source signal_boss_response_time
vector 10 Network.player minion_jobs_number_stat:vector ETV
attr source signal_minion_jobs_number
vector 11 Network.player minion_throughput:vector ETV
attr source signal_minion_throughput
vector 12 Network.player boss_throughput:vector ETV
attr source signal_boss_throughput
0	140	353.282663559878	29
0	141	359.771251411074	30
0	145	364.406666090236	31
0	146	365.063706798384	32
0	147	371.635814267071	33
0	148	377.747832505858	34
0	161	399.95022976608	35
0	162	410.746434176896	36
0	163	412.40114668231	37
0	164	419.019808228392	38
0	179	460.846215431485	39
0	180	461.043056005723	40
0	181	461.18193646473	41
0	184	470.575245597877	42
0	185	470.729126105777	43
0	186	471.40340046555	44
0	189	494.943757194889	45
0	192	504.601594177815	46
0	204	550.279698092487	47
0	207	562.560571733551	48
0	210	572.645239946231	49
0	215	587.453547845825	50
0	235	638.050477173016	51
0	236	638.618950473593	52
0	253	672.255749977579	53
0	256	681.094820576145	54
0	262	693.619671742748	55
0	265	698.76617009422	56
0	266	705.319813742061	57
0	269	711.009132869827	58
0	274	717.527559614991	59
0	278	727.986853632213	60
0	279	730.965729500809	61
0	280	734.521622234449	62
0	287	756.726891457713	63
0	288	761.289493404179	64
0	289	780.518378270452	65
0	294	784.683225335219	66
0	301	794.039319651712	67
0	308	799.620385533052	68
0	316	804.136512945509	69
0	319	811.122595375588	70
0	320	811.462267623971	71
0	321	811.998626557659	72
0	322	813.815711120463	73
0	323	813.981437159585	74
0	327	832.493604375664	75
0	330	839.477911319395	76
0	333	845.125214584503	77
0	334	848.888331102765	78
0	337	851.153332943894	79
0	340	854.416096821971	80
0	341	854.720457573339	81
0	342	855.539893855748	82
0	345	858.095651562155	83
0	360	891.581283551503	84
0	383	914.875868993113	85
0	384	920.062319225981	86
0	402	959.716090026117	87
0	403	965.23222841819	88
0	406	968.078011574162	89
0	407	968.252565792725	90
0	408	974.172966427939	91
0	411	981.894140725288	92
0	414	986.608006880111	93
0	419	1001.527026640018	94
0	422	1009.96742407664	95
0	433	1031.826331816037	96
0	434	1032.807823838913	97
0	439	1037.980633643837	98
0	447	1055.048323560858	99
0	448	1060.927398079005	100
0	453	1070.438726964237	101
0	454	1073.907037167383	102
0	457	1079.072384745189	103
0	460	1085.594321069074	104
0	463	1091.373370104148	105
0	464	1097.31012015676	106
0	465	1103.607699195795	107
0	466	1105.127625756291	108
0	467	1106.16616406628	109
0	478	1122.552821945531	110
0	504	1187.380678551305	111
0	507	1194.713099870445	112
0	508	1197.832750800849	113
0	509	1199.033407021253	114
0	510	1200.783767777899	115
0	511	1221.252821614096	116
0	514	1226.871400769219	117
0	518	1237.87614232124	118
0	523	1245.019148699628	119
0	528	1249.081574919265	120
0	529	1256.639693120158	121
0	530	1257.151715885818	122
0	536	1266.003851600912	123
0	537	1266.3656658137	124
0	538	1267.286228024702	125
0	539	1269.971307077402	126
0	540	1275.856074753271	127
0	592	1397.998423833075	128
0	596	1410.773733820799	129
0	599	1432.064848116909	130
0	606	1439.091562991853	131
0	609	1446.319128547932	132
0	617	1462.796201417643	133
0	618	1470.387624074432	134
0	619	1472.062900925984	135
0	620	1474.749645142399	136
0	621	1478.703800907832	137
0	624	1492.78700062225	138
0	625	1493.390967345611	139
0	628	1498.046252778788	140
0	629	1499.847187049664	141
0	630	1505.26995348762	142
0	631	1506.188031399104	143
0	632	1508.173654591424	144
0	633	1514.699414518939	145
0	634	1517.675781990929	146
0	635	1518.461757730128	147
0	636	1521.335265070898	148
0	639	1532.784477070737	149
0	642	1537.10114354912	150
0	648	1566.900041746804	151
0	651	1569.976166122531	152
0	666	1611.102872775427	153
0	673	1625.390812946023	154
0	689	1659.178654934987	155
0	697	1669.198754927763	156
0	698	1669.738702105249	157
0	703	1675.71811300432	158
0	704	1681.903527075397	159
0	705	1683.322271655665	160
0	710	1695.978650291932	161
0	711	1705.84013202369	162
0	712	1712.006775964766	163
0	713	1720.026629477402	164
0	714	1720.24798297063	165
0	717	1725.079326590205	166
0	720	1731.28329085777	167
0	741	1766.367848813862	168
0	744	1775.624983706726	169
0	747	1787.733758118009	170
0	748	1795.144844521987	171
0	749	1795.254487865514	172
0	750	1795.475775431169	173
0	751	1797.511783042715	174
0	761	1805.388559720934	175
0	771	1823.991391168075	176
0	774	1843.39316965258	177
0	778	1849.321544486196	178
0	803	1907.521892047333	179
0	806	1911.732333924264	180
0	809	1914.541864258448	181
0	812	1918.989088476447	182
0	819	1938.408667166021	183
0	820	1940.522549836335	184
0	821	1943.755962758059	185
0	822	1944.566506086607	186
0	823	1948.646189358266	187
0	824	1955.048520946211	188
0	842	1995.701099607305	189
0	850	2019.774165537895	190
0	855	2029.500252459945	191
0	856	2032.935190088623	192
0	859	2036.727595303762	193
0	879	2085.361605219016	194
0	880	2085.388232481864	195
0	881	2097.403621120302	196
0	882	2098.167306670216	197
0	883	2098.972764255287	198
0	886	2101.135631550768	199
0	887	2102.216343398259	200
0	888	2108.988613266483	201
0	891	2114.27497774172	202
0	894	2115.674033300661	203
0	895	2118.917467463587	204
0	903	2141.976087986582	205
0	904	2143.732245635947	206
0	907	2147.106533898849	207
0	908	2149.042296141388	208
0	909	2150.718104926298	209
0	910	2155.699479209031	210
0	913	2158.000934740362	211
0	914	2159.732956634043	212
0	931	2189.840366919266	213
0	932	2201.350441762012	214
0	938	2208.89963104222	215
0	939	2210.404362784808	216
0	948	2220.84256042818	217
0	962	2250.48427763749	218
0	963	2253.775773276021	219
0	966	2261.107115176316	220
0	967	2262.017957734788	221
0	968	2262.053890654321	222
0	969	2267.309487729	223
0	984	2295.379753122679	224
0	1006	2319.086598405872	225
0	1007	2319.972829662902	226
0	1008	2321.157466044446	227
0	1011	2321.303022944093	228
0	1028	2360.400833369369	229
0	1029	2366.124491189017	230
0	1035	2393.599050936279	231
0	1036	2403.387676387734	232
0	1045	2424.332101865584	233
0	1055	2442.848381412269	234
0	1056	2454.363200982624	235
0	1060	2457.03219550335	236
0	1061	2460.083048608493	237
0	1062	2460.141212121638	238
0	1069	2467.541615918418	239
0	1070	2476.327747685807	240
0	1071	2478.871250088493	241
0	1072	2483.732550576811	242
0	1073	2491.432992462433	243
0	1074	2492.545895855613	244
1	140	353.282663559878	7
1	141	359.771251411074	6
1	145	364.406666090236	5
1	146	365.063706798384	4
1	147	371.635814267071	3
1	148	377.747832505858	2
1	154	379.608095313354	2
1	157	385.157042033546	3
1	160	399.228233649482	4
1	161	399.95022976608	4
1	162	410.746434176896	3
1	163	412.40114668231	2
1	164	419.019808228392	1
1	168	426.29441775287	1
1	172	443.660282730514	2
1	174	448.882770349587	3
1	177	458.137377426833	4
1	179	460.846215431485	4
1	180	461.043056005723	3
1	181	461.18193646473	2
1	183	465.826518938555	2
1	184	470.575245597877	2
1	185	470.729126105777	1
1	186	471.40340046555	0
1	188	494.833255579592	0
1	189	494.943757194889	0
1	191	499.822669747212	0
1	192	504.601594177815	0
1	200	545.209727119979	0
1	204	550.279698092487	0
1	206	556.326563719439	0
1	207	562.560571733551	0
1	209	572.24175660314	0
1	210	572.645239946231	0
1	212	575.863779244195	0
1	214	577.881832968284	1
1	215	587.453547845825	1
1	224	618.606462312563	1
1	226	621.290089637664	2
1	229	624.589581645086	3
1	231	627.159808616859	4
1	234	636.156734196456	5
1	235	638.050477173016	5
1	236	638.618950473593	4
1	238	638.695588633048	4
1	240	639.503912377234	5
1	242	641.651605112762	6
1	244	648.446565023337	7
1	248	656.54974981075	8
1	253	672.255749977579	8
1	255	679.39638457525	8
1	256	681.094820576145	8
1	260	682.973119520857	8
1	262	693.619671742748	8
1	264	694.937514966378	8
1	265	698.76617009422	8
1	266	705.319813742061	7
1	268	709.632194269071	7
1	269	711.009132869827	7
1	271	711.758812941697	7
1	273	714.745063282436	8
1	274	717.527559614991	8
1	278	727.986853632213	7
1	279	730.965729500809	6
1	280	734.521622234449	5
1	287	756.726891457713	4
1	288	761.289493404179	3
1	289	780.518378270452	2
1	291	780.526003935068	2
1	293	782.044152913347	3
1	294	784.683225335219	3
1	296	785.118702325468	3
1	298	786.82893246052	4
1	300	792.211735403243	5
1	301	794.039319651712	5
1	303	794.650893746256	5
1	305	796.164645718989	6
1	307	797.919207288304	7
1	308	799.620385533052	7
1	313	800.659176556938	7
1	315	802.145561068497	8
1	316	804.136512945509	8
1	318	811.00518497882	8
1	319	811.122595375588	8
1	320	811.462267623971	7
1	321	811.998626557659	6
1	322	813.815711120463	5
1	323	813.981437159585	4
1	327	832.493604375664	3
1	329	837.601350145641	3
1	330	839.477911319395	3
1	332	842.808892412795	3
1	333	845.125214584503	3
1	334	848.888331102765	2
1	336	850.859225738186	2
1	337	851.153332943894	2
1	339	852.072682488855	2
1	340	854.416096821971	2
1	341	854.720457573339	1
1	342	855.539893855748	0
1	344	856.159958446072	0
1	345	858.095651562155	0
1	357	877.773073587536	0
1	360	891.581283551503	0
1	362	893.64717916577	0
1	366	896.443773630609	1
1	368	899.605850019362	2
1	373	906.490154822813	3
1	375	908.845874933179	4
1	377	909.068777480588	5
1	380	910.906698195825	6
1	382	913.501120803603	7
1	383	914.875868993113	7
1	384	920.062319225981	6
1	386	923.456570972861	6
1	396	953.896826670245	7
1	398	955.784633106749	8
1	401	959.402928374506	9
1	402	959.716090026117	9
1	403	965.23222841819	8
1	405	967.655498130466	8
1	406	968.078011574162	8
1	407	968.252565792725	7
1	408	974.172966427939	6
1	410	977.727526974586	6
1	411	981.894140725288	6
1	413	986.483345419537	6
1	414	986.608006880111	6
1	416	992.65484243738	6
1	418	1000.462186581842	7
1	419	1001.527026640018	7
1	421	1006.176726943197	7
1	422	1009.96742407664	7
1	429	1017.427407056631	7
1	432	1023.333185885289	8
1	433	1031.826331816037	8
1	434	1032.807823838913	7
1	436	1035.575057615901	7
1	438	1036.397542892707	8
1	439	1037.980633643837	8
1	443	1042.071307097477	8
1	446	1053.311955600887	9
1	447	1055.048323560858	9
1	448	1060.927398079005	8
1	450	1068.628170045546	8
1	452	1068.7372523909	9
1	453	1070.438726964237	9
1	454	1073.907037167383	8
1	456	1076.558449330755	8
1	457	1079.072384745189	8
1	459	1085.269920578633	8
1	460	1085.594321069074	8
1	462	1090.503816550838	8
1	463	1091.373370104148	8
1	464	1097.31012015676	7
1	465	1103.607699195795	6
1	466	1105.127625756291	5
1	467	1106.16616406628	4
1	469	1108.756096424927	4
1	471	1109.014040151767	5
1	473	1111.825117276107	6
1	475	1117.188075728243	7
1	477	1118.573341036805	8
1	478	1122.552821945531	8
1	482	1130.12602680693	8
1	489	1145.944497366466	9
1	504	1187.380678551305	9
1	506	1191.074306916834	9
1	507	1194.713099870445	9
1	508	1197.832750800849	8
1	509	1199.033407021253	7
1	510	1200.783767777899	6
1	511	1221.252821614096	5
1	513	1224.317871195993	5
1	514	1226.871400769219	5
1	518	1237.87614232124	4
1	520	1239.415299962359	4
1	522	1241.319226478284	5
1	523	1245.019148699628	5
1	525	1246.698348383056	5
1	527	1249.075240055608	6
1	528	1249.081574919265	6
1	529	1256.639693120158	5
1	530	1257.151715885818	4
1	534	1262.228682128353	4
1	536	1266.003851600912	4
1	537	1266.3656658137	3
1	538	1267.286228024702	2
1	539	1269.971307077402	1
1	540	1275.856074753271	0
1	544	1281.456586332296	0
1	548	1285.868618464094	1
1	550	1287.995910071284	2
1	552	1290.105014442061	3
1	560	1297.064115025479	4
1	566	1309.251003332188	5
1	570	1322.970381474386	6
1	572	1327.054292896169	7
1	575	1337.426373481282	8
1	578	1339.570652825673	9
1	584	1353.57388117284	10
1	586	1354.516585092584	11
1	592	1397.998423833075	11
1	596	1410.773733820799	10
1	598	1421.845319537203	10
1	599	1432.064848116909	10
1	601	1433.077455864582	10
1	603	1434.570566934513	11
1	605	1436.700873309931	12
1	606	1439.091562991853	12
1	608	1444.299171092421	12
1	609	1446.319128547932	12
1	613	1451.583659890725	12
1	616	1462.140670769399	13
1	617	1462.796201417643	13
1	618	1470.387624074432	12
1	619	1472.062900925984	11
1	620	1474.749645142399	10
1	621	1478.703800907832	9
1	623	1486.551119297569	9
1	624	1492.78700062225	9
1	625	1493.390967345611	8
1	627	1496.223907441521	8
1	628	1498.046252778788	8
1	629	1499.847187049664	7
1	630	1505.26995348762	6
1	631	1506.188031399104	5
1	632	1508.173654591424	4
1	633	1514.699414518939	3
1	634	1517.675781990929	2
1	635	1518.461757730128	1
1	636	1521.335265070898	0
1	638	1523.68482419876	0
1	639	1532.784477070737	0
1	641	1535.830083928314	0
1	642	1537.10114354912	0
1	646	1552.15528015073	0
1	648	1566.900041746804	0
1	650	1569.113611818043	0
1	651	1569.976166122531	0
1	653	1574.59712260323	0
1	655	1577.783622414697	1
1	661	1588.000980001104	2
1	664	1592.596152355802	3
1	666	1611.102872775427	3
1	673	1625.390812946023	2
1	679	1636.55918818209	2
1	682	1640.641096239258	3
1	685	1650.918419052956	4
1	689	1659.178654934987	4
1	693	1663.785704815084	4
1	696	1667.004304150596	5
1	697	1669.198754927763	5
1	698	1669.738702105249	4
1	700	1674.644996918479	4
1	702	1675.406868188611	5
1	703	1675.71811300432	5
1	704	1681.903527075397	4
1	705	1683.322271655665	3
1	707	1683.621375205935	3
1	709	1691.870758945599	4
1	710	1695.978650291932	4
1	711	1705.84013202369	3
1	712	1712.006775964766	2
1	713	1720.026629477402	1
1	714	1720.24798297063	0
1	716	1720.321633944097	0
1	717	1725.079326590205	0
1	719	1728.242047121611	0
1	720	1731.28329085777	0
1	722	1733.304477625183	0
1	726	1736.123190533158	1
1	728	1736.909763431248	2
1	731	1745.044126709653	3
1	733	1748.564229081137	4
1	735	1749.269661046032	5
1	739	1753.344411509976	6
1	741	1766.367848813862	6
1	743	1768.415993221564	6
1	744	1775.624983706726	6
1	746	1784.209010264732	6
1	747	1787.733758118009	6
1	748	1795.144844521987	5
1	749	1795.254487865514	4
1	750	1795.475775431169	3
1	751	1797.511783042715	2
1	755	1800.178677377241	2
1	757	1800.95833616599	3
1	760	1802.963572909128	4
1	761	1805.388559720934	4
1	763	1808.674857293738	4
1	768	1823.070351810148	5
1	770	1823.916015992079	6
1	771	1823.991391168075	6
1	773	1834.242923632817	6
1	774	1843.39316965258	6
1	778	1849.321544486196	5
1	794	1884.674211425783	5
1	799	1897.934943306775	6
1	801	1899.021409378431	7
1	803	1907.521892047333	7
1	805	1908.271706007079	7
1	806	1911.732333924264	7
1	808	1911.895429355032	7
1	809	1914.541864258448	7
1	811	1914.724388814061	7
1	812	1918.989088476447	7
1	814	1919.490991222787	7
1	816	1923.241762418407	8
1	818	1936.92438258832	9
1	819	1938.408667166021	9
1	820	1940.522549836335	8
1	821	1943.755962758059	7
1	822	1944.566506086607	6
1	823	1948.646189358266	5
1	824	1955.048520946211	4
1	830	1961.501522926047	4
1	833	1965.216661545734	5
1	835	1976.143259682891	6
1	837	1977.106085114153	7
1	842	1995.701099607305	7
1	844	2002.049166686635	7
1	849	2014.824804974099	8
1	850	2019.774165537895	8
1	852	2026.435831902888	8
1	854	2026.746619278247	9
1	855	2029.500252459945	9
1	856	2032.935190088623	8
1	858	2034.2767880203	8
1	859	2036.727595303762	8
1	863	2040.832134308452	8
1	865	2041.731501973777	9
1	868	2044.394175563752	10
1	870	2057.540071414153	11
1	874	2064.678649429053	12
1	879	2085.361605219016	12
1	880	2085.388232481864	11
1	881	2097.403621120302	10
1	882	2098.167306670216	9
1	883	2098.972764255287	8
1	885	2100.643440090761	8
1	886	2101.135631550768	8
1	887	2102.216343398259	7
1	888	2108.988613266483	6
1	890	2109.735389103771	6
1	891	2114.27497774172	6
1	893	2114.55518655679	6
1	894	2115.674033300661	6
1	895	2118.917467463587	5
1	897	2119.70008837266	5
1	902	2141.252353958549	6
1	903	2141.976087986582	6
1	904	2143.732245635947	5
1	906	2145.214967111336	5
1	907	2147.106533898849	5
1	908	2149.042296141388	4
1	909	2150.718104926298	3
1	910	2155.699479209031	2
1	912	2156.225819555676	2
1	913	2158.000934740362	2
1	914	2159.732956634043	1
1	918	2162.801836191714	1
1	926	2176.399567796595	2
1	931	2189.840366919266	2
1	932	2201.350441762012	1
1	934	2206.400218154673	1
1	938	2208.89963104222	1
1	939	2210.404362784808	0
1	941	2212.910426022293	0
1	948	2220.84256042818	0
1	952	2223.822523938987	0
1	954	2229.518382743654	1
1	956	2237.356526885323	2
1	958	2242.16939733723	3
1	961	2249.811830180648	4
1	962	2250.48427763749	4
1	963	2253.775773276021	3
1	965	2260.677147560681	3
1	966	2261.107115176316	3
1	967	2262.017957734788	2
1	968	2262.053890654321	1
1	969	2267.309487729	0
1	975	2276.381357349022	0
1	984	2295.379753122679	0
1	988	2299.593657816942	0
1	992	2305.917559909468	1
1	996	2308.049972561187	2
1	998	2311.300208667409	3
1	1000	2311.517313327987	4
1	1005	2317.103988873237	5
1	1006	2319.086598405872	5
1	1007	2319.972829662902	4
1	1008	2321.157466044446	3
1	1010	2321.252529477898	3
1	1011	2321.303022944093	3
1	1013	2324.894460081239	3
1	1026	2345.158710441866	4
1	1028	2360.400833369369	4
1	1029	2366.124491189017	3
1	1034	2393.48451685585	3
1	1035	2393.599050936279	3
1	1036	2403.387676387734	2
1	1038	2409.027012630994	2
1	1040	2414.534346640401	3
1	1042	2418.902692042539	4
1	1044	2419.493416931437	5
1	1045	2424.332101865584	5
1	1047	2432.165685310105	5
1	1051	2437.386547876681	6
1	1053	2439.315187646736	7
1	1055	2442.848381412269	7
1	1056	2454.363200982624	6
1	1060	2457.03219550335	5
1	1061	2460.083048608493	4
1	1062	2460.141212121638	3
1	1064	2461.210077954654	3
1	1066	2463.600744450632	4
1	1068	2464.886615128397	5
1	1069	2467.541615918418	5
1	1070	2476.327747685807	4
1	1071	2478.871250088493	3
1	1072	2483.732550576811	2
1	1073	2491.432992462433	1
1	1074	2492.545895855613	0
2	140	353.282663559878	43.928671579107
2	141	359.771251411074	50.262174518039
2	145	364.406666090236	50.553508909768
2	146	365.063706798384	42.758190967708
2	147	371.635814267071	45.796095219742
2	148	377.747832505858	47.095340691501
2	161	399.95022976608	38.928404216916
2	162	410.746434176896	32.755768356324
2	163	412.40114668231	32.793051368956
2	164	419.019808228392	33.862766194846
2	179	460.846215431485	38.836572570566
2	180	461.043056005723	34.748638252853
2	181	461.18193646473	17.521653734216
2	184	470.575245597877	21.69247524829
2	185	470.729126105777	12.591748678944
2	186	471.40340046555	5.576881526995
2	189	494.943757194889	0.110501615297
2	192	504.601594177815	4.778924430603
2	204	550.279698092487	4.906573007502
2	207	562.560571733551	6.234008014112
2	210	572.645239946231	0.403483343091
2	215	587.453547845825	11.58976860163
2	235	638.050477173016	48.694387738756
2	236	638.618950473593	20.01248816103
2	253	672.255749977579	47.666168332493
2	256	681.094820576145	53.935011959286
2	262	693.619671742748	54.9240831097
2	265	698.76617009422	59.262257716986
2	266	705.319813742061	63.668208629299
2	269	711.009132869827	62.56256784649
2	274	717.527559614991	64.86542461388
2	278	727.986853632213	48.590469056963
2	279	730.965729500809	48.977507417795
2	280	734.521622234449	51.548502713592
2	287	756.726891457713	44.968078516016
2	288	761.289493404179	46.544430121743
2	289	780.518378270452	57.908667153236
2	294	784.683225335219	42.31423611746
2	301	794.039319651712	42.927390885381
2	308	799.620385533052	19.094381597984
2	316	804.136512945509	19.017810620041
2	319	811.122595375588	24.293662915068
2	320	811.462267623971	19.250532220728
2	321	811.998626557659	17.347732811403
2	322	813.815711120463	17.651065401474
2	323	813.981437159585	16.062229871281
2	327	832.493604375664	31.834427818726
2	330	839.477911319395	37.332350250898
2	333	845.125214584503	34.120029605683
2	334	848.888331102765	34.034837392084
2	337	851.153332943894	13.551982798253
2	340	854.416096821971	11.607204409176
2	341	854.720457573339	3.861231835153
2	342	855.539893855748	3.467211366893
2	345	858.095651562155	1.935693116083
2	360	891.581283551503	13.808209963967
2	383	914.875868993113	18.585459368483
2	384	920.062319225981	23.618545595372
2	402	959.716090026117	50.870215092938
2	403	965.23222841819	56.163450937602
2	406	968.078011574162	57.171313378337
2	407	968.252565792725	54.751444989122
2	408	974.172966427939	50.716395455078
2	411	981.894140725288	57.403804971163
2	414	986.608006880111	42.171914581187
2	419	1001.527026640018	47.630199969773
2	422	1009.96742407664	54.182790969891
2	433	1031.826331816037	54.098804841451
2	434	1032.807823838913	46.324478419376
2	439	1037.980633643837	45.325791206457
2	447	1055.048323560858	48.871596617661
2	448	1060.927398079005	49.155409658635
2	453	1070.438726964237	57.926080588331
2	454	1073.907037167383	56.479630110752
2	457	1079.072384745189	55.7391988599
2	460	1085.594321069074	50.019263453173
2	463	1091.373370104148	54.975827211441
2	464	1097.31012015676	58.93900085102
2	465	1103.607699195795	61.536392098318
2	466	1105.127625756291	51.815670155404
2	467	1106.16616406628	37.537994020734
2	478	1122.552821945531	53.815569554631
2	504	1187.380678551305	102.11075797267
2	507	1194.713099870445	104.20928331961
2	508	1197.832750800849	89.076654375922
2	509	1199.033407021253	90.019366869486
2	510	1200.783767777899	88.958650501792
2	511	1221.252821614096	104.06474588585
2	514	1226.871400769219	108.29805973241
2	518	1237.87614232124	107.75011551431
2	523	1245.019148699628	99.074651333162
2	528	1249.081574919265	58.007268002431
2	529	1256.639693120158	32.321821924165
2	530	1257.151715885818	26.791877173815
2	536	1266.003851600912	24.684625122628
2	537	1266.3656658137	19.667317430644
2	538	1267.286228024702	18.210987969094
2	539	1269.971307077402	12.210019672001
2	540	1275.856074753271	13.627392624918
2	592	1397.998423833075	112.12980536898
2	596	1410.773733820799	120.66871937874
2	599	1432.064848116909	135.00073309143
2	606	1439.091562991853	129.84055965966
2	609	1446.319128547932	123.34874707355
2	617	1462.796201417643	125.36982793636
2	618	1470.387624074432	130.81697124876
2	619	1472.062900925984	118.48901975314
2	620	1474.749645142399	120.23306004981
2	621	1478.703800907832	89.917771816948
2	624	1492.78700062225	92.687361464088
2	625	1493.390967345611	71.545647808408
2	628	1498.046252778788	64.968796914206
2	629	1499.847187049664	65.276620115151
2	630	1505.26995348762	68.569080177689
2	631	1506.188031399104	61.888860306683
2	632	1508.173654591424	59.704694765975
2	633	1514.699414518939	63.115754628214
2	634	1517.675781990929	55.53511122153
2	635	1518.461757730128	31.910638432559
2	636	1521.335265070898	25.111357629377
2	639	1532.784477070737	9.099652871977
2	642	1537.10114354912	1.271059620806
2	648	1566.900041746804	14.744761596074
2	651	1569.976166122531	0.862554304488
2	666	1611.102872775427	33.31925036073
2	673	1625.390812946023	37.389832944919
2	689	1659.178654934987	30.190069985108
2	697	1669.198754927763	28.557658688505
2	698	1669.738702105249	18.820283052293
2	703	1675.71811300432	21.493019176215
2	704	1681.903527075397	18.377629298553
2	705	1683.322271655665	19.536566840581
2	710	1695.978650291932	28.974346141336
2	711	1705.84013202369	31.195135105211
2	712	1712.006775964766	36.599907776155
2	713	1720.026629477402	36.405254271467
2	714	1720.24798297063	28.377224025031
2	717	1725.079326590205	4.757692646108
2	720	1731.28329085777	3.041243736159
2	741	1766.367848813862	30.244658280704
2	744	1775.624983706726	38.715220275478
2	747	1787.733758118009	42.689631408356
2	748	1795.144844521987	46.58061544085
2	749	1795.254487865514	45.984826819482
2	750	1795.475775431169	46.037792836741
2	751	1797.511783042715	44.167371532739
2	761	1805.388559720934	21.179549456202
2	771	1823.991391168075	23.812713790834
2	774	1843.39316965258	42.43483348659
2	778	1849.321544486196	40.646687192458
2	803	1907.521892047333	63.075914756138
2	806	1911.732333924264	54.562382685551
2	809	1914.541864258448	49.278773661065
2	812	1918.989088476447	48.096805855077
2	819	1938.408667166021	53.734455740238
2	820	1940.522549836335	45.947781372051
2	821	1943.755962758059	45.821019451284
2	822	1944.566506086607	45.545096708176
2	823	1948.646189358266	40.374483351187
2	824	1955.048520946211	43.153091591179
2	842	1995.701099607305	76.210108384518
2	850	2019.774165537895	82.849782949575
2	855	2029.500252459945	73.230381232042
2	856	2032.935190088623	71.433667162576
2	859	2036.727595303762	71.510933758028
2	879	2085.361605219016	76.66280634467
2	880	2085.388232481864	70.563427507765
2	881	2097.403621120302	70.967789217414
2	882	2098.167306670216	71.420687391969
2	883	2098.972764255287	64.695976234987
2	886	2101.135631550768	60.798483686189
2	887	2102.216343398259	61.384209089807
2	888	2108.988613266483	67.257111292706
2	891	2114.27497774172	69.880802177968
2	894	2115.674033300661	58.133961886508
2	895	2118.917467463587	58.155487760598
2	903	2141.976087986582	69.536148914672
2	904	2143.732245635947	43.088805545186
2	907	2147.106533898849	37.371144795078
2	908	2149.042296141388	34.487109584598
2	909	2150.718104926298	31.018016553638
2	910	2155.699479209031	30.245165596405
2	913	2158.000934740362	16.748580781813
2	914	2159.732956634043	14.517989522707
2	931	2189.840366919266	27.038530727552
2	932	2201.350441762012	24.950873965417
2	938	2208.89963104222	2.499412887547
2	939	2210.404362784808	3.726697144513
2	948	2220.84256042818	7.568222454935
2	962	2250.48427763749	26.661753698503
2	963	2253.775773276021	24.257390532367
2	966	2261.107115176316	23.750588290993
2	967	2262.017957734788	19.848560397558
2	968	2262.053890654321	12.242060473673
2	969	2267.309487729	6.632340168319
2	984	2295.379753122679	10.18609861904
2	1006	2319.086598405872	19.49294058893
2	1007	2319.972829662902	14.055269753434
2	1008	2321.157466044446	13.107493483259
2	1011	2321.303022944093	10.002814276684
2	1028	2360.400833369369	43.296844496132
2	1029	2366.124491189017	44.871961711119
2	1035	2393.599050936279	64.703665315924
2	1036	2403.387676387734	58.228965945868
2	1045	2424.332101865584	57.076746609966
2	1055	2442.848381412269	33.821368781275
2	1056	2454.363200982624	39.828854342223
2	1060	2457.03219550335	37.538778571913
2	1061	2460.083048608493	27.917363298388
2	1062	2460.141212121638	23.73926922667
2	1069	2467.541615918418	30.155068041737
2	1070	2476.327747685807	37.012560039071
2	1071	2478.871250088493	23.117534865653
2	1072	2483.732550576811	22.522472622157
2	1073	2491.432992462433	27.832248011801
2	1074	2492.545895855613	27.659280727216
3	140	353.282663559878	43.773586666843
3	141	359.771251411074	46.533872179563
3	144	363.588817060869	49.735659880401
3	145	364.406666090236	42.10115025956
3	146	365.063706798384	39.223987751055
3	147	371.635814267071	40.983322452714
3	148	377.747832505858	46.234135040218
3	158	386.497959610302	25.476134061138
3	161	399.95022976608	21.959563945508
3	162	410.746434176896	31.138338863542
3	163	412.40114668231	27.244104648764
3	164	419.019808228392	19.79157457891
3	178	458.503773635122	36.494130774203
3	179	460.846215431485	34.551797678615
3	180	461.043056005723	17.382773275209
3	181	461.18193646473	12.299166115143
3	184	470.575245597877	12.437868171044
3	185	470.729126105777	4.902607167222
3	188	494.833255579592	0
3	191	499.822669747212	0
3	200	545.209727119979	0
3	203	546.414892047934	1.041766962949
3	206	556.326563719439	0
3	209	572.24175660314	0
3	212	575.863779244195	0
3	215	587.453547845825	9.571714877541
3	232	627.492450251468	38.136360817208
3	235	638.050477173016	19.444014860453
3	236	638.618950473593	17.328860835929
3	252	671.673065649217	47.083484004131
3	253	672.255749977579	45.09594136072
3	256	681.094820576145	44.938086379689
3	261	685.889221288101	47.193632655053
3	262	693.619671742748	54.115759365514
3	265	698.76617009422	57.114564981458
3	266	705.319813742061	56.873248718724
3	269	711.009132869827	58.346997868716
3	274	717.527559614991	60.977809804241
3	277	723.978935460822	44.582550885572
3	278	727.986853632213	45.998631549199
3	279	730.965729500809	47.992609979952
3	280	734.521622234449	39.584107268071
3	283	745.543540798157	35.911346529086
3	286	754.566228318417	42.80741537672
3	287	756.726891457713	41.981828175277
3	288	761.289493404179	38.679782286963
3	289	780.518378270452	38.149389052693
3	294	784.683225335219	33.571296568888
3	301	794.039319651712	13.513315716644
3	308	799.620385533052	17.576232619705
3	311	799.987350044076	14.868647718608
3	316	804.136512945509	17.307580484989
3	319	811.122595375588	18.910859972345
3	320	811.462267623971	16.811373877715
3	321	811.998626557659	15.83398083867
3	322	813.815711120463	15.896503832159
3	323	813.981437159585	14.348577150433
3	326	831.825612038687	31.166435481749
3	327	832.493604375664	30.348043307167
3	330	839.477911319395	28.472726340575
3	333	845.125214584503	30.271720873822
3	334	848.888331102765	11.286980957124
3	337	851.153332943894	8.344440531099
3	340	854.416096821971	3.556871083785
3	341	854.720457573339	2.647775084484
3	344	856.159958446072	0
3	359	890.895947830339	13.122874242803
3	362	893.64717916577	0
3	378	910.109962822083	13.819553197453
3	383	914.875868993113	18.432095362504
3	384	920.062319225981	20.456469206619
3	389	934.59088892192	28.100734099107
3	399	959.349101512429	50.50322657925
3	402	959.716090026117	50.647312545529
3	403	965.23222841819	54.325530222365
3	406	968.078011574162	54.576890770559
3	407	968.252565792725	44.795994819864
3	408	974.172966427939	49.682630673814
3	411	981.894140725288	37.458048426364
3	414	986.608006880111	32.711180209866
3	419	1001.527026640018	45.742393533269
3	422	1009.96742407664	50.564495702134
3	425	1012.132733169281	44.477235038815
3	430	1019.822431711604	42.094904737018
3	433	1031.826331816037	45.3429863965
3	434	1032.807823838913	40.152981401533
3	439	1037.980633643837	37.518447061995
3	444	1047.298346903173	41.121619959976
3	447	1055.048323560858	43.276335140488
3	448	1060.927398079005	48.414751703099
3	453	1070.438726964237	53.011319907606
3	454	1073.907037167383	50.573851282094
3	457	1079.072384745189	43.497327129288
3	460	1085.594321069074	49.196778176367
3	463	1091.373370104148	53.002250798408
3	464	1097.31012015676	55.238813059283
3	465	1103.607699195795	50.295743594908
3	466	1105.127625756291	36.499455710745
3	467	1106.16616406628	37.42891167538
3	478	1122.552821945531	45.994372614776
3	503	1187.000031971644	101.73011139301
3	504	1187.380678551305	96.876862000467
3	507	1194.713099870445	85.957003445518
3	508	1197.832750800849	88.818710649082
3	509	1199.033407021253	87.208289745146
3	510	1200.783767777899	83.595692049656
3	511	1221.252821614096	102.67948057729
3	514	1226.871400769219	102.18425177361
3	517	1231.596666164946	101.47063935802
3	518	1237.87614232124	91.931644954774
3	523	1245.019148699628	53.944841782794
3	528	1249.081574919265	24.763703723272
3	529	1256.639693120158	26.279854408155
3	530	1257.151715885818	17.736415923459
3	535	1264.675095926737	23.355869448453
3	536	1266.003851600912	19.305503217856
3	537	1266.3656658137	17.290425758092
3	538	1267.286228024702	9.524940619301
3	539	1269.971307077402	7.742624949049
3	588	1388.397259489753	106.94067315746
3	591	1390.965747639673	105.09712917558
3	592	1397.998423833075	110.00251376179
3	595	1402.797014242373	112.69199980031
3	596	1410.773733820799	113.70961879532
3	599	1432.064848116909	122.81384478472
3	606	1439.091562991853	116.12118151747
3	609	1446.319128547932	119.26483565176
3	614	1461.202746427628	123.77637294635
3	617	1462.796201417643	123.22554859197
3	618	1470.387624074432	116.81374290159
3	619	1472.062900925984	117.5463158334
3	620	1474.749645142399	85.963616051515
3	621	1478.703800907832	78.60416174967
3	624	1492.78700062225	70.941681085047
3	625	1493.390967345611	60.313511481029
3	628	1498.046252778788	63.475685844275
3	629	1499.847187049664	63.146313739733
3	630	1505.26995348762	60.970782395199
3	631	1506.188031399104	57.719071573655
3	632	1508.173654591424	56.589994700699
3	633	1514.699414518939	52.55874374954
3	634	1517.675781990929	31.12466269336
3	635	1518.461757730128	22.237850288607
3	638	1523.68482419876	0
3	641	1535.830083928314	0
3	647	1563.549884649587	11.394604498857
3	650	1569.113611818043	0
3	653	1574.59712260323	0
3	665	1602.639512197443	24.855889782746
3	666	1611.102872775427	27.776988849879
3	672	1622.728065385654	34.72708538455
3	673	1625.390812946023	32.794660590221
3	683	1643.115934157185	29.489744408694
3	688	1656.284239471402	27.295654521523
3	689	1659.178654934987	22.619466752897
3	694	1666.438616103107	25.797519863849
3	697	1669.198754927763	18.280335874807
3	698	1669.738702105249	15.513608277144
3	703	1675.71811300432	12.192215227476
3	704	1681.903527075397	18.117822260313
3	705	1683.322271655665	16.317967505069
3	710	1695.978650291932	21.333653373453
3	711	1705.84013202369	30.433263835079
3	712	1712.006775964766	28.385400758831
3	713	1720.026629477402	28.155870531803
3	716	1720.321633944097	0
3	719	1728.242047121611	0
3	722	1733.304477625183	0
3	729	1745.040351665626	10.96311113682
3	740	1761.112252701689	24.989062168531
3	741	1766.367848813862	29.458085382614
3	744	1775.624983706726	30.580856997073
3	747	1787.733758118009	39.169529036872
3	748	1795.144844521987	45.875183475955
3	749	1795.254487865514	45.816505271086
3	750	1795.475775431169	42.131363921193
3	751	1797.511783042715	29.095789821151
3	758	1802.732787767398	18.523777502666
3	761	1805.388559720934	5.982636318994
3	766	1819.144928998573	18.966251621332
3	771	1823.991391168075	23.033055002085
3	774	1843.39316965258	40.429596743452
3	777	1845.298890758437	36.624033464699
3	778	1849.321544486196	30.826677630694
3	781	1862.712373094931	39.642021284783
3	784	1865.769176890318	41.853160898239
3	795	1889.129314095999	54.886390463182
3	802	1904.095331468819	59.649354177624
3	803	1907.521892047333	50.35194080862
3	806	1911.732333924264	46.469243326881
3	809	1914.541864258448	43.649581637078
3	812	1918.989088476447	34.314877050664
3	819	1938.408667166021	43.833898701737
3	820	1940.522549836335	42.58760652956
3	821	1943.755962758059	44.734553379628
3	822	1944.566506086607	36.294800079528
3	823	1948.646189358266	36.750760003234
3	824	1955.048520946211	40.32413213215
3	841	1990.444770614973	70.953779392186
3	842	1995.701099607305	72.459337188898
3	847	2013.88936566999	76.96498308167
3	850	2019.774165537895	63.504294309992
3	855	2029.500252459945	67.998729533898
3	856	2032.935190088623	67.718528542889
3	859	2036.727595303762	60.584335620871
3	866	2043.710345355206	66.604260241053
3	875	2070.180220641859	68.131053955224
3	878	2074.736594664219	66.037795789873
3	879	2085.361605219016	70.536800244917
3	880	2085.388232481864	58.952400578976
3	881	2097.403621120302	70.657001842055
3	882	2098.167306670216	63.890518649916
3	883	2098.972764255287	58.635616390708
3	886	2101.135631550768	60.303497242316
3	887	2102.216343398259	60.484841424482
3	888	2108.988613266483	64.594437702731
3	891	2114.27497774172	56.734906327567
3	894	2115.674033300661	54.912053597672
3	895	2118.917467463587	54.238818034534
3	900	2138.325295438056	65.885356366146
3	903	2141.976087986582	41.332647895821
3	904	2143.732245635947	33.996856532176
3	907	2147.106533898849	32.551347342059
3	908	2149.042296141388	29.342207768728
3	909	2150.718104926298	25.263791313672
3	910	2155.699479209031	14.447125250482
3	913	2158.000934740362	12.785967629026
3	914	2159.732956634043	3.507137078367
3	927	2181.046450388196	19.265632233682
3	930	2189.569081703972	26.767245512258
3	931	2189.840366919266	13.440799122671
3	932	2201.350441762012	16.881323740156
3	937	2208.552536882417	2.152318727744
3	938	2208.89963104222	2.221965401925
3	941	2212.910426022293	0
3	947	2218.144120015931	4.869782042686
3	959	2249.720744349881	25.898220410894
3	962	2250.48427763749	20.965894893836
3	963	2253.775773276021	16.419246390698
3	966	2261.107115176316	18.937717839086
3	967	2262.017957734788	12.20612755414
3	968	2262.053890654321	1.37674309364
3	980	2281.776950390926	5.395593041904
3	983	2291.68748430046	6.493829796821
3	1003	2315.934426966308	16.340769149366
3	1006	2319.086598405872	13.169038496404
3	1007	2319.972829662902	11.922857101715
3	1008	2321.157466044446	9.857257377037
3	1011	2321.303022944093	9.785709616106
3	1027	2355.600891270286	38.496902397049
3	1028	2360.400833369369	39.148303891471
3	1029	2366.124491189017	41.230031107778
3	1032	2371.369154023249	42.473768402894
3	1035	2393.599050936279	48.440340494413
3	1036	2403.387676387734	36.132321132116
3	1045	2424.332101865584	30.847585009734
3	1054	2442.425281170501	33.398268539507
3	1055	2442.848381412269	28.314034771868
3	1056	2454.363200982624	35.460508940085
3	1059	2456.170032065836	36.676615134399
3	1060	2457.03219550335	24.866510193245
3	1061	2460.083048608493	23.681105713525
3	1062	2460.141212121638	22.754664244957
3	1069	2467.541615918418	28.226428271682
3	1070	2476.327747685807	20.574032462967
3	1071	2478.871250088493	17.661172133839
3	1072	2483.732550576811	20.131806126179
3	1073	2491.432992462433	26.546377334036
4	143	361.021825549164	1
4	150	377.990665820572	1
4	152	378.253915431294	2
4	166	422.009642860919	1
4	170	440.507768153143	2
4	194	523.73951392862	1
4	197	530.555131859566	1
4	202	545.373125084985	1
4	217	589.35608943426	1
4	219	610.291214639623	2
4	221	615.800908427453	3
4	246	652.662135001111	1
4	250	662.997675276741	2
4	258	681.988222083014	1
4	276	722.609711117216	1
4	282	742.368989217759	1
4	285	751.111928766331	1
4	310	799.632860009152	1
4	325	814.853493710681	1
4	347	860.107364097815	1
4	349	863.381446274853	2
4	353	873.232163967375	1
4	355	875.141813991404	2
4	364	896.29040962463	1
4	370	900.777193276199	2
4	388	924.490335754125	1
4	391	944.436092298924	1
4	393	951.47929612701	2
4	424	1011.77198842037	1
4	427	1012.512646375906	1
4	441	1038.37111930574	1
4	480	1124.687148995609	1
4	484	1134.14472775205	2
4	486	1136.014676504768	3
4	492	1150.696087075246	2
4	494	1163.995141988292	3
4	496	1164.834707420463	4
4	500	1175.182035494463	3
4	516	1230.359838712003	1
4	532	1257.761287405401	1
4	542	1277.139323562446	1
4	546	1284.576761460268	2
4	554	1290.546818596825	3
4	556	1290.626256761703	4
4	558	1295.97049487972	5
4	562	1303.980580883593	6
4	568	1309.463716143574	5
4	580	1347.514072646773	4
4	590	1388.786029090884	1
4	594	1400.099639158162	1
4	611	1448.468959825449	1
4	644	1540.065042446857	1
4	657	1583.325883925548	1
4	659	1586.275170027452	2
4	668	1613.626189748491	1
4	670	1614.26675634966	2
4	675	1628.988584949879	1
4	677	1633.042512394715	2
4	687	1654.225093828105	1
4	691	1663.525897776844	1
4	724	1734.077240528806	1
4	737	1749.437982594428	1
4	753	1799.40592340194	1
4	765	1818.494866855502	1
4	776	1844.445977291195	1
4	780	1857.169951238713	1
4	783	1865.263090597383	1
4	786	1870.89228262137	1
4	788	1874.166523009959	2
4	791	1875.969531453931	2
4	797	1894.574768464284	1
4	826	1956.269871227903	1
4	828	1958.634551972986	2
4	839	1983.36840924784	2
4	846	2008.698798874346	1
4	861	2040.337147864579	1
4	872	2060.761979702989	1
4	877	2072.43993907191	1
4	899	2125.454313612626	1
4	916	2161.780818154514	1
4	920	2164.572453140033	2
4	922	2165.34997202045	3
4	929	2184.469118021856	1
4	936	2206.677665640295	1
4	943	2213.274337973245	1
4	945	2217.002569442759	2
4	950	2221.137838314775	1
4	971	2272.148163070228	1
4	973	2275.806883192869	2
4	978	2280.659867074338	2
4	982	2285.193654503639	1
4	986	2296.706842502531	1
4	990	2299.904511665169	2
4	994	2307.946249155461	3
4	1015	2328.895385620355	1
4	1017	2339.416810040685	2
4	1019	2339.425908011321	3
4	1022	2342.523346328393	3
4	1031	2367.255355255618	1
4	1049	2436.401942894968	1
4	1058	2455.75371522284	1
5	143	361.021825549164	0
5	144	363.588817060869	0
5	150	377.990665820572	0
5	152	378.253915431294	1
5	155	382.348296758414	1
5	158	386.497959610302	0
5	166	422.009642860919	0
5	170	440.507768153143	1
5	175	456.790028546088	1
5	178	458.503773635122	0
5	194	523.73951392862	0
5	195	524.496786996281	0
5	197	530.555131859566	0
5	198	532.993891796109	0
5	202	545.373125084985	0
5	203	546.414892047934	0
5	217	589.35608943426	0
5	219	610.291214639623	1
5	221	615.800908427453	2
5	222	616.125686482042	2
5	227	622.333323239399	1
5	232	627.492450251468	0
5	246	652.662135001111	0
5	250	662.997675276741	1
5	251	665.260282399345	1
5	252	671.673065649217	0
5	258	681.988222083014	0
5	261	685.889221288101	0
5	276	722.609711117216	0
5	277	723.978935460822	0
5	282	742.368989217759	0
5	283	745.543540798157	0
5	285	751.111928766331	0
5	286	754.566228318417	0
5	310	799.632860009152	0
5	311	799.987350044076	0
5	325	814.853493710681	0
5	326	831.825612038687	0
5	347	860.107364097815	0
5	349	863.381446274853	1
5	350	863.414195571936	1
5	351	868.531369146774	0
5	353	873.232163967375	0
5	355	875.141813991404	1
5	358	879.499619383691	1
5	359	890.895947830339	0
5	364	896.29040962463	0
5	370	900.777193276199	1
5	371	902.72904549883	1
5	378	910.109962822083	0
5	388	924.490335754125	0
5	389	934.59088892192	0
5	391	944.436092298924	0
5	393	951.47929612701	1
5	394	952.704057474038	1
5	399	959.349101512429	0
5	424	1011.77198842037	0
5	425	1012.132733169281	0
5	427	1012.512646375906	0
5	430	1019.822431711604	0
5	441	1038.37111930574	0
5	444	1047.298346903173	0
5	480	1124.687148995609	0
5	484	1134.14472775205	1
5	486	1136.014676504768	2
5	487	1137.085548601501	2
5	490	1149.694547576425	1
5	492	1150.696087075246	1
5	494	1163.995141988292	2
5	496	1164.834707420463	3
5	497	1165.664199978042	3
5	498	1169.709802290174	2
5	500	1175.182035494463	2
5	501	1182.783006390508	2
5	502	1184.545584011835	1
5	503	1187.000031971644	0
5	516	1230.359838712003	0
5	517	1231.596666164946	0
5	532	1257.761287405401	0
5	535	1264.675095926737	0
5	542	1277.139323562446	0
5	546	1284.576761460268	1
5	554	1290.546818596825	2
5	556	1290.626256761703	3
5	558	1295.97049487972	4
5	562	1303.980580883593	5
5	563	1307.379571776318	5
5	564	1308.547960981205	4
5	568	1309.463716143574	4
5	573	1332.621733911874	4
5	576	1339.469794105819	3
5	580	1347.514072646773	3
5	581	1352.198630349926	3
5	582	1352.547810440995	2
5	587	1374.946578246021	1
5	588	1388.397259489753	0
5	590	1388.786029090884	0
5	591	1390.965747639673	0
5	594	1400.099639158162	0
5	595	1402.797014242373	0
5	611	1448.468959825449	0
5	614	1461.202746427628	0
5	644	1540.065042446857	0
5	647	1563.549884649587	0
5	657	1583.325883925548	0
5	659	1586.275170027452	1
5	662	1588.651979205519	1
5	665	1602.639512197443	0
5	668	1613.626189748491	0
5	670	1614.26675634966	1
5	671	1622.382727440669	1
5	672	1622.728065385654	0
5	675	1628.988584949879	0
5	677	1633.042512394715	1
5	680	1639.1013761234	1
5	683	1643.115934157185	0
5	687	1654.225093828105	0
5	688	1656.284239471402	0
5	691	1663.525897776844	0
5	694	1666.438616103107	0
5	724	1734.077240528806	0
5	729	1745.040351665626	0
5	737	1749.437982594428	0
5	740	1761.112252701689	0
5	753	1799.40592340194	0
5	758	1802.732787767398	0
5	765	1818.494866855502	0
5	766	1819.144928998573	0
5	776	1844.445977291195	0
5	777	1845.298890758437	0
5	780	1857.169951238713	0
5	781	1862.712373094931	0
5	783	1865.263090597383	0
5	784	1865.769176890318	0
5	786	1870.89228262137	0
5	788	1874.166523009959	1
5	789	1875.194206776196	1
5	791	1875.969531453931	1
5	792	1879.042859666786	1
5	795	1889.129314095999	0
5	797	1894.574768464284	0
5	802	1904.095331468819	0
5	826	1956.269871227903	0
5	828	1958.634551972986	1
5	831	1964.743633685214	1
5	839	1983.36840924784	1
5	840	1987.167027203954	1
5	841	1990.444770614973	0
5	846	2008.698798874346	0
5	847	2013.88936566999	0
5	861	2040.337147864579	0
5	866	2043.710345355206	0
5	872	2060.761979702989	0
5	875	2070.180220641859	0
5	877	2072.43993907191	0
5	878	2074.736594664219	0
5	899	2125.454313612626	0
5	900	2138.325295438056	0
5	916	2161.780818154514	0
5	920	2164.572453140033	1
5	922	2165.34997202045	2
5	923	2167.914629118719	2
5	924	2173.081947232065	1
5	927	2181.046450388196	0
5	929	2184.469118021856	0
5	930	2189.569081703972	0
5	936	2206.677665640295	0
5	937	2208.552536882417	0
5	943	2213.274337973245	0
5	945	2217.002569442759	1
5	946	2217.099581619913	1
5	947	2218.144120015931	0
5	950	2221.137838314775	0
5	959	2249.720744349881	0
5	971	2272.148163070228	0
5	973	2275.806883192869	1
5	976	2278.004515812617	1
5	978	2280.659867074338	1
5	979	2280.863857841921	1
5	980	2281.776950390926	0
5	982	2285.193654503639	0
5	983	2291.68748430046	0
5	986	2296.706842502531	0
5	990	2299.904511665169	1
5	994	2307.946249155461	2
5	1001	2312.086574849368	2
5	1002	2315.143803310975	1
5	1003	2315.934426966308	0
5	1015	2328.895385620355	0
5	1017	2339.416810040685	1
5	1019	2339.425908011321	2
5	1020	2341.682344469159	2
5	1022	2342.523346328393	2
5	1023	2343.885821032181	2
5	1024	2344.208582667277	1
5	1027	2355.600891270286	0
5	1031	2367.255355255618	0
5	1032	2371.369154023249	0
5	1049	2436.401942894968	0
5	1054	2442.425281170501	0
5	1058	2455.75371522284	0
5	1059	2456.170032065836	0
6	143	361.021825549164	5
6	150	377.990665820572	6
6	166	422.009642860919	7
6	202	545.373125084985	8
6	217	589.35608943426	9
6	246	652.662135001111	10
6	258	681.988222083014	11
6	276	722.609711117216	12
6	282	742.368989217759	13
6	285	751.111928766331	14
6	310	799.632860009152	15
6	325	814.853493710681	16
6	364	896.29040962463	17
6	388	924.490335754125	18
6	391	944.436092298924	19
6	424	1011.77198842037	20
6	427	1012.512646375906	21
6	441	1038.37111930574	22
6	480	1124.687148995609	23
6	516	1230.359838712003	24
6	532	1257.761287405401	25
6	590	1388.786029090884	26
6	594	1400.099639158162	27
6	611	1448.468959825449	28
6	657	1583.325883925548	29
6	668	1613.626189748491	30
6	675	1628.988584949879	31
6	687	1654.225093828105	32
6	691	1663.525897776844	33
6	724	1734.077240528806	34
6	737	1749.437982594428	35
6	753	1799.40592340194	36
6	765	1818.494866855502	37
6	776	1844.445977291195	38
6	780	1857.169951238713	39
6	783	1865.263090597383	40
6	786	1870.89228262137	41
6	797	1894.574768464284	42
6	826	1956.269871227903	43
6	846	2008.698798874346	44
6	861	2040.337147864579	45
6	872	2060.761979702989	46
6	877	2072.43993907191	47
6	899	2125.454313612626	48
6	916	2161.780818154514	49
6	929	2184.469118021856	50
6	936	2206.677665640295	51
6	943	2213.274337973245	52
6	982	2285.193654503639	53
6	1015	2328.895385620355	54
6	1031	2367.255355255618	55
6	1049	2436.401942894968	56
6	1058	2455.75371522284	57
7	143	361.021825549164	0
7	150	377.990665820572	0
7	155	382.348296758414	4.09438132712
7	166	422.009642860919	0
7	175	456.790028546088	16.282260392945
7	194	523.73951392862	0
7	197	530.555131859566	0
7	202	545.373125084985	0
7	217	589.35608943426	0
7	222	616.125686482042	5.834471842419
7	227	622.333323239399	6.532414811946
7	246	652.662135001111	0
7	251	665.260282399345	2.262607122604
7	258	681.988222083014	0
7	276	722.609711117216	0
7	282	742.368989217759	0
7	285	751.111928766331	0
7	310	799.632860009152	0
7	325	814.853493710681	0
7	347	860.107364097815	0
7	350	863.414195571936	0.032749297083
7	353	873.232163967375	0
7	358	879.499619383691	4.357805392287
7	364	896.29040962463	0
7	371	902.72904549883	1.951852222631
7	388	924.490335754125	0
7	391	944.436092298924	0
7	394	952.704057474038	1.224761347028
7	424	1011.77198842037	0
7	427	1012.512646375906	0
7	441	1038.37111930574	0
7	480	1124.687148995609	0
7	487	1137.085548601501	2.940820849451
7	490	1149.694547576425	13.679871071657
7	497	1165.664199978042	14.968112902796
7	498	1169.709802290174	5.714660301882
7	501	1182.783006390508	17.948298970045
7	502	1184.545584011835	9.363548517372
7	516	1230.359838712003	0
7	532	1257.761287405401	0
7	542	1277.139323562446	0
7	563	1307.379571776318	22.80281031605
7	564	1308.547960981205	18.00114238438
7	573	1332.621733911874	41.995477150171
7	576	1339.469794105819	43.499299226099
7	581	1352.198630349926	48.218049466333
7	582	1352.547810440995	43.084094297421
7	587	1374.946578246021	27.432505599248
7	590	1388.786029090884	0
7	594	1400.099639158162	0
7	611	1448.468959825449	0
7	644	1540.065042446857	0
7	657	1583.325883925548	0
7	662	1588.651979205519	2.376809178067
7	668	1613.626189748491	0
7	671	1622.382727440669	8.115971091009
7	675	1628.988584949879	0
7	680	1639.1013761234	6.058863728685
7	687	1654.225093828105	0
7	691	1663.525897776844	0
7	724	1734.077240528806	0
7	737	1749.437982594428	0
7	753	1799.40592340194	0
7	765	1818.494866855502	0
7	776	1844.445977291195	0
7	780	1857.169951238713	0
7	783	1865.263090597383	0
7	786	1870.89228262137	0
7	789	1875.194206776196	1.027683766237
7	792	1879.042859666786	3.073328212855
7	797	1894.574768464284	0
7	826	1956.269871227903	0
7	831	1964.743633685214	6.109081712228
7	840	1987.167027203954	3.798617956114
7	846	2008.698798874346	0
7	861	2040.337147864579	0
7	872	2060.761979702989	0
7	877	2072.43993907191	0
7	899	2125.454313612626	0
7	916	2161.780818154514	0
7	923	2167.914629118719	3.342175978686
7	924	2173.081947232065	7.731975211615
7	929	2184.469118021856	0
7	936	2206.677665640295	0
7	943	2213.274337973245	0
7	946	2217.099581619913	0.097012177154
7	950	2221.137838314775	0
7	971	2272.148163070228	0
7	976	2278.004515812617	2.197632619748
7	979	2280.863857841921	0.203990767583
7	982	2285.193654503639	0
7	986	2296.706842502531	0
7	1001	2312.086574849368	12.182063184199
7	1002	2315.143803310975	7.197554155514
7	1015	2328.895385620355	0
7	1020	2341.682344469159	2.265534428474
7	1023	2343.885821032181	4.45991302086
7	1024	2344.208582667277	1.685236338884
7	1031	2367.255355255618	0
7	1049	2436.401942894968	0
7	1058	2455.75371522284	0
8	144	363.588817060869	14
8	155	382.348296758414	15
8	158	386.497959610302	16
8	175	456.790028546088	17
8	178	458.503773635122	18
8	195	524.496786996281	19
8	198	532.993891796109	20
8	203	546.414892047934	21
8	222	616.125686482042	22
8	227	622.333323239399	23
8	232	627.492450251468	24
8	251	665.260282399345	25
8	252	671.673065649217	26
8	261	685.889221288101	27
8	277	723.978935460822	28
8	283	745.543540798157	29
8	286	754.566228318417	30
8	311	799.987350044076	31
8	326	831.825612038687	32
8	350	863.414195571936	33
8	351	868.531369146774	34
8	358	879.499619383691	35
8	359	890.895947830339	36
8	371	902.72904549883	37
8	378	910.109962822083	38
8	389	934.59088892192	39
8	394	952.704057474038	40
8	399	959.349101512429	41
8	425	1012.132733169281	42
8	430	1019.822431711604	43
8	444	1047.298346903173	44
8	487	1137.085548601501	45
8	490	1149.694547576425	46
8	497	1165.664199978042	47
8	498	1169.709802290174	48
8	501	1182.783006390508	49
8	502	1184.545584011835	50
8	503	1187.000031971644	51
8	517	1231.596666164946	52
8	535	1264.675095926737	53
8	563	1307.379571776318	54
8	564	1308.547960981205	55
8	573	1332.621733911874	56
8	576	1339.469794105819	57
8	581	1352.198630349926	58
8	582	1352.547810440995	59
8	587	1374.946578246021	60
8	588	1388.397259489753	61
8	591	1390.965747639673	62
8	595	1402.797014242373	63
8	614	1461.202746427628	64
8	647	1563.549884649587	65
8	662	1588.651979205519	66
8	665	1602.639512197443	67
8	671	1622.382727440669	68
8	672	1622.728065385654	69
8	680	1639.1013761234	70
8	683	1643.115934157185	71
8	688	1656.284239471402	72
8	694	1666.438616103107	73
8	729	1745.040351665626	74
8	740	1761.112252701689	75
8	758	1802.732787767398	76
8	766	1819.144928998573	77
8	777	1845.298890758437	78
8	781	1862.712373094931	79
8	784	1865.769176890318	80
8	789	1875.194206776196	81
8	792	1879.042859666786	82
8	795	1889.129314095999	83
8	802	1904.095331468819	84
8	831	1964.743633685214	85
8	840	1987.167027203954	86
8	841	1990.444770614973	87
8	847	2013.88936566999	88
8	866	2043.710345355206	89
8	875	2070.180220641859	90
8	878	2074.736594664219	91
8	900	2138.325295438056	92
8	923	2167.914629118719	93
8	924	2173.081947232065	94
8	927	2181.046450388196	95
8	930	2189.569081703972	96
8	937	2208.552536882417	97
8	946	2217.099581619913	98
8	947	2218.144120015931	99
8	959	2249.720744349881	100
8	976	2278.004515812617	101
8	979	2280.863857841921	102
8	980	2281.776950390926	103
8	983	2291.68748430046	104
8	1001	2312.086574849368	105
8	1002	2315.143803310975	106
8	1003	2315.934426966308	107
8	1020	2341.682344469159	108
8	1023	2343.885821032181	109
8	1024	2344.208582667277	110
8	1027	2355.600891270286	111
8	1032	2371.369154023249	112
8	1054	2442.425281170501	113
8	1059	2456.170032065836	114
9	144	363.588817060869	2.566991511705
9	155	382.348296758414	4.357630937842
9	158	386.497959610302	8.244044179008
9	175	456.790028546088	34.780385685169
9	178	458.503773635122	17.996005481979
9	195	524.496786996281	0.757273067661
9	198	532.993891796109	2.438759936543
9	203	546.414892047934	1.041766962949
9	222	616.125686482042	26.769597047782
9	227	622.333323239399	12.042108599776
9	232	627.492450251468	11.691541824015
9	251	665.260282399345	12.598147398234
9	252	671.673065649217	8.675390372476
9	261	685.889221288101	3.900999205087
9	277	723.978935460822	1.369224343606
9	283	745.543540798157	3.174551580398
9	286	754.566228318417	3.454299552086
9	311	799.987350044076	0.354490034924
9	326	831.825612038687	16.972118328006
9	350	863.414195571936	3.306831474121
9	351	868.531369146774	5.149922871921
9	358	879.499619383691	6.267455416316
9	359	890.895947830339	15.754133838935
9	371	902.72904549883	6.4386358742
9	378	910.109962822083	9.332769545884
9	389	934.59088892192	10.100553167795
9	394	952.704057474038	8.267965175114
9	399	959.349101512429	7.869805385419
9	425	1012.132733169281	0.360744748911
9	430	1019.822431711604	7.309785335698
9	444	1047.298346903173	8.927227597433
9	487	1137.085548601501	12.398399605892
9	490	1149.694547576425	15.549819824375
9	497	1165.664199978042	29.649523473274
9	498	1169.709802290174	19.013715214928
9	501	1182.783006390508	18.787864402216
9	502	1184.545584011835	19.710876591372
9	503	1187.000031971644	11.817996477181
9	517	1231.596666164946	1.236827452943
9	535	1264.675095926737	6.913808521336
9	563	1307.379571776318	30.240248213872
9	564	1308.547960981205	23.971199520937
9	573	1332.621733911874	42.074915315049
9	576	1339.469794105819	48.843537344116
9	581	1352.198630349926	56.228135470206
9	582	1352.547810440995	48.567229557402
9	587	1374.946578246021	65.482862102447
9	588	1388.397259489753	40.88318684298
9	591	1390.965747639673	2.179718548789
9	595	1402.797014242373	2.697375084211
9	614	1461.202746427628	12.733786602179
9	647	1563.549884649587	23.48484220273
9	662	1588.651979205519	5.326095279971
9	665	1602.639512197443	16.364342169991
9	671	1622.382727440669	8.756537692178
9	672	1622.728065385654	8.461309035994
9	680	1639.1013761234	10.112791173521
9	683	1643.115934157185	10.07342176247
9	688	1656.284239471402	2.059145643297
9	694	1666.438616103107	2.912718326263
9	729	1745.040351665626	10.96311113682
9	740	1761.112252701689	11.674270107261
9	758	1802.732787767398	3.326864365458
9	766	1819.144928998573	0.650062143071
9	777	1845.298890758437	0.852913467242
9	781	1862.712373094931	5.542421856218
9	784	1865.769176890318	0.506086292935
9	789	1875.194206776196	4.301924154826
9	792	1879.042859666786	4.876336656827
9	795	1889.129314095999	13.159782642068
9	802	1904.095331468819	9.520563004535
9	831	1964.743633685214	8.473762457311
9	840	1987.167027203954	28.532475230968
9	841	1990.444770614973	7.076361367133
9	847	2013.88936566999	5.190566795644
9	866	2043.710345355206	3.373197490627
9	875	2070.180220641859	9.41824093887
9	878	2074.736594664219	2.296655592309
9	900	2138.325295438056	12.87098182543
9	923	2167.914629118719	6.133810964205
9	924	2173.081947232065	8.509494092032
9	927	2181.046450388196	15.696478367746
9	930	2189.569081703972	5.099963682116
9	937	2208.552536882417	1.874871242122
9	946	2217.099581619913	3.825243646668
9	947	2218.144120015931	1.141550573172
9	959	2249.720744349881	28.582906035106
9	976	2278.004515812617	5.856352742389
9	979	2280.863857841921	5.056974649052
9	980	2281.776950390926	1.117083316588
9	983	2291.68748430046	6.493829796821
9	1001	2312.086574849368	15.379732346837
9	1002	2315.143803310975	15.239291645806
9	1003	2315.934426966308	7.988177810847
9	1020	2341.682344469159	12.786958848804
9	1023	2343.885821032181	4.469010991496
9	1024	2344.208582667277	4.782674655956
9	1027	2355.600891270286	13.077544941893
9	1032	2371.369154023249	4.113798767631
9	1054	2442.425281170501	6.023338275533
9	1059	2456.170032065836	0.416316842996
10	154	379.608095313354	3
10	157	385.157042033546	4
10	160	399.228233649482	5
10	168	426.29441775287	2
10	172	443.660282730514	3
10	174	448.882770349587	4
10	177	458.137377426833	5
10	183	465.826518938555	3
10	188	494.833255579592	1
10	191	499.822669747212	1
10	200	545.209727119979	1
10	206	556.326563719439	1
10	209	572.24175660314	1
10	212	575.863779244195	1
10	214	577.881832968284	2
10	224	618.606462312563	2
10	226	621.290089637664	3
10	229	624.589581645086	4
10	231	627.159808616859	5
10	234	636.156734196456	6
10	238	638.695588633048	5
10	240	639.503912377234	6
10	242	641.651605112762	7
10	244	648.446565023337	8
10	248	656.54974981075	9
10	255	679.39638457525	9
10	260	682.973119520857	9
10	264	694.937514966378	9
10	268	709.632194269071	8
10	271	711.758812941697	8
10	273	714.745063282436	9
10	291	780.526003935068	3
10	293	782.044152913347	4
10	296	785.118702325468	4
10	298	786.82893246052	5
10	300	792.211735403243	6
10	303	794.650893746256	6
10	305	796.164645718989	7
10	307	797.919207288304	8
10	313	800.659176556938	8
10	315	802.145561068497	9
10	318	811.00518497882	9
10	329	837.601350145641	4
10	332	842.808892412795	4
10	336	850.859225738186	3
10	339	852.072682488855	3
10	344	856.159958446072	1
10	357	877.773073587536	1
10	362	893.64717916577	1
10	366	896.443773630609	2
10	368	899.605850019362	3
10	373	906.490154822813	4
10	375	908.845874933179	5
10	377	909.068777480588	6
10	380	910.906698195825	7
10	382	913.501120803603	8
10	386	923.456570972861	7
10	396	953.896826670245	8
10	398	955.784633106749	9
10	401	959.402928374506	10
10	405	967.655498130466	9
10	410	977.727526974586	7
10	413	986.483345419537	7
10	416	992.65484243738	7
10	418	1000.462186581842	8
10	421	1006.176726943197	8
10	429	1017.427407056631	8
10	432	1023.333185885289	9
10	436	1035.575057615901	8
10	438	1036.397542892707	9
10	443	1042.071307097477	9
10	446	1053.311955600887	10
10	450	1068.628170045546	9
10	452	1068.7372523909	10
10	456	1076.558449330755	9
10	459	1085.269920578633	9
10	462	1090.503816550838	9
10	469	1108.756096424927	5
10	471	1109.014040151767	6
10	473	1111.825117276107	7
10	475	1117.188075728243	8
10	477	1118.573341036805	9
10	482	1130.12602680693	9
10	489	1145.944497366466	10
10	506	1191.074306916834	10
10	513	1224.317871195993	6
10	520	1239.415299962359	5
10	522	1241.319226478284	6
10	525	1246.698348383056	6
10	527	1249.075240055608	7
10	534	1262.228682128353	5
10	544	1281.456586332296	1
10	548	1285.868618464094	2
10	550	1287.995910071284	3
10	552	1290.105014442061	4
10	560	1297.064115025479	5
10	566	1309.251003332188	6
10	570	1322.970381474386	7
10	572	1327.054292896169	8
10	575	1337.426373481282	9
10	578	1339.570652825673	10
10	584	1353.57388117284	11
10	586	1354.516585092584	12
10	598	1421.845319537203	11
10	601	1433.077455864582	11
10	603	1434.570566934513	12
10	605	1436.700873309931	13
10	608	1444.299171092421	13
10	613	1451.583659890725	13
10	616	1462.140670769399	14
10	623	1486.551119297569	10
10	627	1496.223907441521	9
10	638	1523.68482419876	1
10	641	1535.830083928314	1
10	646	1552.15528015073	1
10	650	1569.113611818043	1
10	653	1574.59712260323	1
10	655	1577.783622414697	2
10	661	1588.000980001104	3
10	664	1592.596152355802	4
10	679	1636.55918818209	3
10	682	1640.641096239258	4
10	685	1650.918419052956	5
10	693	1663.785704815084	5
10	696	1667.004304150596	6
10	700	1674.644996918479	5
10	702	1675.406868188611	6
10	707	1683.621375205935	4
10	709	1691.870758945599	5
10	716	1720.321633944097	1
10	719	1728.242047121611	1
10	722	1733.304477625183	1
10	726	1736.123190533158	2
10	728	1736.909763431248	3
10	731	1745.044126709653	4
10	733	1748.564229081137	5
10	735	1749.269661046032	6
10	739	1753.344411509976	7
10	743	1768.415993221564	7
10	746	1784.209010264732	7
10	755	1800.178677377241	3
10	757	1800.95833616599	4
10	760	1802.963572909128	5
10	763	1808.674857293738	5
10	768	1823.070351810148	6
10	770	1823.916015992079	7
10	773	1834.242923632817	7
10	794	1884.674211425783	6
10	799	1897.934943306775	7
10	801	1899.021409378431	8
10	805	1908.271706007079	8
10	808	1911.895429355032	8
10	811	1914.724388814061	8
10	814	1919.490991222787	8
10	816	1923.241762418407	9
10	818	1936.92438258832	10
10	830	1961.501522926047	5
10	833	1965.216661545734	6
10	835	1976.143259682891	7
10	837	1977.106085114153	8
10	844	2002.049166686635	8
10	849	2014.824804974099	9
10	852	2026.435831902888	9
10	854	2026.746619278247	10
10	858	2034.2767880203	9
10	863	2040.832134308452	9
10	865	2041.731501973777	10
10	868	2044.394175563752	11
10	870	2057.540071414153	12
10	874	2064.678649429053	13
10	885	2100.643440090761	9
10	890	2109.735389103771	7
10	893	2114.55518655679	7
10	897	2119.70008837266	6
10	902	2141.252353958549	7
10	906	2145.214967111336	6
10	912	2156.225819555676	3
10	918	2162.801836191714	2
10	926	2176.399567796595	3
10	934	2206.400218154673	2
10	941	2212.910426022293	1
10	952	2223.822523938987	1
10	954	2229.518382743654	2
10	956	2237.356526885323	3
10	958	2242.16939733723	4
10	961	2249.811830180648	5
10	965	2260.677147560681	4
10	975	2276.381357349022	1
10	988	2299.593657816942	1
10	992	2305.917559909468	2
10	996	2308.049972561187	3
10	998	2311.300208667409	4
10	1000	2311.517313327987	5
10	1005	2317.103988873237	6
10	1010	2321.252529477898	4
10	1013	2324.894460081239	4
10	1026	2345.158710441866	5
10	1034	2393.48451685585	4
10	1038	2409.027012630994	3
10	1040	2414.534346640401	4
10	1042	2418.902692042539	5
10	1044	2419.493416931437	6
10	1047	2432.165685310105	6
10	1051	2437.386547876681	7
10	1053	2439.315187646736	8
10	1064	2461.210077954654	4
10	1066	2463.600744450632	5
10	1068	2464.886615128397	6
11	1075	2500	0.0976
12	1075	2500	0.0456

