version 2
run experiments_hard_game_mode1-324-20230311-19:40:31-6289
attr configname experiments_hard_game_mode1
attr datetime 20230311-19:40:31
attr experiment experiments_hard_game_mode1
attr inifile omnetpp.ini
attr iterationvars "$0=8, $1=3, $2=0"
attr iterationvarsf 8,3,0-
attr measurement "$0=8, $1=3, $2=0"
attr network Network
attr processid 6289
attr repetition 24
attr replication #24
attr resultdir results
attr runnumber 324
attr seedset 24
param *.boss.arrival_mean 20
param *.boss.service_mean 8
param *.minion.arrival_mean 10
param *.minion.service_mean 3
param *.player.recover_rate_x 0
param **.minion.arrival_distribution 0
param **.minion.service_distribution 0
param **.boss.arrival_distribution 0
param **.boss.service_distribution 0

vector 0 Network.player minion_jobs_number_stat:vector ETV
attr source signal_minion_jobs_number
vector 1 Network.player minion_jobs_queue_number_stat:vector ETV
attr source signal_minion_jobs_queue_number
vector 2 Network.player minion_waiting_time_stat:vector ETV
attr source signal_minion_waiting_time
vector 3 Network.player minion_defeated_stat:vector ETV
attr source signal_minion_defeated
vector 4 Network.player minion_response_time_stat:vector ETV
attr source signal_minion_response_time
vector 5 Network.player boss_jobs_number_stat:vector ETV
attr source signal_boss_jobs_number
vector 6 Network.player boss_jobs_queue_number_stat:vector ETV
attr source signal_boss_jobs_queue_number
vector 7 Network.player boss_waiting_time_stat:vector ETV
attr source signal_boss_waiting_time
vector 8 Network.player boss_defeated_stat:vector ETV
attr source signal_boss_defeated
vector 9 Network.player boss_response_time_stat:vector ETV
attr source signal_boss_response_time
vector 10 Network.player minion_recovered_stat:vector ETV
attr source signal_minion_recovered
vector 11 Network.player minion_throughput:vector ETV
attr source signal_minion_throughput
vector 12 Network.player boss_throughput:vector ETV
attr source signal_boss_throughput
0	179	356.789216703952	1
0	182	366.407720533371	1
0	188	377.040571376589	1
0	197	407.187138617204	1
0	200	441.086758584803	1
0	202	444.494047951664	2
0	208	454.812616210221	1
0	212	465.641600051131	1
0	220	479.277820095291	1
0	227	494.852513830573	1
0	230	512.690580686026	1
0	232	513.291580781746	2
0	234	513.351339505375	3
0	243	536.37120453553	1
0	245	543.993126690739	2
0	247	544.734462538936	3
0	254	570.095733877643	1
0	257	581.896687504052	1
0	260	583.921324485665	1
0	263	585.279116190361	1
0	268	628.667395432288	1
0	272	639.69467870296	1
0	275	646.035768047026	1
0	277	646.700493880238	2
0	284	654.825600306625	1
0	286	656.330937168635	2
0	288	659.22283601459	3
0	292	662.930578404102	4
0	294	668.660465822505	5
0	296	669.213705429238	6
0	300	686.651463762509	7
0	302	689.556081539344	8
0	309	699.689261245628	6
0	311	700.697231461097	7
0	322	718.013659795175	2
0	324	722.983967879998	3
0	326	726.315870106654	4
0	332	748.09093089818	1
0	336	754.082570057365	2
0	338	755.845534507378	3
0	342	757.767462288997	3
0	345	763.296326840998	3
0	348	763.756724342622	3
0	353	783.013662615862	1
0	356	793.983471542549	1
0	358	798.026774169896	2
0	362	801.977773532648	1
0	368	833.465877522527	1
0	371	836.465091621941	1
0	374	841.389145078265	1
0	378	855.164496103926	2
0	384	859.058740100249	2
0	388	870.96052869789	3
0	390	872.015518815138	4
0	401	905.7906501075	1
0	404	917.454414024692	1
0	407	921.532650731636	1
0	410	927.925128540496	1
0	419	949.937502961437	1
0	422	955.67258158671	1
0	426	961.254644888158	2
0	428	967.551004355144	3
0	434	994.532880761544	1
0	436	995.30254166152	2
0	440	1009.931705878689	1
0	443	1021.737113462098	1
0	446	1024.17178272167	1
0	449	1024.471307065166	1
0	457	1044.17301064952	1
0	461	1058.134734592907	1
0	471	1077.59144860176	1
0	475	1099.7668425196	2
0	485	1177.970402632044	1
0	493	1196.635886742355	2
0	495	1200.226436534748	3
0	497	1205.305018111409	4
0	499	1208.547369053641	5
0	503	1215.12574070078	6
0	505	1219.267934439993	7
0	514	1237.053733865379	2
0	518	1239.590833280954	1
0	521	1243.366400938419	1
0	524	1247.006478551144	1
0	527	1256.950644294721	1
0	536	1269.448195677003	1
0	542	1316.893751880655	1
0	547	1326.742537226964	1
0	551	1345.848286259193	1
0	557	1348.648970850869	1
0	563	1356.52134966197	1
0	566	1358.668885500997	1
0	569	1366.071723712859	1
0	578	1412.303689929352	1
0	587	1429.733317691778	1
0	590	1434.323136498465	1
0	593	1434.964109108602	1
0	598	1436.961393363256	1
0	600	1438.014710699769	2
0	602	1440.91670006931	3
0	607	1452.643273660911	2
0	614	1471.204834866045	1
0	617	1477.679218653875	1
0	620	1483.295070252198	1
0	626	1491.594781451896	1
0	629	1505.030160024024	1
0	632	1516.450343239982	1
0	635	1517.991208355858	1
0	638	1523.870921068251	1
0	648	1538.057668432891	1
0	653	1546.248679213656	1
0	656	1563.091021173002	1
0	659	1564.606893435329	1
0	662	1568.309056649513	1
0	665	1578.568099306452	1
0	667	1579.021682457924	2
0	671	1582.461246981718	1
0	673	1582.712989310234	2
0	677	1603.358994729019	1
0	682	1607.744862763942	2
0	686	1612.46891407111	1
0	689	1636.770725581656	1
0	692	1643.752179947993	1
0	694	1644.931583917353	2
0	696	1645.208321763132	3
0	701	1659.176969637964	1
0	704	1674.345312371334	1
0	712	1685.420559474964	1
0	714	1689.950900213952	2
0	716	1697.931056839573	3
0	722	1705.363008194692	1
0	724	1708.149830541008	2
0	727	1710.341140059046	2
0	729	1713.362897446005	3
0	734	1716.826918214573	1
0	742	1746.520972385423	1
0	746	1750.012828917756	2
0	748	1750.7522501866	3
0	760	1780.545645202351	1
0	764	1783.624836174733	1
0	767	1785.515637779284	1
0	769	1786.608102528738	2
0	771	1788.100980481798	3
0	775	1792.129076952849	2
0	781	1809.173374539332	1
0	783	1813.686348165498	2
0	791	1834.396774731413	1
0	794	1837.476149774725	1
0	797	1870.033855423056	1
0	800	1890.545216059208	1
0	809	1916.765702130355	1
0	815	1934.493965339324	1
0	818	1937.97189039777	1
0	835	1976.855919890475	1
0	841	1988.823419157974	2
0	846	1996.727013769419	3
0	849	1998.85047389208	4
0	854	2006.840808922118	5
0	858	2024.745438396731	6
0	860	2025.944021961315	7
0	862	2028.289970011253	8
0	866	2040.45613515477	9
0	870	2047.342792869357	9
0	877	2067.117905936518	5
0	884	2079.932128378416	1
0	886	2080.182697143549	2
0	888	2080.499574889648	3
0	893	2107.610656614475	1
0	896	2112.345383053022	1
0	899	2130.249105147754	1
0	902	2138.55333155246	1
0	906	2143.419866067781	2
0	919	2171.416923986947	3
0	921	2174.188701438503	4
0	923	2187.093761591359	5
0	926	2192.155402618666	6
0	928	2204.841647655703	7
0	930	2206.245984870921	8
0	941	2244.13923776168	4
0	950	2277.537847225243	1
0	955	2289.141865512103	1
0	957	2291.318595943235	2
0	961	2295.59156571577	2
0	963	2297.947119131108	3
0	968	2316.278446438018	1
0	971	2327.98601757414	1
0	977	2345.680151314537	1
0	980	2351.582526638814	1
0	986	2361.054874266508	1
0	989	2366.210491028203	1
0	991	2370.222330685964	2
0	993	2379.145448243972	3
0	998	2389.248330480956	1
0	1000	2389.842691429586	2
0	1004	2393.095394791491	1
0	1006	2396.301173612793	2
0	1010	2402.826514123312	1
0	1012	2405.848596340953	2
0	1016	2413.005412113603	1
0	1020	2418.180451570403	2
0	1028	2443.112190058738	1
0	1033	2457.571520976012	1
0	1039	2492.925146764597	2
0	1041	2498.096628724313	3
0	1044	2499.167734483319	4
1	179	356.789216703952	0
1	180	357.865214361083	0
1	182	366.407720533371	0
1	183	366.975386562726	0
1	188	377.040571376589	0
1	189	377.481237230733	0
1	197	407.187138617204	0
1	198	411.234738537584	0
1	200	441.086758584803	0
1	202	444.494047951664	1
1	203	445.43631624562	1
1	204	446.43340008675	0
1	208	454.812616210221	0
1	210	459.182566420295	0
1	212	465.641600051131	0
1	213	465.975873857472	0
1	220	479.277820095291	0
1	222	484.893481957076	0
1	227	494.852513830573	0
1	228	495.620382422332	0
1	230	512.690580686026	0
1	232	513.291580781746	1
1	234	513.351339505375	2
1	235	515.987453854369	2
1	236	520.230303344982	1
1	237	524.281386997678	0
1	243	536.37120453553	0
1	245	543.993126690739	1
1	247	544.734462538936	2
1	250	554.916245418204	2
1	251	556.477371622302	1
1	252	558.402480600351	0
1	254	570.095733877643	0
1	255	570.671888663499	0
1	257	581.896687504052	0
1	258	582.405666556301	0
1	260	583.921324485665	0
1	261	584.489325602812	0
1	263	585.279116190361	0
1	264	586.951616591743	0
1	268	628.667395432288	0
1	270	631.619955674597	0
1	272	639.69467870296	0
1	273	640.231291020442	0
1	275	646.035768047026	0
1	277	646.700493880238	1
1	278	649.079149059626	1
1	279	649.552311985751	0
1	284	654.825600306625	0
1	286	656.330937168635	1
1	288	659.22283601459	2
1	292	662.930578404102	3
1	294	668.660465822505	4
1	296	669.213705429238	5
1	300	686.651463762509	6
1	302	689.556081539344	7
1	305	695.442673760182	7
1	306	696.379236133138	6
1	307	697.915727751982	5
1	309	699.689261245628	5
1	311	700.697231461097	6
1	312	702.316846792492	6
1	313	702.583511688751	5
1	314	704.319739435022	4
1	318	714.986867716912	3
1	319	715.007688423542	2
1	320	716.449831849261	1
1	322	718.013659795175	1
1	324	722.983967879998	2
1	326	726.315870106654	3
1	327	729.417983770283	3
1	328	737.690240091405	2
1	329	744.030610765194	1
1	330	745.383492098971	0
1	332	748.09093089818	0
1	336	754.082570057365	1
1	338	755.845534507378	2
1	340	757.658219039262	2
1	342	757.767462288997	2
1	343	762.821352211367	2
1	345	763.296326840998	2
1	346	763.405219408692	2
1	348	763.756724342622	2
1	349	763.812356845352	2
1	350	764.266442600588	1
1	351	765.882253343479	0
1	353	783.013662615862	0
1	354	784.923772800565	0
1	356	793.983471542549	0
1	358	798.026774169896	1
1	359	800.018457403478	1
1	360	801.492686883348	0
1	362	801.977773532648	0
1	363	802.596064366124	0
1	368	833.465877522527	0
1	369	833.829027915934	0
1	371	836.465091621941	0
1	372	839.740832031381	0
1	374	841.389145078265	0
1	378	855.164496103926	1
1	380	857.785641709559	1
1	384	859.058740100249	1
1	388	870.96052869789	2
1	390	872.015518815138	3
1	393	876.441547125645	3
1	394	881.61144249751	2
1	395	882.161696325369	1
1	396	882.467144999085	0
1	401	905.7906501075	0
1	402	913.283252206025	0
1	404	917.454414024692	0
1	405	917.991089597823	0
1	407	921.532650731636	0
1	408	922.450170199868	0
1	410	927.925128540496	0
1	411	928.550967886176	0
1	419	949.937502961437	0
1	420	954.188776496768	0
1	422	955.67258158671	0
1	426	961.254644888158	1
1	428	967.551004355144	2
1	430	971.163994931916	2
1	431	977.577020769774	1
1	432	979.34241486577	0
1	434	994.532880761544	0
1	436	995.30254166152	1
1	437	995.40570286053	1
1	438	997.233204424956	0
1	440	1009.931705878689	0
1	441	1015.747858035176	0
1	443	1021.737113462098	0
1	444	1023.066764590382	0
1	446	1024.17178272167	0
1	447	1024.45026960267	0
1	449	1024.471307065166	0
1	450	1030.91457062664	0
1	457	1044.17301064952	0
1	459	1049.427121074871	0
1	461	1058.134734592907	0
1	462	1058.25918936342	0
1	471	1077.59144860176	0
1	475	1099.7668425196	1
1	476	1100.31461228711	1
1	477	1108.913445376673	0
1	485	1177.970402632044	0
1	493	1196.635886742355	1
1	495	1200.226436534748	2
1	497	1205.305018111409	3
1	499	1208.547369053641	4
1	503	1215.12574070078	5
1	505	1219.267934439993	6
1	507	1221.293334260245	6
1	508	1230.227531897291	5
1	509	1231.03846112136	4
1	510	1233.272880109539	3
1	511	1233.942490155361	2
1	512	1235.061201256677	1
1	514	1237.053733865379	1
1	515	1238.043278118112	1
1	516	1238.525173206292	0
1	518	1239.590833280954	0
1	519	1240.525664627311	0
1	521	1243.366400938419	0
1	522	1245.2069022817	0
1	524	1247.006478551144	0
1	525	1248.177721851262	0
1	527	1256.950644294721	0
1	531	1258.157761633647	0
1	536	1269.448195677003	0
1	537	1271.548546247088	0
1	542	1316.893751880655	0
1	543	1320.022693315941	0
1	547	1326.742537226964	0
1	549	1334.463202042839	0
1	551	1345.848286259193	0
1	552	1346.255579814921	0
1	557	1348.648970850869	0
1	558	1348.8035234941	0
1	563	1356.52134966197	0
1	564	1358.444765207975	0
1	566	1358.668885500997	0
1	567	1359.988513414848	0
1	569	1366.071723712859	0
1	570	1369.370829886005	0
1	578	1412.303689929352	0
1	579	1412.955436929416	0
1	587	1429.733317691778	0
1	588	1430.430660155901	0
1	590	1434.323136498465	0
1	591	1434.602058715878	0
1	593	1434.964109108602	0
1	594	1435.935916967339	0
1	598	1436.961393363256	0
1	600	1438.014710699769	1
1	602	1440.91670006931	2
1	604	1448.950043045697	2
1	605	1451.926049612045	1
1	607	1452.643273660911	1
1	608	1453.944594237448	1
1	609	1456.465421532939	0
1	614	1471.204834866045	0
1	615	1476.192000504143	0
1	617	1477.679218653875	0
1	618	1478.468393445993	0
1	620	1483.295070252198	0
1	621	1483.613992199081	0
1	626	1491.594781451896	0
1	627	1492.215189374196	0
1	629	1505.030160024024	0
1	630	1506.794118135384	0
1	632	1516.450343239982	0
1	633	1516.566780936963	0
1	635	1517.991208355858	0
1	636	1519.422619904293	0
1	638	1523.870921068251	0
1	639	1523.910593005959	0
1	648	1538.057668432891	0
1	651	1545.965272097958	0
1	653	1546.248679213656	0
1	654	1550.905043798871	0
1	656	1563.091021173002	0
1	657	1563.865059572409	0
1	659	1564.606893435329	0
1	660	1565.230077033682	0
1	662	1568.309056649513	0
1	663	1568.666413737525	0
1	665	1578.568099306452	0
1	667	1579.021682457924	1
1	668	1579.493860203942	1
1	669	1580.730485477131	0
1	671	1582.461246981718	0
1	673	1582.712989310234	1
1	674	1584.028306172897	1
1	675	1586.344455995264	0
1	677	1603.358994729019	0
1	682	1607.744862763942	1
1	683	1609.268498577684	1
1	684	1609.99392001846	0
1	686	1612.46891407111	0
1	687	1613.955676465615	0
1	689	1636.770725581656	0
1	690	1642.434311135794	0
1	692	1643.752179947993	0
1	694	1644.931583917353	1
1	696	1645.208321763132	2
1	697	1649.373398288028	2
1	698	1652.136357483781	1
1	699	1653.245530182726	0
1	701	1659.176969637964	0
1	702	1666.227931479491	0
1	704	1674.345312371334	0
1	705	1676.382710425108	0
1	712	1685.420559474964	0
1	714	1689.950900213952	1
1	716	1697.931056839573	2
1	718	1703.801017763516	2
1	719	1703.982571530989	1
1	720	1704.602221909759	0
1	722	1705.363008194692	0
1	724	1708.149830541008	1
1	725	1709.566604291364	1
1	727	1710.341140059046	1
1	729	1713.362897446005	2
1	730	1713.769886402695	2
1	731	1714.129925952686	1
1	732	1714.574269763744	0
1	734	1716.826918214573	0
1	735	1726.873675359175	0
1	742	1746.520972385423	0
1	746	1750.012828917756	1
1	748	1750.7522501866	2
1	751	1755.162743636305	2
1	752	1760.845269160763	1
1	756	1769.634221473094	0
1	760	1780.545645202351	0
1	762	1781.94006552468	0
1	764	1783.624836174733	0
1	765	1785.374400789253	0
1	767	1785.515637779284	0
1	769	1786.608102528738	1
1	771	1788.100980481798	2
1	772	1790.554023658341	2
1	773	1791.397165207322	1
1	775	1792.129076952849	1
1	776	1798.214711000067	1
1	777	1799.041006230783	0
1	781	1809.173374539332	0
1	783	1813.686348165498	1
1	788	1828.445681426207	1
1	789	1829.610770398414	0
1	791	1834.396774731413	0
1	792	1834.423682949956	0
1	794	1837.476149774725	0
1	795	1841.160659909954	0
1	797	1870.033855423056	0
1	798	1876.659329210912	0
1	800	1890.545216059208	0
1	801	1892.805438806093	0
1	809	1916.765702130355	0
1	810	1917.39616316226	0
1	815	1934.493965339324	0
1	816	1934.564604992328	0
1	818	1937.97189039777	0
1	822	1943.005270540742	0
1	835	1976.855919890475	0
1	841	1988.823419157974	1
1	846	1996.727013769419	2
1	849	1998.85047389208	3
1	854	2006.840808922118	4
1	858	2024.745438396731	5
1	860	2025.944021961315	6
1	862	2028.289970011253	7
1	866	2040.45613515477	8
1	868	2046.027073251093	8
1	870	2047.342792869357	8
1	871	2048.819646335719	8
1	872	2049.46795289223	7
1	873	2050.066072623357	6
1	874	2057.387486671831	5
1	875	2065.609651037074	4
1	877	2067.117905936518	4
1	878	2069.065368918839	4
1	879	2070.179745585892	3
1	880	2071.613633848847	2
1	881	2078.042856676656	1
1	882	2078.82184086142	0
1	884	2079.932128378416	0
1	886	2080.182697143549	1
1	888	2080.499574889648	2
1	889	2080.613645570023	2
1	890	2093.754767888232	1
1	891	2095.316700664504	0
1	893	2107.610656614475	0
1	894	2110.585304445395	0
1	896	2112.345383053022	0
1	897	2114.28727241538	0
1	899	2130.249105147754	0
1	900	2131.376647583253	0
1	902	2138.55333155246	0
1	906	2143.419866067781	1
1	919	2171.416923986947	2
1	921	2174.188701438503	3
1	923	2187.093761591359	4
1	926	2192.155402618666	5
1	928	2204.841647655703	6
1	930	2206.245984870921	7
1	935	2230.379465461005	7
1	936	2231.530563091643	6
1	937	2231.58369813041	5
1	938	2235.566679597366	4
1	939	2239.48259109376	3
1	941	2244.13923776168	3
1	942	2248.07393406244	3
1	943	2250.117036848399	2
1	947	2271.719061529461	1
1	948	2274.529020078446	0
1	950	2277.537847225243	0
1	951	2277.617722471674	0
1	955	2289.141865512103	0
1	957	2291.318595943235	1
1	959	2293.542618521509	1
1	961	2295.59156571577	1
1	963	2297.947119131108	2
1	964	2299.666539050837	2
1	965	2302.33465026025	1
1	966	2303.275598180966	0
1	968	2316.278446438018	0
1	969	2317.295036613018	0
1	971	2327.98601757414	0
1	972	2329.597695803303	0
1	977	2345.680151314537	0
1	978	2346.161015870539	0
1	980	2351.582526638814	0
1	984	2357.475659898598	0
1	986	2361.054874266508	0
1	987	2363.335475829411	0
1	989	2366.210491028203	0
1	991	2370.222330685964	1
1	993	2379.145448243972	2
1	994	2385.560607271195	2
1	995	2386.391813391076	1
1	996	2388.077533262911	0
1	998	2389.248330480956	0
1	1000	2389.842691429586	1
1	1001	2390.018014955689	1
1	1002	2392.71286316472	0
1	1004	2393.095394791491	0
1	1006	2396.301173612793	1
1	1007	2401.370117236858	1
1	1008	2402.536198971469	0
1	1010	2402.826514123312	0
1	1012	2405.848596340953	1
1	1013	2407.500221559583	1
1	1014	2407.662255961669	0
1	1016	2413.005412113603	0
1	1020	2418.180451570403	1
1	1022	2422.789746848347	1
1	1023	2424.152913030099	0
1	1028	2443.112190058738	0
1	1029	2445.421933689684	0
1	1033	2457.571520976012	0
1	1039	2492.925146764597	1
1	1041	2498.096628724313	2
1	1044	2499.167734483319	3
2	179	356.789216703952	0
2	182	366.407720533371	0
2	188	377.040571376589	0
2	197	407.187138617204	0
2	200	441.086758584803	0
2	203	445.43631624562	0.942268293956
2	209	456.414595025337	1.601978815116
2	212	465.641600051131	0
2	221	482.015427066362	2.737606971071
2	227	494.852513830573	0
2	230	512.690580686026	0
2	235	515.987453854369	2.695873072623
2	236	520.230303344982	6.878963839607
2	249	554.844023353151	18.472818817621
2	250	554.916245418204	10.923118727465
2	251	556.477371622302	11.742909083366
2	254	570.095733877643	0
2	257	581.896687504052	0
2	260	583.921324485665	0
2	263	585.279116190361	0
2	269	630.420189437509	1.752794005221
2	272	639.69467870296	0
2	275	646.035768047026	0
2	278	649.079149059626	2.378655179388
2	284	654.825600306625	0
2	304	694.184721856412	37.853784687777
2	305	695.442673760182	36.219837745592
2	306	696.379236133138	34.602213080716
2	307	697.915727751982	34.98514934788
2	312	702.316846792492	33.656380969987
2	313	702.583511688751	33.369806259513
2	314	704.319739435022	17.668275672513
2	317	714.140103718672	24.584022179328
2	318	714.986867716912	15.297606471284
2	319	715.007688423542	14.310456962445
2	320	716.449831849261	8.255400596172
2	327	729.417983770283	11.404323975108
2	328	737.690240091405	14.706272211407
2	329	744.030610765194	17.71474065854
2	332	748.09093089818	0
2	339	756.570424018601	7.898672853928
2	340	757.658219039262	3.575648981897
2	343	762.821352211367	6.975817703989
2	346	763.405219408692	5.637757119695
2	349	763.812356845352	0.516030004354
2	350	764.266442600588	0.509718257966
2	353	783.013662615862	0
2	356	793.983471542549	0
2	359	800.018457403478	1.991683233582
2	362	801.977773532648	0
2	368	833.465877522527	0
2	371	836.465091621941	0
2	374	841.389145078265	0
2	379	856.49196435724	9.459684052135
2	380	857.785641709559	2.621145605633
2	392	875.185801507678	16.593311050794
2	393	876.441547125645	17.382807025396
2	394	881.61144249751	10.65091379962
2	395	882.161696325369	10.146177510231
2	401	905.7906501075	0
2	404	917.454414024692	0
2	407	921.532650731636	0
2	410	927.925128540496	0
2	419	949.937502961437	0
2	422	955.67258158671	0
2	429	967.946428602667	10.598259879059
2	430	971.163994931916	9.909350043758
2	431	977.577020769774	10.02601641463
2	434	994.532880761544	0
2	437	995.40570286053	0.10316119901
2	440	1009.931705878689	0
2	443	1021.737113462098	0
2	446	1024.17178272167	0
2	449	1024.471307065166	0
2	458	1047.692620267021	3.519609617501
2	461	1058.134734592907	0
2	473	1093.013754382629	15.422305780869
2	476	1100.31461228711	0.54776976751
2	491	1193.32264721483	15.352244582786
2	506	1220.456541024976	23.820654282621
2	507	1221.293334260245	21.066897725497
2	508	1230.227531897291	24.922513785882
2	509	1231.03846112136	22.491092067719
2	510	1233.272880109539	19.847420930603
2	511	1233.942490155361	18.816749454581
2	512	1235.061201256677	15.793266816684
2	515	1238.043278118112	0.989544252733
2	518	1239.590833280954	0
2	521	1243.366400938419	0
2	524	1247.006478551144	0
2	527	1256.950644294721	0
2	530	1257.817765700945	0.80016837534
2	536	1269.448195677003	0
2	542	1316.893751880655	0
2	548	1334.164691893565	7.422154666601
2	551	1345.848286259193	0
2	557	1348.648970850869	0
2	563	1356.52134966197	0
2	566	1358.668885500997	0
2	569	1366.071723712859	0
2	578	1412.303689929352	0
2	587	1429.733317691778	0
2	590	1434.323136498465	0
2	593	1434.964109108602	0
2	603	1441.902463215998	4.941069852742
2	604	1448.950043045697	10.935332345928
2	605	1451.926049612045	11.009349542735
2	608	1453.944594237448	1.301320576537
2	614	1471.204834866045	0
2	617	1477.679218653875	0
2	620	1483.295070252198	0
2	626	1491.594781451896	0
2	629	1505.030160024024	0
2	632	1516.450343239982	0
2	635	1517.991208355858	0
2	638	1523.870921068251	0
2	650	1543.014938752961	4.95727032007
2	653	1546.248679213656	0
2	656	1563.091021173002	0
2	659	1564.606893435329	0
2	662	1568.309056649513	0
2	665	1578.568099306452	0
2	668	1579.493860203942	0.472177746018
2	671	1582.461246981718	0
2	674	1584.028306172897	1.315316862663
2	677	1603.358994729019	0
2	680	1605.27145471029	0.052596551916
2	683	1609.268498577684	1.523635813742
2	686	1612.46891407111	0
2	689	1636.770725581656	0
2	692	1643.752179947993	0
2	697	1649.373398288028	4.441814370675
2	698	1652.136357483781	6.928035720649
2	701	1659.176969637964	0
2	704	1674.345312371334	0
2	717	1703.717909089985	18.297349615021
2	718	1703.801017763516	13.850117549564
2	719	1703.982571530989	6.051514691416
2	722	1705.363008194692	0
2	725	1709.566604291364	1.416773750356
2	730	1713.769886402695	3.428746343649
2	731	1714.129925952686	0.767028506681
2	734	1716.826918214573	0
2	750	1753.046997812711	6.526025427288
2	751	1755.162743636305	5.149914718549
2	752	1760.845269160763	10.093018974163
2	755	1763.52490978221	1.467024499871
2	761	1780.821252234715	0.275607032364
2	764	1783.624836174733	0
2	767	1785.515637779284	0
2	772	1790.554023658341	3.945921129603
2	773	1791.397165207322	3.296184725524
2	776	1798.214711000067	6.085634047218
2	787	1828.208328110984	19.034953571652
2	788	1828.445681426207	14.759333260709
2	791	1834.396774731413	0
2	794	1837.476149774725	0
2	797	1870.033855423056	0
2	800	1890.545216059208	0
2	809	1916.765702130355	0
2	815	1934.493965339324	0
2	818	1937.97189039777	0
2	821	1942.768166385821	1.734606215732
2	867	2041.875332419873	65.019412529398
2	868	2046.027073251093	57.203654093119
2	871	2048.819646335719	52.0926325663
2	872	2049.46795289223	50.61747900015
2	873	2050.066072623357	43.225263701239
2	874	2057.387486671831	32.6420482751
2	875	2065.609651037074	39.665629075759
2	878	2069.065368918839	40.775398907586
2	879	2070.179745585892	29.723610431122
2	880	2071.613633848847	24.27084097949
2	881	2078.042856676656	10.924950740138
2	884	2079.932128378416	0
2	889	2080.613645570023	0.430948426474
2	890	2093.754767888232	13.255192998584
2	893	2107.610656614475	0
2	896	2112.345383053022	0
2	899	2130.249105147754	0
2	902	2138.55333155246	0
2	934	2228.038051522313	87.783313410973
2	935	2230.379465461005	86.959599393224
2	936	2231.530563091643	60.113639104696
2	937	2231.58369813041	57.394996691907
2	938	2235.566679597366	48.472918006007
2	939	2239.48259109376	47.327188475094
2	942	2248.07393406244	43.232286406737
2	943	2250.117036848399	43.871051977478
2	946	2263.816742920078	19.677505158398
2	947	2271.719061529461	20.889924747722
2	950	2277.537847225243	0
2	958	2293.41054580016	4.268680288057
2	959	2293.542618521509	2.224022578274
2	964	2299.666539050837	4.074973335067
2	965	2302.33465026025	4.387531129142
2	968	2316.278446438018	0
2	971	2327.98601757414	0
2	977	2345.680151314537	0
2	980	2351.582526638814	0
2	983	2355.501847564487	3.789957441004
2	986	2361.054874266508	0
2	989	2366.210491028203	0
2	994	2385.560607271195	15.338276585231
2	995	2386.391813391076	7.246365147104
2	998	2389.248330480956	0
2	1001	2390.018014955689	0.175323526103
2	1004	2393.095394791491	0
2	1007	2401.370117236858	5.068943624065
2	1010	2402.826514123312	0
2	1013	2407.500221559583	1.65162521863
2	1016	2413.005412113603	0
2	1021	2422.393694165192	7.776807249203
2	1022	2422.789746848347	4.609295277944
2	1028	2443.112190058738	0
3	180	357.865214361083	39
3	183	366.975386562726	40
3	189	377.481237230733	41
3	198	411.234738537584	42
3	203	445.43631624562	43
3	204	446.43340008675	44
3	210	459.182566420295	45
3	213	465.975873857472	46
3	222	484.893481957076	47
3	228	495.620382422332	48
3	235	515.987453854369	49
3	236	520.230303344982	50
3	237	524.281386997678	51
3	250	554.916245418204	52
3	251	556.477371622302	53
3	252	558.402480600351	54
3	255	570.671888663499	55
3	258	582.405666556301	56
3	261	584.489325602812	57
3	264	586.951616591743	58
3	270	631.619955674597	59
3	273	640.231291020442	60
3	278	649.079149059626	61
3	279	649.552311985751	62
3	305	695.442673760182	63
3	306	696.379236133138	64
3	307	697.915727751982	65
3	312	702.316846792492	66
3	313	702.583511688751	67
3	314	704.319739435022	68
3	318	714.986867716912	69
3	319	715.007688423542	70
3	320	716.449831849261	71
3	327	729.417983770283	72
3	328	737.690240091405	73
3	329	744.030610765194	74
3	330	745.383492098971	75
3	340	757.658219039262	76
3	343	762.821352211367	77
3	346	763.405219408692	78
3	349	763.812356845352	79
3	350	764.266442600588	80
3	351	765.882253343479	81
3	354	784.923772800565	82
3	359	800.018457403478	83
3	360	801.492686883348	84
3	363	802.596064366124	85
3	369	833.829027915934	86
3	372	839.740832031381	87
3	380	857.785641709559	88
3	393	876.441547125645	89
3	394	881.61144249751	90
3	395	882.161696325369	91
3	396	882.467144999085	92
3	402	913.283252206025	93
3	405	917.991089597823	94
3	408	922.450170199868	95
3	411	928.550967886176	96
3	420	954.188776496768	97
3	430	971.163994931916	98
3	431	977.577020769774	99
3	432	979.34241486577	100
3	437	995.40570286053	101
3	438	997.233204424956	102
3	441	1015.747858035176	103
3	444	1023.066764590382	104
3	447	1024.45026960267	105
3	450	1030.91457062664	106
3	459	1049.427121074871	107
3	462	1058.25918936342	108
3	476	1100.31461228711	109
3	477	1108.913445376673	110
3	507	1221.293334260245	111
3	508	1230.227531897291	112
3	509	1231.03846112136	113
3	510	1233.272880109539	114
3	511	1233.942490155361	115
3	512	1235.061201256677	116
3	515	1238.043278118112	117
3	516	1238.525173206292	118
3	519	1240.525664627311	119
3	522	1245.2069022817	120
3	525	1248.177721851262	121
3	531	1258.157761633647	122
3	537	1271.548546247088	123
3	543	1320.022693315941	124
3	549	1334.463202042839	125
3	552	1346.255579814921	126
3	558	1348.8035234941	127
3	564	1358.444765207975	128
3	567	1359.988513414848	129
3	570	1369.370829886005	130
3	579	1412.955436929416	131
3	588	1430.430660155901	132
3	591	1434.602058715878	133
3	594	1435.935916967339	134
3	604	1448.950043045697	135
3	605	1451.926049612045	136
3	608	1453.944594237448	137
3	609	1456.465421532939	138
3	615	1476.192000504143	139
3	618	1478.468393445993	140
3	621	1483.613992199081	141
3	627	1492.215189374196	142
3	630	1506.794118135384	143
3	633	1516.566780936963	144
3	636	1519.422619904293	145
3	639	1523.910593005959	146
3	651	1545.965272097958	147
3	654	1550.905043798871	148
3	657	1563.865059572409	149
3	660	1565.230077033682	150
3	663	1568.666413737525	151
3	668	1579.493860203942	152
3	669	1580.730485477131	153
3	674	1584.028306172897	154
3	675	1586.344455995264	155
3	683	1609.268498577684	156
3	684	1609.99392001846	157
3	687	1613.955676465615	158
3	690	1642.434311135794	159
3	697	1649.373398288028	160
3	698	1652.136357483781	161
3	699	1653.245530182726	162
3	702	1666.227931479491	163
3	705	1676.382710425108	164
3	718	1703.801017763516	165
3	719	1703.982571530989	166
3	720	1704.602221909759	167
3	725	1709.566604291364	168
3	730	1713.769886402695	169
3	731	1714.129925952686	170
3	732	1714.574269763744	171
3	735	1726.873675359175	172
3	751	1755.162743636305	173
3	752	1760.845269160763	174
3	756	1769.634221473094	175
3	762	1781.94006552468	176
3	765	1785.374400789253	177
3	772	1790.554023658341	178
3	773	1791.397165207322	179
3	776	1798.214711000067	180
3	777	1799.041006230783	181
3	788	1828.445681426207	182
3	789	1829.610770398414	183
3	792	1834.423682949956	184
3	795	1841.160659909954	185
3	798	1876.659329210912	186
3	801	1892.805438806093	187
3	810	1917.39616316226	188
3	816	1934.564604992328	189
3	822	1943.005270540742	190
3	868	2046.027073251093	191
3	871	2048.819646335719	192
3	872	2049.46795289223	193
3	873	2050.066072623357	194
3	874	2057.387486671831	195
3	875	2065.609651037074	196
3	878	2069.065368918839	197
3	879	2070.179745585892	198
3	880	2071.613633848847	199
3	881	2078.042856676656	200
3	882	2078.82184086142	201
3	889	2080.613645570023	202
3	890	2093.754767888232	203
3	891	2095.316700664504	204
3	894	2110.585304445395	205
3	897	2114.28727241538	206
3	900	2131.376647583253	207
3	935	2230.379465461005	208
3	936	2231.530563091643	209
3	937	2231.58369813041	210
3	938	2235.566679597366	211
3	939	2239.48259109376	212
3	942	2248.07393406244	213
3	943	2250.117036848399	214
3	947	2271.719061529461	215
3	948	2274.529020078446	216
3	951	2277.617722471674	217
3	959	2293.542618521509	218
3	964	2299.666539050837	219
3	965	2302.33465026025	220
3	966	2303.275598180966	221
3	969	2317.295036613018	222
3	972	2329.597695803303	223
3	978	2346.161015870539	224
3	984	2357.475659898598	225
3	987	2363.335475829411	226
3	994	2385.560607271195	227
3	995	2386.391813391076	228
3	996	2388.077533262911	229
3	1001	2390.018014955689	230
3	1002	2392.71286316472	231
3	1007	2401.370117236858	232
3	1008	2402.536198971469	233
3	1013	2407.500221559583	234
3	1014	2407.662255961669	235
3	1022	2422.789746848347	236
3	1023	2424.152913030099	237
3	1029	2445.421933689684	238
4	180	357.865214361083	1.075997657131
4	183	366.975386562726	0.567666029355
4	189	377.481237230733	0.440665854144
4	198	411.234738537584	4.04759992038
4	203	445.43631624562	4.349557660817
4	204	446.43340008675	1.939352135086
4	210	459.182566420295	4.369950210074
4	213	465.975873857472	0.334273806341
4	222	484.893481957076	5.615661861785
4	228	495.620382422332	0.767868591759
4	235	515.987453854369	3.296873168343
4	236	520.230303344982	6.938722563236
4	237	524.281386997678	10.930047492303
4	250	554.916245418204	18.545040882674
4	251	556.477371622302	12.484244931563
4	252	558.402480600351	13.668018061415
4	255	570.671888663499	0.576154785856
4	258	582.405666556301	0.508979052249
4	261	584.489325602812	0.568001117147
4	264	586.951616591743	1.672500401382
4	270	631.619955674597	2.952560242309
4	273	640.231291020442	0.536612317482
4	278	649.079149059626	3.0433810126
4	279	649.552311985751	2.851818105513
4	305	695.442673760182	39.111736591547
4	306	696.379236133138	37.156400118548
4	307	697.915727751982	36.13870469956
4	312	702.316846792492	39.38626838839
4	313	702.583511688751	33.923045866246
4	314	704.319739435022	35.106034005784
4	318	714.986867716912	25.430786177568
4	319	715.007688423542	15.318427177914
4	320	716.449831849261	15.752600388164
4	327	729.417983770283	21.223552517194
4	328	737.690240091405	19.67658029623
4	329	744.030610765194	21.046642885196
4	330	745.383492098971	19.067621992317
4	340	757.658219039262	8.986467874589
4	343	762.821352211367	8.738782154002
4	346	763.405219408692	7.559684901314
4	349	763.812356845352	6.044894556355
4	350	764.266442600588	0.97011575959
4	351	765.882253343479	2.125529000857
4	354	784.923772800565	1.910110184703
4	359	800.018457403478	6.034985860929
4	360	801.492686883348	3.465912713452
4	363	802.596064366124	0.618290833476
4	369	833.829027915934	0.363150393407
4	372	839.740832031381	3.27574040944
4	380	857.785641709559	10.753361404454
4	393	876.441547125645	17.849056668761
4	394	881.61144249751	22.552702397261
4	395	882.161696325369	11.201167627479
4	396	882.467144999085	10.451626183947
4	402	913.283252206025	7.492602098525
4	405	917.991089597823	0.536675573131
4	408	922.450170199868	0.917519468232
4	411	928.550967886176	0.62583934568
4	420	954.188776496768	4.251273535331
4	430	971.163994931916	13.815826208308
4	431	977.577020769774	16.322375881616
4	432	979.34241486577	11.791410510626
4	437	995.40570286053	0.872822098986
4	438	997.233204424956	1.930662763436
4	441	1015.747858035176	5.816152156487
4	444	1023.066764590382	1.329651128284
4	447	1024.45026960267	0.278486881
4	450	1030.91457062664	6.443263561474
4	459	1049.427121074871	5.254110425351
4	462	1058.25918936342	0.124454770513
4	476	1100.31461228711	22.72316368535
4	477	1108.913445376673	9.146602857073
4	507	1221.293334260245	24.65744751789
4	508	1230.227531897291	30.001095362543
4	509	1231.03846112136	25.733443009951
4	510	1233.272880109539	24.725511055898
4	511	1233.942490155361	20.517030976425
4	512	1235.061201256677	19.935460555897
4	515	1238.043278118112	18.775343678119
4	516	1238.525173206292	1.471439340913
4	519	1240.525664627311	0.934831346357
4	522	1245.2069022817	1.840501343281
4	525	1248.177721851262	1.171243300118
4	531	1258.157761633647	1.140164308042
4	537	1271.548546247088	2.100350570085
4	543	1320.022693315941	3.128941435286
4	549	1334.463202042839	7.720664815875
4	552	1346.255579814921	0.407293555728
4	558	1348.8035234941	0.154552643231
4	564	1358.444765207975	1.923415546005
4	567	1359.988513414848	1.319627913851
4	570	1369.370829886005	3.299106173146
4	579	1412.955436929416	0.651747000064
4	588	1430.430660155901	0.697342464123
4	591	1434.602058715878	0.278922217413
4	594	1435.935916967339	0.971807858737
4	604	1448.950043045697	11.988649682441
4	605	1451.926049612045	13.911338912276
4	608	1453.944594237448	13.027894168138
4	609	1456.465421532939	3.822147872028
4	615	1476.192000504143	4.987165638098
4	618	1478.468393445993	0.789174792118
4	621	1483.613992199081	0.318921946883
4	627	1492.215189374196	0.6204079223
4	630	1506.794118135384	1.76395811136
4	633	1516.566780936963	0.116437696981
4	636	1519.422619904293	1.431411548435
4	639	1523.910593005959	0.039671937708
4	651	1545.965272097958	7.907603665067
4	654	1550.905043798871	4.656364585215
4	657	1563.865059572409	0.774038399407
4	660	1565.230077033682	0.623183598353
4	663	1568.666413737525	0.357357088012
4	668	1579.493860203942	0.92576089749
4	669	1580.730485477131	1.708803019207
4	674	1584.028306172897	1.567059191179
4	675	1586.344455995264	3.63146668503
4	683	1609.268498577684	4.04964041931
4	684	1609.99392001846	2.249057254518
4	687	1613.955676465615	1.486762394505
4	690	1642.434311135794	5.663585554138
4	697	1649.373398288028	5.621218340035
4	698	1652.136357483781	7.204773566428
4	699	1653.245530182726	8.037208419594
4	702	1666.227931479491	7.050961841527
4	705	1676.382710425108	2.037398053774
4	718	1703.801017763516	18.380458288552
4	719	1703.982571530989	14.031671317037
4	720	1704.602221909759	6.671165070186
4	725	1709.566604291364	4.203596096672
4	730	1713.769886402695	5.620055861687
4	731	1714.129925952686	3.78878589364
4	732	1714.574269763744	1.211372317739
4	735	1726.873675359175	10.046757144602
4	751	1755.162743636305	8.641771250882
4	752	1760.845269160763	10.832440243007
4	756	1769.634221473094	7.576336190755
4	762	1781.94006552468	1.394420322329
4	765	1785.374400789253	1.74956461452
4	772	1790.554023658341	5.038385879057
4	773	1791.397165207322	4.789062678584
4	776	1798.214711000067	10.113730518269
4	777	1799.041006230783	6.911929277934
4	788	1828.445681426207	19.272306886875
4	789	1829.610770398414	15.924422232916
4	792	1834.423682949956	0.026908218543
4	795	1841.160659909954	3.684510135229
4	798	1876.659329210912	6.625473787856
4	801	1892.805438806093	2.260222746885
4	810	1917.39616316226	0.630461031905
4	816	1934.564604992328	0.070639653004
4	822	1943.005270540742	1.971710370653
4	868	2046.027073251093	69.171153360618
4	871	2048.819646335719	59.996227177745
4	872	2049.46795289223	52.740939122811
4	873	2050.066072623357	51.215598731277
4	874	2057.387486671831	50.546677749713
4	875	2065.609651037074	40.864212640343
4	878	2069.065368918839	43.121346957524
4	879	2070.179745585892	41.889775574639
4	880	2071.613633848847	31.157498694077
4	881	2078.042856676656	30.700063807299
4	882	2078.82184086142	11.703934924902
4	889	2080.613645570023	0.681517191607
4	890	2093.754767888232	13.572070744683
4	891	2095.316700664504	14.817125774856
4	894	2110.585304445395	2.97464783092
4	897	2114.28727241538	1.941889362358
4	900	2131.376647583253	1.127542435499
4	935	2230.379465461005	90.124727349665
4	936	2231.530563091643	88.110697023862
4	937	2231.58369813041	60.166774143463
4	938	2235.566679597366	61.377978158863
4	939	2239.48259109376	52.388829502401
4	942	2248.07393406244	55.918531443774
4	943	2250.117036848399	45.275389192696
4	947	2271.719061529461	27.579823767781
4	948	2274.529020078446	23.699883296707
4	951	2277.617722471674	0.079875246431
4	959	2293.542618521509	4.400753009406
4	964	2299.666539050837	8.347943107602
4	965	2302.33465026025	6.74308454448
4	966	2303.275598180966	5.328479049858
4	969	2317.295036613018	1.016590175
4	972	2329.597695803303	1.611678229163
4	978	2346.161015870539	0.480864556002
4	984	2357.475659898598	5.763769775115
4	987	2363.335475829411	2.280601562903
4	994	2385.560607271195	19.350116242992
4	995	2386.391813391076	16.169482705112
4	996	2388.077533262911	8.932085018939
4	1001	2390.018014955689	0.769684474733
4	1002	2392.71286316472	2.870171735134
4	1007	2401.370117236858	8.274722445367
4	1008	2402.536198971469	6.235025358676
4	1013	2407.500221559583	4.673707436271
4	1014	2407.662255961669	1.813659620716
4	1022	2422.789746848347	8.172859932358
4	1023	2424.152913030099	5.972461459696
4	1029	2445.421933689684	2.309743630946
5	185	372.134798287112	1
5	191	382.649908763891	1
5	194	398.482874314802	1
5	206	452.623286576907	1
5	215	469.657341332736	1
5	218	476.563346583834	1
5	224	489.543105686646	1
5	239	526.025624377519	1
5	241	535.796427067984	2
5	266	626.393968682192	1
5	281	651.044778106652	1
5	290	661.777023052422	1
5	298	684.308078529856	2
5	316	708.194431253089	1
5	334	748.671751164673	1
5	365	813.013988148062	1
5	376	847.032280305105	1
5	382	858.592490456884	1
5	386	861.19589677694	2
5	398	884.394007217616	1
5	413	930.267922505825	1
5	416	937.320210880813	1
5	424	957.348168723608	1
5	452	1033.611678875363	1
5	455	1037.827955137379	1
5	464	1061.467071764612	1
5	467	1076.278973229815	1
5	469	1076.925032669892	2
5	479	1158.248829838364	1
5	481	1161.058857976693	2
5	483	1173.962877596753	3
5	488	1180.101638718088	3
5	501	1213.425459178936	1
5	529	1257.017597325605	1
5	533	1260.850513339229	1
5	539	1299.938347884687	1
5	545	1326.453008205057	1
5	554	1347.463605427665	1
5	560	1351.210648716751	1
5	572	1385.198060931911	1
5	575	1403.276454880886	1
5	581	1419.17759583594	1
5	584	1422.002012796862	1
5	596	1436.722330527041	1
5	611	1468.255254431895	1
5	623	1486.728705151374	1
5	641	1524.308443310314	1
5	643	1528.188529657151	2
5	645	1535.346246111982	3
5	679	1605.218858158374	1
5	707	1681.748549773511	1
5	710	1685.404964690379	1
5	737	1733.116417053337	1
5	740	1745.785983199229	1
5	744	1747.360294083479	2
5	754	1762.057885282339	1
5	758	1771.03123094636	1
5	779	1803.268513345241	1
5	785	1815.842102082336	2
5	803	1899.469683830687	1
5	805	1903.469048659292	2
5	812	1928.78649794723	1
5	820	1941.033560170089	1
5	824	1952.135829052273	1
5	827	1966.495807747824	1
5	829	1967.8742062205	2
5	831	1973.023659719139	3
5	833	1974.650065026567	4
5	837	1984.510906702646	5
5	839	1984.867767945828	6
5	844	1991.139207354218	6
5	852	2002.681817417297	5
5	904	2140.25473811134	1
5	908	2143.875117242388	2
5	910	2149.009102541388	3
5	912	2153.547249966718	4
5	914	2162.084817532982	5
5	916	2162.193617147174	6
5	945	2250.829136781739	1
5	953	2287.03352692923	1
5	974	2332.989143500774	1
5	982	2351.711890123483	1
5	1018	2414.616886915989	1
5	1025	2428.112985906692	1
5	1031	2455.475700995089	1
5	1035	2463.575780159213	2
5	1037	2491.203118857694	3
6	185	372.134798287112	0
6	186	374.69526890774	0
6	191	382.649908763891	0
6	192	393.637474074385	0
6	194	398.482874314802	0
6	195	406.669460952691	0
6	206	452.623286576907	0
6	209	456.414595025337	0
6	215	469.657341332736	0
6	216	475.101016184601	0
6	218	476.563346583834	0
6	221	482.015427066362	0
6	224	489.543105686646	0
6	225	492.828200983519	0
6	239	526.025624377519	0
6	241	535.796427067984	1
6	248	547.180414422943	1
6	249	554.844023353151	0
6	266	626.393968682192	0
6	269	630.420189437509	0
6	281	651.044778106652	0
6	282	654.621418236477	0
6	290	661.777023052422	0
6	298	684.308078529856	1
6	303	690.96085688104	1
6	304	694.184721856412	0
6	316	708.194431253089	0
6	317	714.140103718672	0
6	334	748.671751164673	0
6	339	756.570424018601	0
6	365	813.013988148062	0
6	366	813.800300276012	0
6	376	847.032280305105	0
6	379	856.49196435724	0
6	382	858.592490456884	0
6	386	861.19589677694	1
6	391	872.018868721431	1
6	392	875.185801507678	0
6	398	884.394007217616	0
6	399	886.296885499167	0
6	413	930.267922505825	0
6	414	934.481225751202	0
6	416	937.320210880813	0
6	417	943.785906322608	0
6	424	957.348168723608	0
6	429	967.946428602667	0
6	452	1033.611678875363	0
6	453	1036.377209779102	0
6	455	1037.827955137379	0
6	458	1047.692620267021	0
6	464	1061.467071764612	0
6	465	1075.015819804479	0
6	467	1076.278973229815	0
6	469	1076.925032669892	1
6	472	1078.929688054336	1
6	473	1093.013754382629	0
6	479	1158.248829838364	0
6	481	1161.058857976693	1
6	483	1173.962877596753	2
6	486	1178.819640661988	2
6	488	1180.101638718088	2
6	489	1180.823526064179	2
6	490	1185.041271448851	1
6	491	1193.32264721483	0
6	501	1213.425459178936	0
6	506	1220.456541024976	0
6	529	1257.017597325605	0
6	530	1257.817765700945	0
6	533	1260.850513339229	0
6	534	1261.204414516358	0
6	539	1299.938347884687	0
6	540	1304.181994013608	0
6	545	1326.453008205057	0
6	548	1334.164691893565	0
6	554	1347.463605427665	0
6	555	1348.278673603505	0
6	560	1351.210648716751	0
6	561	1353.937079580076	0
6	572	1385.198060931911	0
6	573	1386.442042988922	0
6	575	1403.276454880886	0
6	576	1403.946986089878	0
6	581	1419.17759583594	0
6	582	1421.085645185877	0
6	584	1422.002012796862	0
6	585	1428.234159281913	0
6	596	1436.722330527041	0
6	603	1441.902463215998	0
6	611	1468.255254431895	0
6	612	1468.994656177226	0
6	623	1486.728705151374	0
6	624	1487.375035607579	0
6	641	1524.308443310314	0
6	643	1528.188529657151	1
6	645	1535.346246111982	2
6	646	1537.586601774559	2
6	649	1539.730095244159	1
6	650	1543.014938752961	0
6	679	1605.218858158374	0
6	680	1605.27145471029	0
6	707	1681.748549773511	0
6	708	1682.875933363865	0
6	710	1685.404964690379	0
6	717	1703.717909089985	0
6	737	1733.116417053337	0
6	738	1733.69065799413	0
6	740	1745.785983199229	0
6	744	1747.360294083479	1
6	749	1752.213866902569	1
6	750	1753.046997812711	0
6	754	1762.057885282339	0
6	755	1763.52490978221	0
6	758	1771.03123094636	0
6	761	1780.821252234715	0
6	779	1803.268513345241	0
6	785	1815.842102082336	1
6	786	1824.415402411967	1
6	787	1828.208328110984	0
6	803	1899.469683830687	0
6	805	1903.469048659292	1
6	806	1905.718304625987	1
6	807	1908.711080399328	0
6	812	1928.78649794723	0
6	813	1929.127741772698	0
6	820	1941.033560170089	0
6	821	1942.768166385821	0
6	824	1952.135829052273	0
6	825	1958.089278728532	0
6	827	1966.495807747824	0
6	829	1967.8742062205	1
6	831	1973.023659719139	2
6	833	1974.650065026567	3
6	837	1984.510906702646	4
6	839	1984.867767945828	5
6	842	1988.939479110331	5
6	844	1991.139207354218	5
6	847	1997.115857371336	5
6	850	2000.991672397442	4
6	852	2002.681817417297	4
6	855	2013.893545495854	4
6	856	2021.831869706039	3
6	863	2036.242414708779	2
6	864	2039.54574933629	1
6	867	2041.875332419873	0
6	904	2140.25473811134	0
6	908	2143.875117242388	1
6	910	2149.009102541388	2
6	912	2153.547249966718	3
6	914	2162.084817532982	4
6	916	2162.193617147174	5
6	917	2164.321371203363	5
6	924	2191.926196606313	4
6	931	2219.28376001694	3
6	932	2224.306203912418	2
6	933	2225.584859221683	1
6	934	2228.038051522313	0
6	945	2250.829136781739	0
6	946	2263.816742920078	0
6	953	2287.03352692923	0
6	958	2293.41054580016	0
6	974	2332.989143500774	0
6	975	2333.412198020003	0
6	982	2351.711890123483	0
6	983	2355.501847564487	0
6	1018	2414.616886915989	0
6	1021	2422.393694165192	0
6	1025	2428.112985906692	0
6	1026	2429.935504902422	0
6	1031	2455.475700995089	0
6	1035	2463.575780159213	1
6	1037	2491.203118857694	2
6	1042	2498.701117402174	2
7	185	372.134798287112	0
7	191	382.649908763891	0
7	194	398.482874314802	0
7	206	452.623286576907	0
7	215	469.657341332736	0
7	218	476.563346583834	0
7	224	489.543105686646	0
7	239	526.025624377519	0
7	248	547.180414422943	11.383987354959
7	266	626.393968682192	0
7	281	651.044778106652	0
7	290	661.777023052422	0
7	303	690.96085688104	6.652778351184
7	316	708.194431253089	0
7	334	748.671751164673	0
7	365	813.013988148062	0
7	376	847.032280305105	0
7	382	858.592490456884	0
7	391	872.018868721431	10.822971944491
7	398	884.394007217616	0
7	413	930.267922505825	0
7	416	937.320210880813	0
7	424	957.348168723608	0
7	452	1033.611678875363	0
7	455	1037.827955137379	0
7	464	1061.467071764612	0
7	467	1076.278973229815	0
7	472	1078.929688054336	2.004655384444
7	479	1158.248829838364	0
7	486	1178.819640661988	17.760782685295
7	489	1180.823526064179	6.860648467426
7	490	1185.041271448851	4.939632730763
7	501	1213.425459178936	0
7	529	1257.017597325605	0
7	533	1260.850513339229	0
7	539	1299.938347884687	0
7	545	1326.453008205057	0
7	554	1347.463605427665	0
7	560	1351.210648716751	0
7	572	1385.198060931911	0
7	575	1403.276454880886	0
7	581	1419.17759583594	0
7	584	1422.002012796862	0
7	596	1436.722330527041	0
7	611	1468.255254431895	0
7	623	1486.728705151374	0
7	641	1524.308443310314	0
7	646	1537.586601774559	9.398072117408
7	649	1539.730095244159	4.383849132177
7	679	1605.218858158374	0
7	707	1681.748549773511	0
7	710	1685.404964690379	0
7	737	1733.116417053337	0
7	740	1745.785983199229	0
7	749	1752.213866902569	4.85357281909
7	754	1762.057885282339	0
7	758	1771.03123094636	0
7	779	1803.268513345241	0
7	786	1824.415402411967	8.573300329631
7	803	1899.469683830687	0
7	806	1905.718304625987	2.249255966695
7	812	1928.78649794723	0
7	820	1941.033560170089	0
7	824	1952.135829052273	0
7	827	1966.495807747824	0
7	842	1988.939479110331	21.065272889831
7	847	1997.115857371336	24.092197652197
7	850	2000.991672397442	26.341607370875
7	855	2013.893545495854	29.382638793208
7	856	2021.831869706039	36.964101760211
7	863	2036.242414708779	45.103207354561
7	864	2039.54574933629	36.863931918993
7	904	2140.25473811134	0
7	917	2164.321371203363	20.446253960975
7	924	2191.926196606313	42.917094064925
7	931	2219.28376001694	65.736510050222
7	932	2224.306203912418	62.221386379436
7	933	2225.584859221683	63.391242074509
7	945	2250.829136781739	0
7	953	2287.03352692923	0
7	974	2332.989143500774	0
7	982	2351.711890123483	0
7	1018	2414.616886915989	0
7	1025	2428.112985906692	0
7	1031	2455.475700995089	0
7	1042	2498.701117402174	35.125337242961
8	186	374.69526890774	22
8	192	393.637474074385	23
8	195	406.669460952691	24
8	209	456.414595025337	25
8	216	475.101016184601	26
8	221	482.015427066362	27
8	225	492.828200983519	28
8	248	547.180414422943	29
8	249	554.844023353151	30
8	269	630.420189437509	31
8	282	654.621418236477	32
8	303	690.96085688104	33
8	304	694.184721856412	34
8	317	714.140103718672	35
8	339	756.570424018601	36
8	366	813.800300276012	37
8	379	856.49196435724	38
8	391	872.018868721431	39
8	392	875.185801507678	40
8	399	886.296885499167	41
8	414	934.481225751202	42
8	417	943.785906322608	43
8	429	967.946428602667	44
8	453	1036.377209779102	45
8	458	1047.692620267021	46
8	465	1075.015819804479	47
8	472	1078.929688054336	48
8	473	1093.013754382629	49
8	486	1178.819640661988	50
8	489	1180.823526064179	51
8	490	1185.041271448851	52
8	491	1193.32264721483	53
8	506	1220.456541024976	54
8	530	1257.817765700945	55
8	534	1261.204414516358	56
8	540	1304.181994013608	57
8	548	1334.164691893565	58
8	555	1348.278673603505	59
8	561	1353.937079580076	60
8	573	1386.442042988922	61
8	576	1403.946986089878	62
8	582	1421.085645185877	63
8	585	1428.234159281913	64
8	603	1441.902463215998	65
8	612	1468.994656177226	66
8	624	1487.375035607579	67
8	646	1537.586601774559	68
8	649	1539.730095244159	69
8	650	1543.014938752961	70
8	680	1605.27145471029	71
8	708	1682.875933363865	72
8	717	1703.717909089985	73
8	738	1733.69065799413	74
8	749	1752.213866902569	75
8	750	1753.046997812711	76
8	755	1763.52490978221	77
8	761	1780.821252234715	78
8	786	1824.415402411967	79
8	787	1828.208328110984	80
8	806	1905.718304625987	81
8	807	1908.711080399328	82
8	813	1929.127741772698	83
8	821	1942.768166385821	84
8	825	1958.089278728532	85
8	842	1988.939479110331	86
8	847	1997.115857371336	87
8	850	2000.991672397442	88
8	855	2013.893545495854	89
8	856	2021.831869706039	90
8	863	2036.242414708779	91
8	864	2039.54574933629	92
8	867	2041.875332419873	93
8	917	2164.321371203363	94
8	924	2191.926196606313	95
8	931	2219.28376001694	96
8	932	2224.306203912418	97
8	933	2225.584859221683	98
8	934	2228.038051522313	99
8	946	2263.816742920078	100
8	958	2293.41054580016	101
8	975	2333.412198020003	102
8	983	2355.501847564487	103
8	1021	2422.393694165192	104
8	1026	2429.935504902422	105
8	1042	2498.701117402174	106
9	186	374.69526890774	2.560470620628
9	192	393.637474074385	10.987565310494
9	195	406.669460952691	8.186586637889
9	209	456.414595025337	3.79130844843
9	216	475.101016184601	5.443674851865
9	221	482.015427066362	5.452080482528
9	225	492.828200983519	3.285095296873
9	248	547.180414422943	21.154790045424
9	249	554.844023353151	19.047596285167
9	269	630.420189437509	4.026220755317
9	282	654.621418236477	3.576640129825
9	303	690.96085688104	29.183833828618
9	304	694.184721856412	9.876643326556
9	317	714.140103718672	5.945672465583
9	339	756.570424018601	7.898672853928
9	366	813.800300276012	0.78631212795
9	379	856.49196435724	9.459684052135
9	391	872.018868721431	13.426378264547
9	392	875.185801507678	13.989904730738
9	399	886.296885499167	1.902878281551
9	414	934.481225751202	4.213303245377
9	417	943.785906322608	6.465695441795
9	429	967.946428602667	10.598259879059
9	453	1036.377209779102	2.765530903739
9	458	1047.692620267021	9.864665129642
9	465	1075.015819804479	13.548748039867
9	472	1078.929688054336	2.650714824521
9	473	1093.013754382629	16.088721712737
9	486	1178.819640661988	20.570810823624
9	489	1180.823526064179	19.764668087486
9	490	1185.041271448851	11.078393852098
9	491	1193.32264721483	13.221008496742
9	506	1220.456541024976	7.03108184604
9	530	1257.817765700945	0.80016837534
9	534	1261.204414516358	0.353901177129
9	540	1304.181994013608	4.243646128921
9	548	1334.164691893565	7.711683688508
9	555	1348.278673603505	0.81506817584
9	561	1353.937079580076	2.726430863325
9	573	1386.442042988922	1.243982057011
9	576	1403.946986089878	0.670531208992
9	582	1421.085645185877	1.908049349937
9	585	1428.234159281913	6.232146485051
9	603	1441.902463215998	5.180132688957
9	612	1468.994656177226	0.739401745331
9	624	1487.375035607579	0.646330456205
9	646	1537.586601774559	13.278158464245
9	649	1539.730095244159	11.541565587008
9	650	1543.014938752961	7.668692640979
9	680	1605.27145471029	0.052596551916
9	708	1682.875933363865	1.127383590354
9	717	1703.717909089985	18.312944399606
9	738	1733.69065799413	0.574240940793
9	749	1752.213866902569	6.42788370334
9	750	1753.046997812711	5.686703729232
9	755	1763.52490978221	1.467024499871
9	761	1780.821252234715	9.790021288355
9	786	1824.415402411967	21.146889066726
9	787	1828.208328110984	12.366226028648
9	806	1905.718304625987	6.2486207953
9	807	1908.711080399328	5.242031740036
9	813	1929.127741772698	0.341243825468
9	821	1942.768166385821	1.734606215732
9	825	1958.089278728532	5.953449676259
9	842	1988.939479110331	22.443671362507
9	847	1997.115857371336	29.241651150836
9	850	2000.991672397442	27.968012678303
9	855	2013.893545495854	39.243480469287
9	856	2021.831869706039	37.320963003393
9	863	2036.242414708779	51.374646762951
9	864	2039.54574933629	48.406541982072
9	867	2041.875332419873	39.193515002576
9	917	2164.321371203363	24.066633092023
9	924	2191.926196606313	48.051079363925
9	931	2219.28376001694	70.274657475552
9	932	2224.306203912418	70.7589539457
9	933	2225.584859221683	63.500041688701
9	934	2228.038051522313	65.844434375139
9	946	2263.816742920078	12.987606138339
9	958	2293.41054580016	6.37701887093
9	975	2333.412198020003	0.423054519229
9	983	2355.501847564487	3.789957441004
9	1021	2422.393694165192	7.776807249203
9	1026	2429.935504902422	1.82251899573
9	1042	2498.701117402174	43.225416407085
10	290	661.777023052422	7
10	316	708.194431253089	8
10	334	748.671751164673	9
10	376	847.032280305105	10
10	382	858.592490456884	11
10	424	957.348168723608	12
10	501	1213.425459178936	13
10	529	1257.017597325605	14
10	679	1605.218858158374	15
10	754	1762.057885282339	16
10	820	1941.033560170089	17
10	904	2140.25473811134	18
10	945	2250.829136781739	19
10	982	2351.711890123483	20
10	1018	2414.616886915989	21
11	1045	2500	0.0952
12	1045	2500	0.0424

