version 2
run experiments_hard_game_mode1-509-20230311-19:41:09-7239
attr configname experiments_hard_game_mode1
attr datetime 20230311-19:41:09
attr experiment experiments_hard_game_mode1
attr inifile omnetpp.ini
attr iterationvars "$0=8, $1=6, $2=0"
attr iterationvarsf 8,6,0-
attr measurement "$0=8, $1=6, $2=0"
attr network Network
attr processid 7239
attr repetition 29
attr replication #29
attr resultdir results
attr runnumber 509
attr seedset 29
param *.boss.arrival_mean 20
param *.boss.service_mean 8
param *.minion.arrival_mean 10
param *.minion.service_mean 6
param *.player.recover_rate_x 0
param **.minion.arrival_distribution 0
param **.minion.service_distribution 0
param **.boss.arrival_distribution 0
param **.boss.service_distribution 0

vector 0 Network.player minion_defeated_stat:vector ETV
attr source signal_minion_defeated
vector 1 Network.player minion_jobs_queue_number_stat:vector ETV
attr source signal_minion_jobs_queue_number
vector 2 Network.player minion_response_time_stat:vector ETV
attr source signal_minion_response_time
vector 3 Network.player minion_waiting_time_stat:vector ETV
attr source signal_minion_waiting_time
vector 4 Network.player boss_jobs_number_stat:vector ETV
attr source signal_boss_jobs_number
vector 5 Network.player boss_jobs_queue_number_stat:vector ETV
attr source signal_boss_jobs_queue_number
vector 6 Network.player minion_recovered_stat:vector ETV
attr source signal_minion_recovered
vector 7 Network.player boss_waiting_time_stat:vector ETV
attr source signal_boss_waiting_time
vector 8 Network.player boss_defeated_stat:vector ETV
attr source signal_boss_defeated
vector 9 Network.player boss_response_time_stat:vector ETV
attr source signal_boss_response_time
vector 10 Network.player minion_jobs_number_stat:vector ETV
attr source signal_minion_jobs_number
vector 11 Network.player minion_throughput:vector ETV
attr source signal_minion_throughput
vector 12 Network.player boss_throughput:vector ETV
attr source signal_boss_throughput
0	136	354.396132150749	25
0	140	371.768312819721	26
0	141	374.801164242469	27
0	152	394.284265031738	28
0	155	410.565313685348	29
0	156	411.546732520588	30
0	157	412.335181370366	31
0	158	420.221710332791	32
0	173	458.890338853325	33
0	176	468.397068449227	34
0	177	479.379827801992	35
0	178	481.365482808489	36
0	179	489.307876663787	37
0	180	494.566606865138	38
0	185	500.113096223554	39
0	186	500.34930491264	40
0	187	500.515961463449	41
0	188	511.787932423225	42
0	189	511.972589032705	43
0	190	512.781718264433	44
0	191	512.91432020279	45
0	192	518.649029519514	46
0	204	550.897536424292	47
0	207	563.807373336373	48
0	210	572.725936614849	49
0	238	640.560929045593	50
0	239	640.976341177484	51
0	242	641.658509138177	52
0	253	672.372286843251	53
0	261	689.760747356746	54
0	264	699.037287902323	55
0	265	705.213085924089	56
0	270	713.077458301499	57
0	273	719.904641254819	58
0	280	750.353042603827	59
0	284	758.833299598785	60
0	285	771.074970542757	61
0	292	785.415776752186	62
0	295	788.008572519341	63
0	298	793.4836948551	64
0	312	806.184635051978	65
0	313	806.41669836799	66
0	316	813.113977425598	67
0	320	836.804607520406	68
0	325	845.1879064365	69
0	326	845.59551313456	70
0	327	846.239143854986	71
0	328	848.41964533035	72
0	329	848.618516577296	73
0	330	849.971429806747	74
0	331	850.773020611119	75
0	338	859.154188943596	76
0	345	871.538358240917	77
0	356	894.811264484032	78
0	357	895.176497385674	79
0	358	896.159820924565	80
0	379	915.933551585994	81
0	380	916.957748068891	82
0	381	917.780150934287	83
0	387	936.783131961154	84
0	388	943.006872240596	85
0	403	974.325497382864	86
0	404	974.765883599289	87
0	407	981.385249669776	88
0	408	984.800189456942	89
0	409	985.009654519217	90
0	412	992.114135281474	91
0	413	992.534066847126	92
0	418	1002.787126350797	93
0	431	1027.488977501972	94
0	443	1061.703027028493	95
0	444	1062.880817455944	96
0	449	1069.088189221853	97
0	450	1076.242977799781	98
0	455	1085.542949789004	99
0	458	1094.460911431319	100
0	459	1104.20947514864	101
0	460	1108.371447392415	102
0	467	1114.569864485782	103
0	472	1122.396188074444	104
0	498	1187.549665822372	105
0	501	1195.106760669214	106
0	502	1196.930672541809	107
0	503	1198.176918513796	108
0	504	1217.840907968897	109
0	505	1223.50385971213	110
0	506	1223.960635607723	111
0	512	1235.340247281431	112
0	513	1236.781034745916	113
0	514	1238.881467653891	114
0	528	1271.417390912885	115
0	529	1276.061288833809	116
0	581	1395.840659103238	117
0	585	1405.19671672106	118
0	586	1408.577098868603	119
0	587	1410.171605677613	120
0	588	1410.605782732958	121
0	589	1411.71045738616	122
0	590	1417.393502238087	123
0	593	1424.455223449129	124
0	594	1430.912560108045	125
0	599	1435.702980243242	126
0	602	1444.142191675324	127
0	612	1470.774809921739	128
0	617	1496.324147077071	129
0	618	1504.756204927004	130
0	619	1513.429283594299	131
0	620	1517.462263942288	132
0	621	1519.374409930306	133
0	624	1528.484117118453	134
0	625	1530.494449340315	135
0	626	1533.718542400013	136
0	634	1568.360646435735	137
0	635	1569.085406503769	138
0	640	1574.671749023581	139
0	641	1576.832870148632	140
0	654	1603.741205691224	141
0	671	1646.687575123573	142
0	672	1647.630746010612	143
0	675	1651.078954819536	144
0	679	1657.809511016369	145
0	680	1659.64584902246	146
0	688	1667.473681268492	147
0	695	1690.205270862655	148
0	698	1700.361303556236	149
0	699	1700.375609504867	150
0	700	1703.570906577309	151
0	701	1709.961076887944	152
0	702	1713.017345071327	153
0	703	1714.58773742012	154
0	706	1724.701113186764	155
0	707	1728.013279776351	156
0	710	1728.661216389334	157
0	722	1745.180491427903	158
0	723	1746.882984924225	159
0	735	1772.946030779798	160
0	736	1780.346003509089	161
0	739	1789.969827724253	162
0	740	1790.235451916126	163
0	741	1795.944683091455	164
0	751	1808.298878967581	165
0	754	1810.656299265913	166
0	755	1816.963014600521	167
0	763	1833.675458292113	168
0	766	1842.568761976886	169
0	767	1842.700333989118	170
0	771	1847.742099892292	171
0	778	1865.957429063224	172
0	799	1908.564352131452	173
0	802	1913.391536604763	174
0	807	1922.968246221219	175
0	810	1928.148319287949	176
0	813	1937.518486025398	177
0	814	1945.443311815439	178
0	834	2004.260937706965	179
0	835	2004.897146548756	180
0	836	2005.778047594013	181
0	846	2031.726045483111	182
0	849	2035.60614098918	183
0	850	2036.578792983438	184
0	860	2051.39314326074	185
0	871	2097.961365800373	186
0	874	2105.02312564186	187
0	875	2105.083579620637	188
0	876	2109.20550477505	189
0	879	2113.756391033216	190
0	882	2119.575798101356	191
0	890	2144.001641658331	192
0	908	2181.078403103614	193
0	912	2190.485504363869	194
0	913	2191.452053465954	195
0	914	2192.589318510804	196
0	915	2193.886172727793	197
0	916	2202.012896569662	198
0	922	2210.231403553146	199
0	923	2212.715102097353	200
0	945	2251.828133529119	201
0	946	2255.877279444601	202
0	947	2258.200194135648	203
0	948	2260.21116467754	204
0	962	2284.538697028523	205
0	987	2318.537993617281	206
0	988	2318.863535875634	207
0	1007	2366.62864271817	208
0	1008	2367.045155709933	209
0	1012	2374.665141341177	210
0	1013	2385.489060694289	211
0	1014	2386.543218756193	212
0	1015	2387.459458701324	213
0	1016	2391.409253467561	214
0	1019	2400.206863747915	215
0	1020	2401.299874818081	216
0	1021	2401.342994321521	217
0	1022	2407.649710811135	218
0	1025	2412.334551562649	219
0	1030	2419.210191187924	220
0	1033	2420.633659985225	221
0	1034	2425.423717478943	222
0	1035	2429.20632320642	223
0	1036	2430.269800714856	224
0	1037	2431.691364372709	225
0	1038	2431.866032652285	226
0	1048	2448.1852116894	227
0	1049	2455.053601072978	228
0	1053	2459.95027213241	229
0	1060	2471.696622674155	230
0	1061	2473.165291428121	231
0	1062	2487.684040813986	232
0	1063	2488.191761104108	233
1	136	354.396132150749	11
1	140	371.768312819721	10
1	141	374.801164242469	9
1	147	379.608095313354	9
1	150	385.157042033546	10
1	152	394.284265031738	10
1	154	399.228233649482	10
1	155	410.565313685348	10
1	156	411.546732520588	9
1	157	412.335181370366	8
1	158	420.221710332791	7
1	162	426.29441775287	7
1	166	443.660282730514	8
1	168	448.882770349587	9
1	171	458.137377426833	10
1	173	458.890338853325	10
1	175	465.826518938555	10
1	176	468.397068449227	10
1	177	479.379827801992	9
1	178	481.365482808489	8
1	179	489.307876663787	7
1	180	494.566606865138	6
1	182	494.833255579592	6
1	184	499.822669747212	7
1	185	500.113096223554	7
1	186	500.34930491264	6
1	187	500.515961463449	5
1	188	511.787932423225	4
1	189	511.972589032705	3
1	190	512.781718264433	2
1	191	512.91432020279	1
1	192	518.649029519514	0
1	200	545.209727119979	0
1	204	550.897536424292	0
1	206	556.326563719439	0
1	207	563.807373336373	0
1	209	572.24175660314	0
1	210	572.725936614849	0
1	212	575.863779244195	0
1	214	577.881832968284	1
1	223	618.606462312563	2
1	225	621.290089637664	3
1	228	624.589581645086	4
1	230	627.159808616859	5
1	233	636.156734196456	6
1	235	638.695588633048	7
1	237	639.503912377234	8
1	238	640.560929045593	8
1	239	640.976341177484	7
1	241	641.651605112762	7
1	242	641.658509138177	7
1	244	648.446565023337	7
1	248	656.54974981075	8
1	253	672.372286843251	8
1	255	679.39638457525	8
1	259	682.973119520857	9
1	261	689.760747356746	9
1	263	694.937514966378	9
1	264	699.037287902323	9
1	265	705.213085924089	8
1	267	709.632194269071	8
1	269	711.758812941697	9
1	270	713.077458301499	9
1	272	714.745063282436	9
1	273	719.904641254819	9
1	280	750.353042603827	8
1	284	758.833299598785	7
1	285	771.074970542757	6
1	287	780.526003935068	6
1	289	782.044152913347	7
1	291	785.118702325468	8
1	292	785.415776752186	8
1	294	786.82893246052	8
1	295	788.008572519341	8
1	297	792.211735403243	8
1	298	793.4836948551	8
1	300	794.650893746256	8
1	302	796.164645718989	9
1	304	797.919207288304	10
1	309	800.659176556938	11
1	311	802.145561068497	12
1	312	806.184635051978	12
1	313	806.41669836799	11
1	315	811.00518497882	11
1	316	813.113977425598	11
1	320	836.804607520406	10
1	322	837.601350145641	10
1	324	842.808892412795	11
1	325	845.1879064365	11
1	326	845.59551313456	10
1	327	846.239143854986	9
1	328	848.41964533035	8
1	329	848.618516577296	7
1	330	849.971429806747	6
1	331	850.773020611119	5
1	333	850.859225738186	5
1	335	852.072682488855	6
1	337	856.159958446072	7
1	338	859.154188943596	7
1	345	871.538358240917	6
1	351	877.773073587536	6
1	355	893.64717916577	7
1	356	894.811264484032	7
1	357	895.176497385674	6
1	358	896.159820924565	5
1	362	896.443773630609	5
1	364	899.605850019362	6
1	369	906.490154822813	7
1	371	908.845874933179	8
1	373	909.068777480588	9
1	376	910.906698195825	10
1	378	913.501120803603	11
1	379	915.933551585994	11
1	380	916.957748068891	10
1	381	917.780150934287	9
1	383	923.456570972861	9
1	387	936.783131961154	9
1	388	943.006872240596	8
1	395	953.896826670245	8
1	397	955.784633106749	9
1	400	959.402928374506	10
1	402	967.655498130466	11
1	403	974.325497382864	11
1	404	974.765883599289	10
1	406	977.727526974586	10
1	407	981.385249669776	10
1	408	984.800189456942	9
1	409	985.009654519217	8
1	411	986.483345419537	8
1	412	992.114135281474	8
1	413	992.534066847126	7
1	415	992.65484243738	7
1	417	1000.462186581842	8
1	418	1002.787126350797	8
1	420	1006.176726943197	8
1	427	1017.427407056631	9
1	430	1023.333185885289	10
1	431	1027.488977501972	10
1	433	1035.575057615901	10
1	435	1036.397542892707	11
1	439	1042.071307097477	12
1	442	1053.311955600887	13
1	443	1061.703027028493	13
1	444	1062.880817455944	12
1	446	1068.628170045546	12
1	448	1068.7372523909	13
1	449	1069.088189221853	13
1	450	1076.242977799781	12
1	452	1076.558449330755	12
1	454	1085.269920578633	13
1	455	1085.542949789004	13
1	457	1090.503816550838	13
1	458	1094.460911431319	13
1	459	1104.20947514864	12
1	460	1108.371447392415	11
1	462	1108.756096424927	11
1	464	1109.014040151767	12
1	466	1111.825117276107	13
1	467	1114.569864485782	13
1	469	1117.188075728243	13
1	471	1118.573341036805	14
1	472	1122.396188074444	14
1	476	1130.12602680693	14
1	483	1145.944497366466	15
1	498	1187.549665822372	15
1	500	1191.074306916834	15
1	501	1195.106760669214	15
1	502	1196.930672541809	14
1	503	1198.176918513796	13
1	504	1217.840907968897	12
1	505	1223.50385971213	11
1	506	1223.960635607723	10
1	508	1224.317871195993	10
1	512	1235.340247281431	10
1	513	1236.781034745916	9
1	514	1238.881467653891	8
1	516	1239.415299962359	8
1	518	1241.319226478284	9
1	520	1246.698348383056	10
1	522	1249.075240055608	11
1	526	1262.228682128353	12
1	528	1271.417390912885	12
1	529	1276.061288833809	11
1	533	1281.456586332296	11
1	537	1285.868618464094	12
1	539	1287.995910071284	13
1	541	1290.105014442061	14
1	549	1297.064115025479	15
1	555	1309.251003332188	16
1	559	1322.970381474386	17
1	561	1327.054292896169	18
1	564	1337.426373481282	19
1	567	1339.570652825673	20
1	573	1353.57388117284	21
1	575	1354.516585092584	22
1	581	1395.840659103238	22
1	585	1405.19671672106	21
1	586	1408.577098868603	20
1	587	1410.171605677613	19
1	588	1410.605782732958	18
1	589	1411.71045738616	17
1	590	1417.393502238087	16
1	592	1421.845319537203	16
1	593	1424.455223449129	16
1	594	1430.912560108045	15
1	596	1433.077455864582	15
1	598	1434.570566934513	16
1	599	1435.702980243242	16
1	601	1436.700873309931	16
1	602	1444.142191675324	16
1	604	1444.299171092421	16
1	608	1451.583659890725	17
1	611	1462.140670769399	18
1	612	1470.774809921739	18
1	614	1486.551119297569	18
1	616	1496.223907441521	19
1	617	1496.324147077071	19
1	618	1504.756204927004	18
1	619	1513.429283594299	17
1	620	1517.462263942288	16
1	621	1519.374409930306	15
1	623	1523.68482419876	15
1	624	1528.484117118453	15
1	625	1530.494449340315	14
1	626	1533.718542400013	13
1	628	1535.830083928314	13
1	632	1552.15528015073	14
1	634	1568.360646435735	14
1	635	1569.085406503769	13
1	637	1569.113611818043	13
1	639	1574.59712260323	14
1	640	1574.671749023581	14
1	641	1576.832870148632	13
1	643	1577.783622414697	13
1	649	1588.000980001104	14
1	652	1592.596152355802	15
1	654	1603.741205691224	15
1	666	1636.55918818209	15
1	669	1640.641096239258	16
1	671	1646.687575123573	16
1	672	1647.630746010612	15
1	674	1650.918419052956	15
1	675	1651.078954819536	15
1	679	1657.809511016369	14
1	680	1659.64584902246	13
1	684	1663.785704815084	13
1	687	1667.004304150596	14
1	688	1667.473681268492	14
1	690	1674.644996918479	14
1	692	1675.406868188611	15
1	694	1683.621375205935	16
1	695	1690.205270862655	16
1	697	1691.870758945599	16
1	698	1700.361303556236	16
1	699	1700.375609504867	15
1	700	1703.570906577309	14
1	701	1709.961076887944	13
1	702	1713.017345071327	12
1	703	1714.58773742012	11
1	705	1720.321633944097	11
1	706	1724.701113186764	11
1	707	1728.013279776351	10
1	709	1728.242047121611	10
1	710	1728.661216389334	10
1	712	1733.304477625183	10
1	716	1736.123190533158	11
1	718	1736.909763431248	12
1	721	1745.044126709653	13
1	722	1745.180491427903	13
1	723	1746.882984924225	12
1	725	1748.564229081137	12
1	727	1749.269661046032	13
1	731	1753.344411509976	14
1	734	1768.415993221564	15
1	735	1772.946030779798	15
1	736	1780.346003509089	14
1	738	1784.209010264732	14
1	739	1789.969827724253	14
1	740	1790.235451916126	13
1	741	1795.944683091455	12
1	745	1800.178677377241	12
1	747	1800.95833616599	13
1	750	1802.963572909128	14
1	751	1808.298878967581	14
1	753	1808.674857293738	14
1	754	1810.656299265913	14
1	755	1816.963014600521	13
1	760	1823.070351810148	13
1	762	1823.916015992079	14
1	763	1833.675458292113	14
1	765	1834.242923632817	14
1	766	1842.568761976886	14
1	767	1842.700333989118	13
1	771	1847.742099892292	12
1	778	1865.957429063224	11
1	788	1884.674211425783	11
1	793	1897.934943306775	12
1	795	1899.021409378431	13
1	798	1908.271706007079	14
1	799	1908.564352131452	14
1	801	1911.895429355032	14
1	802	1913.391536604763	14
1	804	1914.724388814061	14
1	806	1919.490991222787	15
1	807	1922.968246221219	15
1	809	1923.241762418407	15
1	810	1928.148319287949	15
1	812	1936.92438258832	15
1	813	1937.518486025398	15
1	814	1945.443311815439	14
1	820	1961.501522926047	14
1	823	1965.216661545734	15
1	825	1976.143259682891	16
1	827	1977.106085114153	17
1	833	2002.049166686635	18
1	834	2004.260937706965	18
1	835	2004.897146548756	17
1	836	2005.778047594013	16
1	841	2014.824804974099	16
1	843	2026.435831902888	17
1	845	2026.746619278247	18
1	846	2031.726045483111	18
1	848	2034.2767880203	18
1	849	2035.60614098918	18
1	850	2036.578792983438	17
1	854	2040.832134308452	17
1	856	2041.731501973777	18
1	859	2044.394175563752	19
1	860	2051.39314326074	19
1	862	2057.540071414153	19
1	866	2064.678649429053	20
1	871	2097.961365800373	20
1	873	2100.643440090761	20
1	874	2105.02312564186	20
1	875	2105.083579620637	19
1	876	2109.20550477505	18
1	878	2109.735389103771	18
1	879	2113.756391033216	18
1	881	2114.55518655679	18
1	882	2119.575798101356	18
1	884	2119.70008837266	18
1	889	2141.252353958549	19
1	890	2144.001641658331	19
1	892	2145.214967111336	19
1	894	2156.225819555676	20
1	898	2162.801836191714	21
1	906	2176.399567796595	22
1	908	2181.078403103614	22
1	912	2190.485504363869	21
1	913	2191.452053465954	20
1	914	2192.589318510804	19
1	915	2193.886172727793	18
1	916	2202.012896569662	17
1	918	2206.400218154673	17
1	922	2210.231403553146	17
1	923	2212.715102097353	16
1	925	2212.910426022293	16
1	935	2223.822523938987	17
1	937	2229.518382743654	18
1	939	2237.356526885323	19
1	941	2242.16939733723	20
1	944	2249.811830180648	21
1	945	2251.828133529119	21
1	946	2255.877279444601	20
1	947	2258.200194135648	19
1	948	2260.21116467754	18
1	950	2260.677147560681	18
1	956	2276.381357349022	19
1	962	2284.538697028523	19
1	969	2299.593657816942	19
1	973	2305.917559909468	20
1	977	2308.049972561187	21
1	979	2311.300208667409	22
1	981	2311.517313327987	23
1	986	2317.103988873237	24
1	987	2318.537993617281	24
1	988	2318.863535875634	23
1	990	2321.252529477898	23
1	992	2324.894460081239	24
1	1005	2345.158710441866	25
1	1007	2366.62864271817	25
1	1008	2367.045155709933	24
1	1012	2374.665141341177	23
1	1013	2385.489060694289	22
1	1014	2386.543218756193	21
1	1015	2387.459458701324	20
1	1016	2391.409253467561	19
1	1018	2393.48451685585	19
1	1019	2400.206863747915	19
1	1020	2401.299874818081	18
1	1021	2401.342994321521	17
1	1022	2407.649710811135	16
1	1024	2409.027012630994	16
1	1025	2412.334551562649	16
1	1027	2414.534346640401	16
1	1029	2418.902692042539	17
1	1030	2419.210191187924	17
1	1032	2419.493416931437	17
1	1033	2420.633659985225	17
1	1034	2425.423717478943	16
1	1035	2429.20632320642	15
1	1036	2430.269800714856	14
1	1037	2431.691364372709	13
1	1038	2431.866032652285	12
1	1040	2432.165685310105	12
1	1044	2437.386547876681	13
1	1046	2439.315187646736	14
1	1048	2448.1852116894	14
1	1049	2455.053601072978	13
1	1053	2459.95027213241	12
1	1055	2461.210077954654	12
1	1057	2463.600744450632	13
1	1059	2464.886615128397	14
1	1060	2471.696622674155	14
1	1061	2473.165291428121	13
1	1062	2487.684040813986	12
1	1063	2488.191761104108	11
2	136	354.396132150749	67.647180788695
2	140	371.768312819721	79.515226425077
2	141	374.801164242469	70.512004587031
2	152	394.284265031738	84.775188138703
2	155	410.565313685348	97.327934453837
2	156	411.546732520588	97.69357534012
2	157	412.335181370366	90.02966553969
2	158	420.221710332791	94.381991285462
2	173	458.890338853325	127.37664138768
2	176	468.397068449227	107.37524290006
2	177	479.379827801992	101.38916198142
2	178	481.365482808489	101.75738749513
2	179	489.307876663787	104.15083463024
2	180	494.566606865138	95.338373215656
2	185	500.113096223554	78.103453362635
2	186	500.34930491264	74.05488715977
2	187	500.515961463449	56.855678732935
2	188	511.787932423225	62.905162073638
2	189	511.972589032705	53.835211605872
2	190	512.781718264433	46.955199325878
2	191	512.91432020279	18.081064623198
2	192	518.649029519514	18.826359772302
2	204	550.897536424292	5.524411339307
2	207	563.807373336373	7.480809616934
2	210	572.725936614849	0.484180011709
2	238	640.560929045593	62.679096077309
2	239	640.976341177484	51.620251743224
2	242	641.658509138177	23.052046825614
2	253	672.372286843251	47.782705198165
2	261	689.760747356746	53.60401316029
2	264	699.037287902323	60.341699269275
2	265	705.213085924089	65.709173546855
2	270	713.077458301499	71.425853188737
2	273	719.904641254819	71.458076231482
2	280	750.353042603827	70.956658028577
2	284	758.833299598785	75.860180077928
2	285	771.074970542757	76.137455576379
2	292	785.415776752186	75.783582483115
2	295	788.008572519341	76.249759577644
2	298	793.4836948551	78.738631572664
2	312	806.184635051978	63.815645834219
2	313	806.41669836799	55.304769601659
2	316	813.113977425598	32.58797349053
2	320	836.804607520406	51.685905194938
2	325	845.1879064365	58.35897397598
2	326	845.59551313456	53.383777731317
2	327	846.239143854986	51.58825010873
2	328	848.41964533035	52.254999611361
2	329	848.618516577296	50.699309288992
2	330	849.971429806747	50.338569797595
2	331	850.773020611119	50.113844054181
2	338	859.154188943596	57.008627875099
2	345	871.538358240917	56.684864530236
2	356	894.811264484032	52.002372071237
2	357	895.176497385674	44.317271647488
2	358	896.159820924565	44.08713843571
2	379	915.933551585994	55.826187488179
2	380	916.957748068891	43.725584101516
2	381	917.780150934287	40.007077346751
2	387	936.783131961154	40.492722336524
2	388	943.006872240596	46.563098609987
2	403	974.325497382864	67.835342560051
2	404	974.765883599289	65.92000866611
2	407	981.385249669776	72.316472189188
2	408	984.800189456942	73.893491261117
2	409	985.009654519217	71.508533715614
2	412	992.114135281474	68.657564308613
2	413	992.534066847126	68.043731093001
2	418	1002.787126350797	58.351034051873
2	431	1027.488977501972	68.086049127466
2	443	1061.703027028493	83.975500053907
2	444	1062.880817455944	76.397472036407
2	449	1069.088189221853	76.433346784473
2	450	1076.242977799781	75.780791217939
2	455	1085.542949789004	79.366222845807
2	458	1094.460911431319	82.688923010949
2	459	1104.20947514864	91.696828772734
2	460	1108.371447392415	90.944040335784
2	467	1114.569864485782	91.236678600493
2	472	1122.396188074444	86.821130458543
2	498	1187.549665822372	149.17854651663
2	501	1195.106760669214	153.03545357174
2	502	1196.930672541809	143.61871694092
2	503	1198.176918513796	129.54874846825
2	504	1217.840907968897	149.103655578
2	505	1223.50385971213	146.94541038137
2	506	1223.960635607723	138.69071502909
2	512	1235.340247281431	126.5841508565
2	513	1236.781034745916	127.76699459415
2	514	1238.881467653891	127.05635037778
2	528	1271.417390912885	152.84404987608
2	529	1276.061288833809	151.3741398382
2	581	1395.840659103238	204.7663521864
2	585	1405.19671672106	174.83687800906
2	586	1408.577098868603	169.16179890624
2	587	1410.171605677613	168.85237919933
2	588	1410.605782732958	163.9074343499
2	589	1411.71045738616	162.63521733055
2	590	1417.393502238087	159.63221483269
2	593	1424.455223449129	162.22654132078
2	594	1430.912560108045	153.7732365456
2	599	1435.702980243242	154.24639391095
2	602	1444.142191675324	158.27357321123
2	612	1470.774809921739	180.66979547968
2	617	1496.324147077071	199.26003205159
2	618	1504.756204927004	195.50520159482
2	619	1513.429283594299	190.45890211991
2	620	1517.462263942288	190.40797104612
2	621	1519.374409930306	181.94803644902
2	624	1528.484117118453	188.91346429278
2	625	1530.494449340315	176.92056816747
2	626	1533.718542400013	179.20195730743
2	634	1568.360646435735	168.26100727757
2	635	1569.085406503769	147.24008696657
2	640	1574.671749023581	141.594293159
2	641	1576.832870148632	142.26230321412
2	654	1603.741205691224	159.4420345988
2	671	1646.687575123573	184.54690435417
2	672	1647.630746010612	161.07962671304
2	675	1651.078954819536	154.85504737802
2	679	1657.809511016369	121.97942708806
2	680	1659.64584902246	119.5808065756
2	688	1667.473681268492	98.360069450449
2	695	1690.205270862655	115.60814825942
2	698	1700.361303556236	122.57768114154
2	699	1700.375609504867	117.04972557932
2	700	1703.570906577309	115.5699265762
2	701	1709.961076887944	117.36492453214
2	702	1713.017345071327	99.391155322836
2	703	1714.58773742012	85.599152470241
2	706	1724.701113186764	88.141925004674
2	707	1728.013279776351	87.372183537093
2	710	1728.661216389334	77.742797336378
2	722	1745.180491427903	81.654593651059
2	723	1746.882984924225	83.097280109141
2	735	1772.946030779798	98.301033861319
2	736	1780.346003509089	104.93913532048
2	739	1789.969827724253	106.34845251832
2	740	1790.235451916126	98.364692970527
2	741	1795.944683091455	75.623049147358
2	751	1808.298878967581	74.994401342398
2	754	1810.656299265913	76.579058737107
2	755	1816.963014600521	80.839824067363
2	763	1833.675458292113	88.63133158246
2	766	1842.568761976886	94.004532895749
2	767	1842.700333989118	93.430672943086
2	771	1847.742099892292	94.397688382316
2	778	1865.957429063224	66.551505661284
2	799	1908.564352131452	105.60077922232
2	802	1913.391536604763	104.71667931103
2	807	1922.968246221219	104.47337936572
2	810	1928.148319287949	105.0779674778
2	813	1937.518486025398	113.60247003332
2	814	1945.443311815439	111.20038818262
2	834	2004.260937706965	147.09098646825
2	835	2004.897146548756	139.63405595137
2	836	2005.778047594013	134.88576497264
2	846	2031.726045483111	137.15127701883
2	849	2035.60614098918	137.6711976824
2	850	2036.578792983438	137.55738360501
2	860	2051.39314326074	139.49771390571
2	871	2097.961365800373	174.71960338197
2	874	2105.02312564186	168.09874305354
2	875	2105.083579620637	148.81370839273
2	876	2109.20550477505	147.703981849
2	879	2113.756391033216	148.53972948748
2	882	2119.575798101356	143.43253841846
2	890	2144.001641658331	141.9524749717
2	908	2181.078403103614	166.25359812951
2	912	2190.485504363869	163.73888508562
2	913	2191.452053465954	157.17526544565
2	914	2192.589318510804	152.25217064623
2	915	2193.886172727793	153.05403841934
2	916	2202.012896569662	160.28139459588
2	922	2210.231403553146	152.69133213899
2	923	2212.715102097353	151.95312239436
2	945	2251.828133529119	151.18469343836
2	946	2255.877279444601	146.14189034083
2	947	2258.200194135648	143.64500757886
2	948	2260.21116467754	140.51107630488
2	962	2284.538697028523	143.28634306997
2	987	2318.537993617281	156.75717546277
2	988	2318.863535875634	156.06169968392
2	1007	2366.62864271817	182.15952469631
2	1008	2367.045155709933	160.64493755526
2	1012	2374.665141341177	161.75471531888
2	1013	2385.489060694289	172.21472272104
2	1014	2386.543218756193	165.40538044142
2	1015	2387.459458701324	163.63693476234
2	1016	2391.409253467561	161.89087072391
2	1019	2400.206863747915	162.85033686259
2	1020	2401.299874818081	159.13047748085
2	1021	2401.342994321521	151.53116414087
2	1022	2407.649710811135	146.97256325045
2	1025	2412.334551562649	140.18638849242
2	1030	2419.210191187924	142.8288338389
2	1033	2420.633659985225	135.44000548159
2	1034	2425.423717478943	128.71687497641
2	1035	2429.20632320642	129.61266538948
2	1036	2430.269800714856	124.35224080539
2	1037	2431.691364372709	123.64139181152
2	1038	2431.866032652285	120.56582398488
2	1048	2448.1852116894	131.08122281616
2	1049	2455.053601072978	133.80107159508
2	1053	2459.95027213241	131.05488651205
2	1060	2471.696622674155	126.53791223229
2	1061	2473.165291428121	105.9099361725
2	1062	2487.684040813986	94.199523958136
2	1063	2488.191761104108	79.164748473114
3	136	354.396132150749	62.385885616148
3	139	363.588817060869	71.335730666225
3	140	371.768312819721	67.479153164283
3	141	374.801164242469	65.447172261698
3	151	386.497959610302	76.988882717267
3	152	394.284265031738	81.046885800227
3	155	410.565313685348	96.71215650488
3	156	411.546732520588	89.241216689912
3	157	412.335181370366	86.495462323037
3	158	420.221710332791	89.569218518434
3	172	458.503773635122	126.99007616948
3	173	458.890338853325	97.868513304161
3	176	468.397068449227	90.406402628655
3	177	479.379827801992	99.771732488638
3	178	481.365482808489	96.208440774943
3	179	489.307876663787	90.079643014305
3	180	494.566606865138	72.556964004219
3	185	500.113096223554	73.818678470684
3	186	500.34930491264	56.689022182126
3	187	500.515961463449	51.633191113862
3	188	511.787932423225	53.650554996392
3	189	511.972589032705	46.14607009415
3	190	512.781718264433	17.948462684841
3	191	512.91432020279	13.091650455578
3	200	545.209727119979	0
3	203	546.414892047934	1.041766962949
3	206	556.326563719439	0
3	209	572.24175660314	0
3	212	575.863779244195	0
3	231	627.492450251468	49.610617283184
3	238	640.560929045593	51.204839611333
3	239	640.976341177484	22.369878864921
3	242	641.658509138177	20.368419500513
3	252	671.673065649217	47.083484004131
3	253	672.372286843251	45.212478226392
3	260	685.889221288101	49.732487091645
3	261	689.760747356746	51.065158723698
3	264	699.037287902323	59.533375525089
3	265	705.213085924089	63.561480811327
3	270	713.077458301499	64.630893278162
3	273	719.904641254819	67.242506253708
3	276	723.978935460822	67.429185650072
3	279	745.543540798157	66.147156222907
3	280	750.353042603827	68.364820520813
3	283	754.566228318417	71.59310879756
3	284	758.833299598785	63.895784632407
3	285	771.074970542757	61.442776273686
3	292	785.415776752186	73.656963810489
3	295	788.008572519341	73.263509236905
3	298	793.4836948551	70.873983737884
3	307	799.987350044076	57.618360826317
3	312	806.184635051978	55.072706285647
3	313	806.41669836799	25.890694432922
3	316	813.113977425598	31.069824512251
3	319	831.825612038687	46.706909713219
3	320	836.804607520406	49.975675059886
3	325	845.1879064365	52.976171033257
3	326	845.59551313456	50.944619388304
3	327	846.239143854986	50.074498135997
3	328	848.41964533035	50.500438042046
3	329	848.618516577296	48.985656568144
3	330	849.971429806747	49.312253249809
3	331	850.773020611119	48.627459542622
3	338	859.154188943596	48.149003964776
3	344	868.531369146774	53.677875436093
3	345	871.538358240917	33.937008095276
3	353	890.895947830339	48.087055417544
3	356	894.811264484032	43.952038745846
3	357	895.176497385674	43.103814896819
3	358	896.159820924565	39.999862478493
3	374	910.109962822083	50.002598724268
3	379	915.933551585994	42.701387618619
3	380	916.957748068891	39.184674481355
3	381	917.780150934287	24.132971768517
3	386	934.59088892192	38.30047929729
3	387	936.783131961154	40.339358330545
3	388	943.006872240596	43.401022221234
3	398	959.349101512429	52.858946689616
3	403	974.325497382864	65.479622449685
3	404	974.765883599289	65.697106118701
3	407	981.385249669776	70.478551473951
3	408	984.800189456942	71.299068653339
3	409	985.009654519217	61.553083546356
3	412	992.114135281474	67.623799527349
3	413	992.534066847126	48.097974548202
3	418	1002.787126350797	48.890299680552
3	423	1012.132733169281	56.348100062532
3	428	1019.822431711604	60.419503337098
3	431	1027.488977501972	59.833479371506
3	440	1047.298346903173	69.570819928587
3	443	1061.703027028493	75.219681608956
3	444	1062.880817455944	70.225975018564
3	449	1069.088189221853	68.626002640011
3	450	1076.242977799781	70.066250856584
3	455	1085.542949789004	73.770961368634
3	458	1094.460911431319	81.948265055413
3	459	1104.20947514864	86.782068092009
3	460	1108.371447392415	85.038261507126
3	467	1114.569864485782	78.994806869881
3	472	1122.396188074444	85.998645181737
3	497	1187.000031971644	148.6289126659
3	498	1187.549665822372	145.4783587249
3	501	1195.106760669214	141.79480506833
3	502	1196.930672541809	128.30250249626
3	503	1198.176918513796	129.4396661229
3	504	1217.840907968897	141.28245863814
3	505	1223.50385971213	138.2339391335
3	506	1223.960635607723	133.45681905688
3	511	1231.596666164946	122.84056974002
3	512	1235.340247281431	126.32620712966
3	513	1236.781034745916	124.95591746981
3	514	1238.881467653891	121.69339192565
3	527	1264.675095926737	146.10175488993
3	528	1271.417390912885	146.73024191728
3	529	1276.061288833809	145.93526202688
3	577	1388.397259489753	242.45276212329
3	580	1390.965747639673	199.89144072284
3	581	1395.840659103238	171.52278790725
3	584	1402.797014242373	172.43717553037
3	585	1405.19671672106	165.7814167587
3	586	1408.577098868603	167.25787239032
3	587	1410.171605677613	163.47325729456
3	588	1410.605782732958	161.53054267735
3	589	1411.71045738616	153.94916998076
3	590	1417.393502238087	155.16482010973
3	593	1424.455223449129	147.31589988668
3	594	1430.912560108045	149.45597377575
3	599	1435.702980243242	149.83436177915
3	602	1444.142191675324	156.14628160404
3	609	1461.202746427628	171.09773198557
3	612	1470.774809921739	173.71069489626
3	617	1496.324147077071	187.07314374488
3	618	1504.756204927004	181.78582345262
3	619	1513.429283594299	186.37499069813
3	620	1517.462263942288	180.03589046101
3	621	1519.374409930306	179.80375710463
3	624	1528.484117118453	174.91023594561
3	625	1530.494449340315	175.97786424773
3	626	1533.718542400013	144.93251330913
3	633	1563.549884649587	163.45024549142
3	634	1568.360646435735	146.51532689853
3	635	1569.085406503769	136.00795063919
3	640	1574.671749023581	140.10118208907
3	641	1576.832870148632	140.1319968387
3	653	1602.639512197443	158.34034110502
3	654	1603.741205691224	155.27224586578
3	660	1622.728065385654	171.14440549493
3	670	1643.115934157185	180.97526338779
3	671	1646.687575123573	160.136455826
3	672	1647.630746010612	151.40683856909
3	675	1651.078954819536	127.39413062078
3	678	1656.284239471402	120.45415554309
3	679	1657.809511016369	117.74446856951
3	680	1659.64584902246	107.49056887173
3	685	1666.438616103107	97.325004285064
3	688	1667.473681268492	92.876558665262
3	695	1690.205270862655	112.42164844796
3	698	1700.361303556236	117.03541963069
3	699	1700.375609504867	112.37462950376
3	700	1703.570906577309	110.97475422151
3	701	1709.961076887944	96.334887139453
3	702	1713.017345071327	84.028760121448
3	703	1714.58773742012	78.02854923803
3	706	1724.701113186764	84.060016947506
3	707	1728.013279776351	77.094860723395
3	710	1728.661216389334	74.436122561229
3	719	1745.040351665626	81.514453888782
3	722	1745.180491427903	81.394786612819
3	723	1746.882984924225	79.878680773629
3	732	1761.112252701689	86.46725578321
3	735	1772.946030779798	97.539162591187
3	736	1780.346003509089	96.724628303154
3	739	1789.969827724253	98.099068778654
3	740	1790.235451916126	69.913817972029
3	741	1795.944683091455	67.702635969844
3	748	1802.732787767398	69.428310142215
3	751	1808.298878967581	74.221638438775
3	754	1810.656299265913	74.533108732755
3	755	1816.963014600521	80.053251169273
3	758	1819.144928998573	74.10080228892
3	763	1833.675458292113	85.111229210976
3	766	1842.568761976886	93.299100930854
3	767	1842.700333989118	93.26235139469
3	770	1845.298890758437	91.954479248461
3	771	1847.742099892292	79.326106670728
3	774	1862.712373094931	78.503362830199
3	777	1865.769176890318	66.363253488378
3	778	1865.957429063224	65.778751685983
3	789	1889.129314095999	88.170977930009
3	796	1904.095331468819	101.13175855969
3	799	1908.564352131452	99.889494837714
3	802	1913.391536604763	94.896669749261
3	807	1922.968246221219	99.897894411071
3	810	1928.148319287949	104.23230329587
3	813	1937.518486025398	103.27556239258
3	814	1945.443311815439	100.99733452424
3	831	1990.444770614973	133.27481937626
3	834	2004.260937706965	138.99784710958
3	835	2004.897146548756	134.00486392739
3	836	2005.778047594013	121.10383616823
3	839	2013.88936566999	119.31459720571
3	846	2031.726045483111	133.79110217634
3	849	2035.60614098918	136.58473161075
3	850	2036.578792983438	128.30708697636
3	857	2043.710345355206	131.81491600017
3	860	2051.39314326074	136.66875444668
3	867	2070.180220641859	150.68922941907
3	870	2074.736594664219	151.49483224581
3	871	2097.961365800373	161.03698321205
3	874	2105.02312564186	148.75325441396
3	875	2105.083579620637	143.58205669459
3	876	2109.20550477505	143.98884322932
3	879	2113.756391033216	137.61313135033
3	882	2119.575798101356	142.4697129872
3	887	2138.325295438056	136.27612875142
3	890	2144.001641658331	135.30284278398
3	907	2181.046450388196	166.2216454141
3	908	2181.078403103614	154.64257120073
3	911	2189.569081703972	162.82246242573
3	912	2190.485504363869	156.20871634357
3	913	2191.452053465954	151.11490560137
3	914	2192.589318510804	151.75718420235
3	915	2193.886172727793	152.15467075402
3	916	2202.012896569662	157.61872100591
3	921	2208.552536882417	151.01246546826
3	922	2210.231403553146	149.46942385016
3	923	2212.715102097353	148.0364526683
3	931	2218.144120015931	145.70418094402
3	942	2249.720744349881	149.07730425912
3	945	2251.828133529119	142.09274442535
3	946	2255.877279444601	141.32209288781
3	947	2258.200194135648	138.50010576299
3	948	2260.21116467754	134.75685106491
3	961	2281.776950390926	140.52459643238
3	962	2284.538697028523	139.32372991719
3	965	2291.68748430046	135.46166474478
3	984	2315.934426966308	154.15360881179
3	987	2318.537993617281	155.73615742557
3	988	2318.863535875634	142.46396807904
3	1006	2355.600891270286	171.13177324843
3	1007	2366.62864271817	160.2284245635
3	1008	2367.045155709933	160.36749006964
3	1011	2371.369154023249	158.45872800096
3	1012	2374.665141341177	161.39080336793
3	1013	2385.489060694289	164.35122237951
3	1014	2386.543218756193	162.72069481721
3	1015	2387.459458701324	157.94107595767
3	1016	2391.409253467561	154.05272658224
3	1019	2400.206863747915	158.03746641068
3	1020	2401.299874818081	151.48804463743
3	1021	2401.342994321521	140.66584676084
3	1022	2407.649710811135	135.50154774091
3	1025	2412.334551562649	135.95319421363
3	1030	2419.210191187924	134.01653668429
3	1033	2420.633659985225	123.92681748269
3	1034	2425.423717478943	125.830059662
3	1035	2429.20632320642	123.28876329695
3	1036	2430.269800714856	122.21982815367
3	1037	2431.691364372709	120.3911557053
3	1038	2431.866032652285	120.3487193243
3	1047	2442.425281170501	125.32129229726
3	1048	2448.1852116894	126.9326822115
3	1049	2455.053601072978	130.15914099174
3	1052	2456.170032065836	127.27464644548
3	1053	2459.95027213241	114.79156169054
3	1060	2471.696622674155	104.44126741854
3	1061	2473.165291428121	79.680774572271
3	1062	2487.684040813986	78.657028182992
3	1063	2488.191761104108	73.657414463707
4	138	361.021825549164	1
4	143	377.990665820572	1
4	145	378.253915431294	2
4	160	422.009642860919	1
4	164	440.507768153143	2
4	194	523.73951392862	1
4	197	530.555131859566	1
4	202	545.373125084985	1
4	216	589.35608943426	1
4	218	610.291214639623	2
4	220	615.800908427453	3
4	246	652.662135001111	1
4	250	662.997675276741	2
4	257	681.988222083014	1
4	275	722.609711117216	1
4	278	742.368989217759	1
4	282	751.111928766331	1
4	306	799.632860009152	1
4	318	814.853493710681	1
4	340	860.107364097815	1
4	342	863.381446274853	2
4	347	873.232163967375	1
4	349	875.141813991404	2
4	360	896.29040962463	1
4	366	900.777193276199	2
4	385	924.490335754125	1
4	390	944.436092298924	1
4	392	951.47929612701	2
4	422	1011.77198842037	1
4	425	1012.512646375906	1
4	437	1038.37111930574	1
4	474	1124.687148995609	1
4	478	1134.14472775205	2
4	480	1136.014676504768	3
4	486	1150.696087075246	2
4	488	1163.995141988292	3
4	490	1164.834707420463	4
4	494	1175.182035494463	3
4	510	1230.359838712003	1
4	524	1257.761287405401	1
4	531	1277.139323562446	1
4	535	1284.576761460268	2
4	543	1290.546818596825	3
4	545	1290.626256761703	4
4	547	1295.97049487972	5
4	551	1303.980580883593	6
4	557	1309.463716143574	5
4	569	1347.514072646773	4
4	579	1388.786029090884	1
4	583	1400.099639158162	1
4	606	1448.468959825449	1
4	630	1540.065042446857	1
4	645	1583.325883925548	1
4	647	1586.275170027452	2
4	656	1613.626189748491	1
4	658	1614.26675634966	2
4	662	1628.988584949879	1
4	664	1633.042512394715	2
4	677	1654.225093828105	1
4	682	1663.525897776844	1
4	714	1734.077240528806	1
4	729	1749.437982594428	1
4	743	1799.40592340194	1
4	757	1818.494866855502	1
4	769	1844.445977291195	1
4	773	1857.169951238713	1
4	776	1865.263090597383	1
4	780	1870.89228262137	1
4	782	1874.166523009959	2
4	785	1875.969531453931	2
4	791	1894.574768464284	1
4	816	1956.269871227903	1
4	818	1958.634551972986	2
4	829	1983.36840924784	2
4	838	2008.698798874346	1
4	852	2040.337147864579	1
4	864	2060.761979702989	1
4	869	2072.43993907191	1
4	886	2125.454313612626	1
4	896	2161.780818154514	1
4	900	2164.572453140033	2
4	902	2165.34997202045	3
4	910	2184.469118021856	1
4	920	2206.677665640295	1
4	927	2213.274337973245	1
4	929	2217.002569442759	2
4	933	2221.137838314775	1
4	952	2272.148163070228	1
4	954	2275.806883192869	2
4	959	2280.659867074338	2
4	964	2285.193654503639	1
4	967	2296.706842502531	1
4	971	2299.904511665169	2
4	975	2307.946249155461	3
4	994	2328.895385620355	1
4	996	2339.416810040685	2
4	998	2339.425908011321	3
4	1001	2342.523346328393	3
4	1010	2367.255355255618	1
4	1042	2436.401942894968	1
4	1051	2455.75371522284	1
5	138	361.021825549164	0
5	139	363.588817060869	0
5	143	377.990665820572	0
5	145	378.253915431294	1
5	148	382.348296758414	1
5	151	386.497959610302	0
5	160	422.009642860919	0
5	164	440.507768153143	1
5	169	456.790028546088	1
5	172	458.503773635122	0
5	194	523.73951392862	0
5	195	524.496786996281	0
5	197	530.555131859566	0
5	198	532.993891796109	0
5	202	545.373125084985	0
5	203	546.414892047934	0
5	216	589.35608943426	0
5	218	610.291214639623	1
5	220	615.800908427453	2
5	221	616.125686482042	2
5	226	622.333323239399	1
5	231	627.492450251468	0
5	246	652.662135001111	0
5	250	662.997675276741	1
5	251	665.260282399345	1
5	252	671.673065649217	0
5	257	681.988222083014	0
5	260	685.889221288101	0
5	275	722.609711117216	0
5	276	723.978935460822	0
5	278	742.368989217759	0
5	279	745.543540798157	0
5	282	751.111928766331	0
5	283	754.566228318417	0
5	306	799.632860009152	0
5	307	799.987350044076	0
5	318	814.853493710681	0
5	319	831.825612038687	0
5	340	860.107364097815	0
5	342	863.381446274853	1
5	343	863.414195571936	1
5	344	868.531369146774	0
5	347	873.232163967375	0
5	349	875.141813991404	1
5	352	879.499619383691	1
5	353	890.895947830339	0
5	360	896.29040962463	0
5	366	900.777193276199	1
5	367	902.72904549883	1
5	374	910.109962822083	0
5	385	924.490335754125	0
5	386	934.59088892192	0
5	390	944.436092298924	0
5	392	951.47929612701	1
5	393	952.704057474038	1
5	398	959.349101512429	0
5	422	1011.77198842037	0
5	423	1012.132733169281	0
5	425	1012.512646375906	0
5	428	1019.822431711604	0
5	437	1038.37111930574	0
5	440	1047.298346903173	0
5	474	1124.687148995609	0
5	478	1134.14472775205	1
5	480	1136.014676504768	2
5	481	1137.085548601501	2
5	484	1149.694547576425	1
5	486	1150.696087075246	1
5	488	1163.995141988292	2
5	490	1164.834707420463	3
5	491	1165.664199978042	3
5	492	1169.709802290174	2
5	494	1175.182035494463	2
5	495	1182.783006390508	2
5	496	1184.545584011835	1
5	497	1187.000031971644	0
5	510	1230.359838712003	0
5	511	1231.596666164946	0
5	524	1257.761287405401	0
5	527	1264.675095926737	0
5	531	1277.139323562446	0
5	535	1284.576761460268	1
5	543	1290.546818596825	2
5	545	1290.626256761703	3
5	547	1295.97049487972	4
5	551	1303.980580883593	5
5	552	1307.379571776318	5
5	553	1308.547960981205	4
5	557	1309.463716143574	4
5	562	1332.621733911874	4
5	565	1339.469794105819	3
5	569	1347.514072646773	3
5	570	1352.198630349926	3
5	571	1352.547810440995	2
5	576	1374.946578246021	1
5	577	1388.397259489753	0
5	579	1388.786029090884	0
5	580	1390.965747639673	0
5	583	1400.099639158162	0
5	584	1402.797014242373	0
5	606	1448.468959825449	0
5	609	1461.202746427628	0
5	630	1540.065042446857	0
5	633	1563.549884649587	0
5	645	1583.325883925548	0
5	647	1586.275170027452	1
5	650	1588.651979205519	1
5	653	1602.639512197443	0
5	656	1613.626189748491	0
5	658	1614.26675634966	1
5	659	1622.382727440669	1
5	660	1622.728065385654	0
5	662	1628.988584949879	0
5	664	1633.042512394715	1
5	667	1639.1013761234	1
5	670	1643.115934157185	0
5	677	1654.225093828105	0
5	678	1656.284239471402	0
5	682	1663.525897776844	0
5	685	1666.438616103107	0
5	714	1734.077240528806	0
5	719	1745.040351665626	0
5	729	1749.437982594428	0
5	732	1761.112252701689	0
5	743	1799.40592340194	0
5	748	1802.732787767398	0
5	757	1818.494866855502	0
5	758	1819.144928998573	0
5	769	1844.445977291195	0
5	770	1845.298890758437	0
5	773	1857.169951238713	0
5	774	1862.712373094931	0
5	776	1865.263090597383	0
5	777	1865.769176890318	0
5	780	1870.89228262137	0
5	782	1874.166523009959	1
5	783	1875.194206776196	1
5	785	1875.969531453931	1
5	786	1879.042859666786	1
5	789	1889.129314095999	0
5	791	1894.574768464284	0
5	796	1904.095331468819	0
5	816	1956.269871227903	0
5	818	1958.634551972986	1
5	821	1964.743633685214	1
5	829	1983.36840924784	1
5	830	1987.167027203954	1
5	831	1990.444770614973	0
5	838	2008.698798874346	0
5	839	2013.88936566999	0
5	852	2040.337147864579	0
5	857	2043.710345355206	0
5	864	2060.761979702989	0
5	867	2070.180220641859	0
5	869	2072.43993907191	0
5	870	2074.736594664219	0
5	886	2125.454313612626	0
5	887	2138.325295438056	0
5	896	2161.780818154514	0
5	900	2164.572453140033	1
5	902	2165.34997202045	2
5	903	2167.914629118719	2
5	904	2173.081947232065	1
5	907	2181.046450388196	0
5	910	2184.469118021856	0
5	911	2189.569081703972	0
5	920	2206.677665640295	0
5	921	2208.552536882417	0
5	927	2213.274337973245	0
5	929	2217.002569442759	1
5	930	2217.099581619913	1
5	931	2218.144120015931	0
5	933	2221.137838314775	0
5	942	2249.720744349881	0
5	952	2272.148163070228	0
5	954	2275.806883192869	1
5	957	2278.004515812617	1
5	959	2280.659867074338	1
5	960	2280.863857841921	1
5	961	2281.776950390926	0
5	964	2285.193654503639	0
5	965	2291.68748430046	0
5	967	2296.706842502531	0
5	971	2299.904511665169	1
5	975	2307.946249155461	2
5	982	2312.086574849368	2
5	983	2315.143803310975	1
5	984	2315.934426966308	0
5	994	2328.895385620355	0
5	996	2339.416810040685	1
5	998	2339.425908011321	2
5	999	2341.682344469159	2
5	1001	2342.523346328393	2
5	1002	2343.885821032181	2
5	1003	2344.208582667277	1
5	1006	2355.600891270286	0
5	1010	2367.255355255618	0
5	1011	2371.369154023249	0
5	1042	2436.401942894968	0
5	1047	2442.425281170501	0
5	1051	2455.75371522284	0
5	1052	2456.170032065836	0
6	138	361.021825549164	5
6	143	377.990665820572	6
6	160	422.009642860919	7
6	202	545.373125084985	8
6	216	589.35608943426	9
6	246	652.662135001111	10
6	257	681.988222083014	11
6	275	722.609711117216	12
6	278	742.368989217759	13
6	282	751.111928766331	14
6	306	799.632860009152	15
6	318	814.853493710681	16
6	340	860.107364097815	17
6	347	873.232163967375	18
6	360	896.29040962463	19
6	385	924.490335754125	20
6	390	944.436092298924	21
6	422	1011.77198842037	22
6	425	1012.512646375906	23
6	437	1038.37111930574	24
6	474	1124.687148995609	25
6	510	1230.359838712003	26
6	524	1257.761287405401	27
6	531	1277.139323562446	28
6	579	1388.786029090884	29
6	583	1400.099639158162	30
6	606	1448.468959825449	31
6	630	1540.065042446857	32
6	645	1583.325883925548	33
6	656	1613.626189748491	34
6	662	1628.988584949879	35
6	677	1654.225093828105	36
6	682	1663.525897776844	37
6	714	1734.077240528806	38
6	729	1749.437982594428	39
6	743	1799.40592340194	40
6	757	1818.494866855502	41
6	769	1844.445977291195	42
6	773	1857.169951238713	43
6	776	1865.263090597383	44
6	780	1870.89228262137	45
6	791	1894.574768464284	46
6	816	1956.269871227903	47
6	838	2008.698798874346	48
6	852	2040.337147864579	49
6	864	2060.761979702989	50
6	869	2072.43993907191	51
6	886	2125.454313612626	52
6	896	2161.780818154514	53
6	910	2184.469118021856	54
6	920	2206.677665640295	55
6	927	2213.274337973245	56
6	933	2221.137838314775	57
6	952	2272.148163070228	58
6	964	2285.193654503639	59
6	967	2296.706842502531	60
6	994	2328.895385620355	61
6	1010	2367.255355255618	62
6	1042	2436.401942894968	63
6	1051	2455.75371522284	64
7	138	361.021825549164	0
7	143	377.990665820572	0
7	148	382.348296758414	4.09438132712
7	160	422.009642860919	0
7	169	456.790028546088	16.282260392945
7	194	523.73951392862	0
7	197	530.555131859566	0
7	202	545.373125084985	0
7	216	589.35608943426	0
7	221	616.125686482042	5.834471842419
7	226	622.333323239399	6.532414811946
7	246	652.662135001111	0
7	251	665.260282399345	2.262607122604
7	257	681.988222083014	0
7	275	722.609711117216	0
7	278	742.368989217759	0
7	282	751.111928766331	0
7	306	799.632860009152	0
7	318	814.853493710681	0
7	340	860.107364097815	0
7	343	863.414195571936	0.032749297083
7	347	873.232163967375	0
7	352	879.499619383691	4.357805392287
7	360	896.29040962463	0
7	367	902.72904549883	1.951852222631
7	385	924.490335754125	0
7	390	944.436092298924	0
7	393	952.704057474038	1.224761347028
7	422	1011.77198842037	0
7	425	1012.512646375906	0
7	437	1038.37111930574	0
7	474	1124.687148995609	0
7	481	1137.085548601501	2.940820849451
7	484	1149.694547576425	13.679871071657
7	491	1165.664199978042	14.968112902796
7	492	1169.709802290174	5.714660301882
7	495	1182.783006390508	17.948298970045
7	496	1184.545584011835	9.363548517372
7	510	1230.359838712003	0
7	524	1257.761287405401	0
7	531	1277.139323562446	0
7	552	1307.379571776318	22.80281031605
7	553	1308.547960981205	18.00114238438
7	562	1332.621733911874	41.995477150171
7	565	1339.469794105819	43.499299226099
7	570	1352.198630349926	48.218049466333
7	571	1352.547810440995	43.084094297421
7	576	1374.946578246021	27.432505599248
7	579	1388.786029090884	0
7	583	1400.099639158162	0
7	606	1448.468959825449	0
7	630	1540.065042446857	0
7	645	1583.325883925548	0
7	650	1588.651979205519	2.376809178067
7	656	1613.626189748491	0
7	659	1622.382727440669	8.115971091009
7	662	1628.988584949879	0
7	667	1639.1013761234	6.058863728685
7	677	1654.225093828105	0
7	682	1663.525897776844	0
7	714	1734.077240528806	0
7	729	1749.437982594428	0
7	743	1799.40592340194	0
7	757	1818.494866855502	0
7	769	1844.445977291195	0
7	773	1857.169951238713	0
7	776	1865.263090597383	0
7	780	1870.89228262137	0
7	783	1875.194206776196	1.027683766237
7	786	1879.042859666786	3.073328212855
7	791	1894.574768464284	0
7	816	1956.269871227903	0
7	821	1964.743633685214	6.109081712228
7	830	1987.167027203954	3.798617956114
7	838	2008.698798874346	0
7	852	2040.337147864579	0
7	864	2060.761979702989	0
7	869	2072.43993907191	0
7	886	2125.454313612626	0
7	896	2161.780818154514	0
7	903	2167.914629118719	3.342175978686
7	904	2173.081947232065	7.731975211615
7	910	2184.469118021856	0
7	920	2206.677665640295	0
7	927	2213.274337973245	0
7	930	2217.099581619913	0.097012177154
7	933	2221.137838314775	0
7	952	2272.148163070228	0
7	957	2278.004515812617	2.197632619748
7	960	2280.863857841921	0.203990767583
7	964	2285.193654503639	0
7	967	2296.706842502531	0
7	982	2312.086574849368	12.182063184199
7	983	2315.143803310975	7.197554155514
7	994	2328.895385620355	0
7	999	2341.682344469159	2.265534428474
7	1002	2343.885821032181	4.45991302086
7	1003	2344.208582667277	1.685236338884
7	1010	2367.255355255618	0
7	1042	2436.401942894968	0
7	1051	2455.75371522284	0
8	139	363.588817060869	14
8	148	382.348296758414	15
8	151	386.497959610302	16
8	169	456.790028546088	17
8	172	458.503773635122	18
8	195	524.496786996281	19
8	198	532.993891796109	20
8	203	546.414892047934	21
8	221	616.125686482042	22
8	226	622.333323239399	23
8	231	627.492450251468	24
8	251	665.260282399345	25
8	252	671.673065649217	26
8	260	685.889221288101	27
8	276	723.978935460822	28
8	279	745.543540798157	29
8	283	754.566228318417	30
8	307	799.987350044076	31
8	319	831.825612038687	32
8	343	863.414195571936	33
8	344	868.531369146774	34
8	352	879.499619383691	35
8	353	890.895947830339	36
8	367	902.72904549883	37
8	374	910.109962822083	38
8	386	934.59088892192	39
8	393	952.704057474038	40
8	398	959.349101512429	41
8	423	1012.132733169281	42
8	428	1019.822431711604	43
8	440	1047.298346903173	44
8	481	1137.085548601501	45
8	484	1149.694547576425	46
8	491	1165.664199978042	47
8	492	1169.709802290174	48
8	495	1182.783006390508	49
8	496	1184.545584011835	50
8	497	1187.000031971644	51
8	511	1231.596666164946	52
8	527	1264.675095926737	53
8	552	1307.379571776318	54
8	553	1308.547960981205	55
8	562	1332.621733911874	56
8	565	1339.469794105819	57
8	570	1352.198630349926	58
8	571	1352.547810440995	59
8	576	1374.946578246021	60
8	577	1388.397259489753	61
8	580	1390.965747639673	62
8	584	1402.797014242373	63
8	609	1461.202746427628	64
8	633	1563.549884649587	65
8	650	1588.651979205519	66
8	653	1602.639512197443	67
8	659	1622.382727440669	68
8	660	1622.728065385654	69
8	667	1639.1013761234	70
8	670	1643.115934157185	71
8	678	1656.284239471402	72
8	685	1666.438616103107	73
8	719	1745.040351665626	74
8	732	1761.112252701689	75
8	748	1802.732787767398	76
8	758	1819.144928998573	77
8	770	1845.298890758437	78
8	774	1862.712373094931	79
8	777	1865.769176890318	80
8	783	1875.194206776196	81
8	786	1879.042859666786	82
8	789	1889.129314095999	83
8	796	1904.095331468819	84
8	821	1964.743633685214	85
8	830	1987.167027203954	86
8	831	1990.444770614973	87
8	839	2013.88936566999	88
8	857	2043.710345355206	89
8	867	2070.180220641859	90
8	870	2074.736594664219	91
8	887	2138.325295438056	92
8	903	2167.914629118719	93
8	904	2173.081947232065	94
8	907	2181.046450388196	95
8	911	2189.569081703972	96
8	921	2208.552536882417	97
8	930	2217.099581619913	98
8	931	2218.144120015931	99
8	942	2249.720744349881	100
8	957	2278.004515812617	101
8	960	2280.863857841921	102
8	961	2281.776950390926	103
8	965	2291.68748430046	104
8	982	2312.086574849368	105
8	983	2315.143803310975	106
8	984	2315.934426966308	107
8	999	2341.682344469159	108
8	1002	2343.885821032181	109
8	1003	2344.208582667277	110
8	1006	2355.600891270286	111
8	1011	2371.369154023249	112
8	1047	2442.425281170501	113
8	1052	2456.170032065836	114
9	139	363.588817060869	2.566991511705
9	148	382.348296758414	4.357630937842
9	151	386.497959610302	8.244044179008
9	169	456.790028546088	34.780385685169
9	172	458.503773635122	17.996005481979
9	195	524.496786996281	0.757273067661
9	198	532.993891796109	2.438759936543
9	203	546.414892047934	1.041766962949
9	221	616.125686482042	26.769597047782
9	226	622.333323239399	12.042108599776
9	231	627.492450251468	11.691541824015
9	251	665.260282399345	12.598147398234
9	252	671.673065649217	8.675390372476
9	260	685.889221288101	3.900999205087
9	276	723.978935460822	1.369224343606
9	279	745.543540798157	3.174551580398
9	283	754.566228318417	3.454299552086
9	307	799.987350044076	0.354490034924
9	319	831.825612038687	16.972118328006
9	343	863.414195571936	3.306831474121
9	344	868.531369146774	5.149922871921
9	352	879.499619383691	6.267455416316
9	353	890.895947830339	15.754133838935
9	367	902.72904549883	6.4386358742
9	374	910.109962822083	9.332769545884
9	386	934.59088892192	10.100553167795
9	393	952.704057474038	8.267965175114
9	398	959.349101512429	7.869805385419
9	423	1012.132733169281	0.360744748911
9	428	1019.822431711604	7.309785335698
9	440	1047.298346903173	8.927227597433
9	481	1137.085548601501	12.398399605892
9	484	1149.694547576425	15.549819824375
9	491	1165.664199978042	29.649523473274
9	492	1169.709802290174	19.013715214928
9	495	1182.783006390508	18.787864402216
9	496	1184.545584011835	19.710876591372
9	497	1187.000031971644	11.817996477181
9	511	1231.596666164946	1.236827452943
9	527	1264.675095926737	6.913808521336
9	552	1307.379571776318	30.240248213872
9	553	1308.547960981205	23.971199520937
9	562	1332.621733911874	42.074915315049
9	565	1339.469794105819	48.843537344116
9	570	1352.198630349926	56.228135470206
9	571	1352.547810440995	48.567229557402
9	576	1374.946578246021	65.482862102447
9	577	1388.397259489753	40.88318684298
9	580	1390.965747639673	2.179718548789
9	584	1402.797014242373	2.697375084211
9	609	1461.202746427628	12.733786602179
9	633	1563.549884649587	23.48484220273
9	650	1588.651979205519	5.326095279971
9	653	1602.639512197443	16.364342169991
9	659	1622.382727440669	8.756537692178
9	660	1622.728065385654	8.461309035994
9	667	1639.1013761234	10.112791173521
9	670	1643.115934157185	10.07342176247
9	678	1656.284239471402	2.059145643297
9	685	1666.438616103107	2.912718326263
9	719	1745.040351665626	10.96311113682
9	732	1761.112252701689	11.674270107261
9	748	1802.732787767398	3.326864365458
9	758	1819.144928998573	0.650062143071
9	770	1845.298890758437	0.852913467242
9	774	1862.712373094931	5.542421856218
9	777	1865.769176890318	0.506086292935
9	783	1875.194206776196	4.301924154826
9	786	1879.042859666786	4.876336656827
9	789	1889.129314095999	13.159782642068
9	796	1904.095331468819	9.520563004535
9	821	1964.743633685214	8.473762457311
9	830	1987.167027203954	28.532475230968
9	831	1990.444770614973	7.076361367133
9	839	2013.88936566999	5.190566795644
9	857	2043.710345355206	3.373197490627
9	867	2070.180220641859	9.41824093887
9	870	2074.736594664219	2.296655592309
9	887	2138.325295438056	12.87098182543
9	903	2167.914629118719	6.133810964205
9	904	2173.081947232065	8.509494092032
9	907	2181.046450388196	15.696478367746
9	911	2189.569081703972	5.099963682116
9	921	2208.552536882417	1.874871242122
9	930	2217.099581619913	3.825243646668
9	931	2218.144120015931	1.141550573172
9	942	2249.720744349881	28.582906035106
9	957	2278.004515812617	5.856352742389
9	960	2280.863857841921	5.056974649052
9	961	2281.776950390926	1.117083316588
9	965	2291.68748430046	6.493829796821
9	982	2312.086574849368	15.379732346837
9	983	2315.143803310975	15.239291645806
9	984	2315.934426966308	7.988177810847
9	999	2341.682344469159	12.786958848804
9	1002	2343.885821032181	4.469010991496
9	1003	2344.208582667277	4.782674655956
9	1006	2355.600891270286	13.077544941893
9	1011	2371.369154023249	4.113798767631
9	1047	2442.425281170501	6.023338275533
9	1052	2456.170032065836	0.416316842996
10	147	379.608095313354	10
10	150	385.157042033546	11
10	154	399.228233649482	11
10	162	426.29441775287	8
10	166	443.660282730514	9
10	168	448.882770349587	10
10	171	458.137377426833	11
10	175	465.826518938555	11
10	182	494.833255579592	7
10	184	499.822669747212	8
10	200	545.209727119979	1
10	206	556.326563719439	1
10	209	572.24175660314	1
10	212	575.863779244195	1
10	214	577.881832968284	2
10	223	618.606462312563	3
10	225	621.290089637664	4
10	228	624.589581645086	5
10	230	627.159808616859	6
10	233	636.156734196456	7
10	235	638.695588633048	8
10	237	639.503912377234	9
10	241	641.651605112762	8
10	244	648.446565023337	8
10	248	656.54974981075	9
10	255	679.39638457525	9
10	259	682.973119520857	10
10	263	694.937514966378	10
10	267	709.632194269071	9
10	269	711.758812941697	10
10	272	714.745063282436	10
10	287	780.526003935068	7
10	289	782.044152913347	8
10	291	785.118702325468	9
10	294	786.82893246052	9
10	297	792.211735403243	9
10	300	794.650893746256	9
10	302	796.164645718989	10
10	304	797.919207288304	11
10	309	800.659176556938	12
10	311	802.145561068497	13
10	315	811.00518497882	12
10	322	837.601350145641	11
10	324	842.808892412795	12
10	333	850.859225738186	6
10	335	852.072682488855	7
10	337	856.159958446072	8
10	351	877.773073587536	7
10	355	893.64717916577	8
10	362	896.443773630609	6
10	364	899.605850019362	7
10	369	906.490154822813	8
10	371	908.845874933179	9
10	373	909.068777480588	10
10	376	910.906698195825	11
10	378	913.501120803603	12
10	383	923.456570972861	10
10	395	953.896826670245	9
10	397	955.784633106749	10
10	400	959.402928374506	11
10	402	967.655498130466	12
10	406	977.727526974586	11
10	411	986.483345419537	9
10	415	992.65484243738	8
10	417	1000.462186581842	9
10	420	1006.176726943197	9
10	427	1017.427407056631	10
10	430	1023.333185885289	11
10	433	1035.575057615901	11
10	435	1036.397542892707	12
10	439	1042.071307097477	13
10	442	1053.311955600887	14
10	446	1068.628170045546	13
10	448	1068.7372523909	14
10	452	1076.558449330755	13
10	454	1085.269920578633	14
10	457	1090.503816550838	14
10	462	1108.756096424927	12
10	464	1109.014040151767	13
10	466	1111.825117276107	14
10	469	1117.188075728243	14
10	471	1118.573341036805	15
10	476	1130.12602680693	15
10	483	1145.944497366466	16
10	500	1191.074306916834	16
10	508	1224.317871195993	11
10	516	1239.415299962359	9
10	518	1241.319226478284	10
10	520	1246.698348383056	11
10	522	1249.075240055608	12
10	526	1262.228682128353	13
10	533	1281.456586332296	12
10	537	1285.868618464094	13
10	539	1287.995910071284	14
10	541	1290.105014442061	15
10	549	1297.064115025479	16
10	555	1309.251003332188	17
10	559	1322.970381474386	18
10	561	1327.054292896169	19
10	564	1337.426373481282	20
10	567	1339.570652825673	21
10	573	1353.57388117284	22
10	575	1354.516585092584	23
10	592	1421.845319537203	17
10	596	1433.077455864582	16
10	598	1434.570566934513	17
10	601	1436.700873309931	17
10	604	1444.299171092421	17
10	608	1451.583659890725	18
10	611	1462.140670769399	19
10	614	1486.551119297569	19
10	616	1496.223907441521	20
10	623	1523.68482419876	16
10	628	1535.830083928314	14
10	632	1552.15528015073	15
10	637	1569.113611818043	14
10	639	1574.59712260323	15
10	643	1577.783622414697	14
10	649	1588.000980001104	15
10	652	1592.596152355802	16
10	666	1636.55918818209	16
10	669	1640.641096239258	17
10	674	1650.918419052956	16
10	684	1663.785704815084	14
10	687	1667.004304150596	15
10	690	1674.644996918479	15
10	692	1675.406868188611	16
10	694	1683.621375205935	17
10	697	1691.870758945599	17
10	705	1720.321633944097	12
10	709	1728.242047121611	11
10	712	1733.304477625183	11
10	716	1736.123190533158	12
10	718	1736.909763431248	13
10	721	1745.044126709653	14
10	725	1748.564229081137	13
10	727	1749.269661046032	14
10	731	1753.344411509976	15
10	734	1768.415993221564	16
10	738	1784.209010264732	15
10	745	1800.178677377241	13
10	747	1800.95833616599	14
10	750	1802.963572909128	15
10	753	1808.674857293738	15
10	760	1823.070351810148	14
10	762	1823.916015992079	15
10	765	1834.242923632817	15
10	788	1884.674211425783	12
10	793	1897.934943306775	13
10	795	1899.021409378431	14
10	798	1908.271706007079	15
10	801	1911.895429355032	15
10	804	1914.724388814061	15
10	806	1919.490991222787	16
10	809	1923.241762418407	16
10	812	1936.92438258832	16
10	820	1961.501522926047	15
10	823	1965.216661545734	16
10	825	1976.143259682891	17
10	827	1977.106085114153	18
10	833	2002.049166686635	19
10	841	2014.824804974099	17
10	843	2026.435831902888	18
10	845	2026.746619278247	19
10	848	2034.2767880203	19
10	854	2040.832134308452	18
10	856	2041.731501973777	19
10	859	2044.394175563752	20
10	862	2057.540071414153	20
10	866	2064.678649429053	21
10	873	2100.643440090761	21
10	878	2109.735389103771	19
10	881	2114.55518655679	19
10	884	2119.70008837266	19
10	889	2141.252353958549	20
10	892	2145.214967111336	20
10	894	2156.225819555676	21
10	898	2162.801836191714	22
10	906	2176.399567796595	23
10	918	2206.400218154673	18
10	925	2212.910426022293	17
10	935	2223.822523938987	18
10	937	2229.518382743654	19
10	939	2237.356526885323	20
10	941	2242.16939733723	21
10	944	2249.811830180648	22
10	950	2260.677147560681	19
10	956	2276.381357349022	20
10	969	2299.593657816942	20
10	973	2305.917559909468	21
10	977	2308.049972561187	22
10	979	2311.300208667409	23
10	981	2311.517313327987	24
10	986	2317.103988873237	25
10	990	2321.252529477898	24
10	992	2324.894460081239	25
10	1005	2345.158710441866	26
10	1018	2393.48451685585	20
10	1024	2409.027012630994	17
10	1027	2414.534346640401	17
10	1029	2418.902692042539	18
10	1032	2419.493416931437	18
10	1040	2432.165685310105	13
10	1044	2437.386547876681	14
10	1046	2439.315187646736	15
10	1055	2461.210077954654	13
10	1057	2463.600744450632	14
10	1059	2464.886615128397	15
11	1064	2500	0.0932
12	1064	2500	0.0456

