version 2
run experiments_hard_game_mode1-836-20230311-19:42:19-9024
attr configname experiments_hard_game_mode1
attr datetime 20230311-19:42:19
attr experiment experiments_hard_game_mode1
attr inifile omnetpp.ini
attr iterationvars "$0=8.5, $1=6, $2=100"
attr iterationvarsf 8.5,6,100-
attr measurement "$0=8.5, $1=6, $2=100"
attr network Network
attr processid 9024
attr repetition 26
attr replication #26
attr resultdir results
attr runnumber 836
attr seedset 26
param *.boss.arrival_mean 20
param *.boss.service_mean 8.5
param *.minion.arrival_mean 10
param *.minion.service_mean 6
param *.player.recover_rate_x 100
param **.minion.arrival_distribution 0
param **.minion.service_distribution 0
param **.boss.arrival_distribution 0
param **.boss.service_distribution 0

vector 0 Network.player minion_jobs_number_stat:vector ETV
attr source signal_minion_jobs_number
vector 1 Network.player minion_jobs_queue_number_stat:vector ETV
attr source signal_minion_jobs_queue_number
vector 2 Network.player minion_defeated_stat:vector ETV
attr source signal_minion_defeated
vector 3 Network.player minion_response_time_stat:vector ETV
attr source signal_minion_response_time
vector 4 Network.player minion_waiting_time_stat:vector ETV
attr source signal_minion_waiting_time
vector 5 Network.player boss_jobs_number_stat:vector ETV
attr source signal_boss_jobs_number
vector 6 Network.player boss_jobs_queue_number_stat:vector ETV
attr source signal_boss_jobs_queue_number
vector 7 Network.player minion_recovered_stat:vector ETV
attr source signal_minion_recovered
vector 8 Network.player boss_waiting_time_stat:vector ETV
attr source signal_boss_waiting_time
vector 9 Network.player boss_defeated_stat:vector ETV
attr source signal_boss_defeated
vector 10 Network.player boss_response_time_stat:vector ETV
attr source signal_boss_response_time
vector 11 Network.player minion_throughput:vector ETV
attr source signal_minion_throughput
vector 12 Network.player boss_throughput:vector ETV
attr source signal_boss_throughput
0	128	353.474320604805	4
0	136	362.221650059944	2
0	140	388.918922681755	1
0	142	391.684997140054	2
0	144	393.513447054423	3
0	147	396.818932124983	3
0	151	411.073237962121	2
0	155	418.275100492741	1
0	157	419.589888907062	2
0	159	420.361511980791	3
0	161	431.413467444418	4
0	163	433.346302192891	5
0	170	445.432556060841	6
0	172	446.898056891252	7
0	178	457.624761079718	5
0	181	462.992411790454	5
0	189	477.732048514976	3
0	191	479.565660162456	4
0	200	506.907177080105	1
0	202	508.184710933496	2
0	204	513.794651262729	3
0	207	522.6230811356	3
0	209	525.703729907631	4
0	211	526.760700204932	5
0	213	529.153394214765	6
0	218	536.576731663828	7
0	222	538.986210414381	8
0	224	542.139596743865	9
0	227	549.542459884891	10
0	229	551.855074966976	11
0	231	552.96415021486	12
0	233	555.292798021475	13
0	235	555.530199892277	14
0	238	557.386578317167	14
0	241	558.581549090794	14
0	245	564.674090514164	13
0	247	566.996941240385	14
0	249	567.198732359307	15
0	251	567.806075160641	16
0	262	599.368227092208	13
0	267	609.617173713877	14
0	269	618.765200043476	15
0	271	628.111450699737	16
0	279	643.978860644792	17
0	287	670.76103880654	16
0	289	673.781192419499	17
0	292	677.024116712335	17
0	297	680.55874114572	17
0	301	690.106648260074	18
0	304	695.833009998525	19
0	307	706.460375203675	20
0	310	710.189187192976	20
0	312	714.031277994825	21
0	322	746.56073465194	17
0	324	747.335346081218	18
0	326	752.507465201618	19
0	331	764.711850508577	17
0	341	779.392366829766	16
0	351	798.727175529999	17
0	359	805.745986193468	18
0	362	809.376814129608	19
0	364	814.345620529679	20
0	366	816.943428381458	21
0	368	820.20186011876	22
0	371	823.652287563037	23
0	373	823.852341833642	24
0	376	838.965598310374	25
0	380	849.665848546355	26
0	383	855.20014544701	27
0	392	874.938272861615	27
0	394	875.642170742283	28
0	396	878.916392601563	29
0	398	880.194743129377	30
0	405	908.302664689417	29
0	407	912.880118731235	30
0	409	914.154013521909	31
0	411	918.221453502094	32
0	413	920.466740367527	33
0	415	921.269617257342	34
0	418	928.270388860147	35
0	423	940.769429665337	33
0	425	946.937388544451	34
0	427	948.378059082212	35
0	431	961.276425471982	34
0	435	968.857171976466	33
0	444	985.637922849169	30
0	449	990.293399767415	31
0	453	994.830844296818	30
0	458	1006.809630873742	30
0	460	1008.576925158246	31
0	466	1025.702611347249	32
0	468	1025.859092540039	33
0	474	1032.037129145877	32
0	480	1039.660424487586	33
0	483	1044.334527619919	33
0	495	1069.794077147459	29
0	500	1092.429440543177	28
0	504	1099.606014265835	27
0	508	1106.988560342246	26
0	510	1108.012979850404	27
0	523	1136.140998633732	25
0	532	1157.550368266195	25
0	534	1157.611214525958	26
0	539	1162.88480480778	25
0	543	1166.784023230992	24
0	551	1201.198363559256	22
0	559	1233.994475151404	17
0	561	1234.638255782988	18
0	563	1245.207501304281	19
0	565	1252.287471471351	20
0	567	1252.958309372731	21
0	569	1255.544300550687	22
0	571	1257.702205050436	23
0	574	1273.575107147716	23
0	577	1282.000157476293	23
0	582	1308.042757533478	24
0	589	1322.442427890273	20
0	597	1354.450041299215	15
0	599	1359.808667138904	16
0	601	1365.567060418044	17
0	605	1379.527834508314	16
0	611	1388.343387569061	13
0	614	1391.530722183322	13
0	617	1395.987648763864	13
0	626	1405.73259010185	12
0	629	1407.59546398581	13
0	633	1421.052419772988	12
0	644	1465.665298626496	12
0	653	1483.14063802135	13
0	657	1486.981162243963	14
0	659	1490.211591955959	15
0	661	1492.475700231023	16
0	663	1493.600893495466	17
0	665	1496.620248682547	18
0	668	1499.251009617682	19
0	670	1501.190745310615	20
0	675	1503.555027487292	21
0	677	1503.84271439289	22
0	679	1507.41017972299	23
0	684	1530.291608934717	24
0	686	1530.384925280363	25
0	690	1537.457528739665	26
0	698	1553.162040759077	27
0	702	1570.137080280809	28
0	705	1573.274776966163	29
0	708	1580.777479436213	30
0	721	1617.45004086707	31
0	723	1618.19945656825	32
0	728	1639.564752723533	33
0	735	1659.579680344184	34
0	737	1661.084268464403	35
0	739	1661.820909129658	36
0	741	1664.226597667918	37
0	744	1670.65600116995	38
0	752	1692.733021911401	37
0	754	1693.122160938568	38
0	757	1696.792034829513	38
0	759	1706.576033597084	39
0	768	1737.584751462818	39
0	781	1762.88645240741	37
0	783	1764.52628129551	38
0	785	1771.345773685681	39
0	789	1782.840199138905	40
0	792	1787.099373712175	41
0	794	1790.474069399335	42
0	796	1798.639424257225	43
0	802	1811.071683779677	44
0	805	1815.698051184562	45
0	807	1818.193629922128	46
0	809	1819.927956121786	47
0	817	1841.53335381805	46
0	819	1848.825722193123	47
0	821	1851.803641447519	48
0	825	1871.596090993364	48
0	827	1873.039811236144	49
0	829	1888.636690117927	50
0	831	1889.72021430197	51
0	840	1908.068432641432	51
0	844	1917.112298752113	52
0	854	1928.548868381647	53
0	856	1943.202172054068	54
0	858	1943.853450068646	55
0	860	1947.491857768771	56
0	863	1952.257540051665	57
0	865	1953.894543985779	58
0	871	1967.391884018465	58
0	873	1968.953078841886	59
0	877	1975.753052079742	60
0	881	1980.675212583733	61
0	883	1984.434920620764	62
0	885	1988.17588147654	63
0	891	1997.039189549181	64
0	894	2006.675050578551	65
0	897	2013.603734137001	66
0	899	2013.712213650688	67
0	904	2016.571851117598	68
0	906	2017.433573627472	69
0	908	2021.377678270243	70
0	912	2031.751956071526	71
0	917	2052.242150349561	72
0	922	2060.513224836688	73
0	924	2061.071047269637	74
0	928	2085.179997703273	74
0	930	2087.200259857916	75
0	942	2124.846046838009	71
0	949	2147.294971925394	71
0	959	2181.080498134622	70
0	961	2182.839138302258	71
0	965	2191.644797750578	70
0	973	2213.834378504324	68
0	975	2216.879486632086	69
0	979	2221.076484284912	70
0	982	2225.648999783634	71
0	986	2236.923596929798	70
0	989	2243.644770406919	70
0	991	2265.943846688117	71
0	995	2278.84125004028	72
0	1011	2325.20156429716	69
0	1013	2335.233532933645	70
0	1017	2345.440787043552	69
0	1024	2357.58083537246	68
0	1027	2362.672863402485	68
0	1030	2380.495826501538	68
0	1034	2387.22080609807	67
0	1040	2408.542308582601	64
0	1042	2410.226325649505	65
0	1047	2413.640233561452	66
0	1050	2421.961824707125	66
0	1054	2439.826725366544	65
0	1057	2448.966925486014	65
0	1064	2457.299839417518	63
0	1066	2461.289238194113	64
0	1073	2473.170198392813	65
0	1076	2481.059061575314	66
1	128	353.474320604805	3
1	129	353.727058868405	3
1	130	358.199815137765	2
1	131	358.754117232136	1
1	136	362.221650059944	1
1	137	370.826935076964	1
1	138	372.880165798916	0
1	140	388.918922681755	0
1	142	391.684997140054	1
1	144	393.513447054423	2
1	145	395.875416577011	2
1	147	396.818932124983	2
1	148	401.120682286996	2
1	149	407.101899561077	1
1	151	411.073237962121	1
1	152	412.00909296671	1
1	153	414.785012877853	0
1	155	418.275100492741	0
1	157	419.589888907062	1
1	159	420.361511980791	2
1	161	431.413467444418	3
1	163	433.346302192891	4
1	170	445.432556060841	5
1	172	446.898056891252	6
1	174	452.464970409519	6
1	175	453.861537933348	5
1	176	455.002416695681	4
1	178	457.624761079718	4
1	179	460.036809647056	4
1	181	462.992411790454	4
1	182	466.819242737947	4
1	183	467.907924910756	3
1	187	474.482324020576	2
1	189	477.732048514976	2
1	191	479.565660162456	3
1	192	479.933983509125	3
1	193	484.724370907533	2
1	194	487.090212410336	1
1	195	488.939535994968	0
1	200	506.907177080105	0
1	202	508.184710933496	1
1	204	513.794651262729	2
1	205	520.569501697564	2
1	207	522.6230811356	2
1	209	525.703729907631	3
1	211	526.760700204932	4
1	213	529.153394214765	5
1	218	536.576731663828	6
1	222	538.986210414381	7
1	224	542.139596743865	8
1	227	549.542459884891	9
1	229	551.855074966976	10
1	231	552.96415021486	11
1	233	555.292798021475	12
1	235	555.530199892277	13
1	236	555.999755780004	13
1	238	557.386578317167	13
1	239	557.657204940955	13
1	241	558.581549090794	13
1	242	559.483303237508	13
1	243	561.868317025819	12
1	245	564.674090514164	12
1	247	566.996941240385	13
1	249	567.198732359307	14
1	251	567.806075160641	15
1	255	585.14514639483	15
1	256	589.414393427182	14
1	257	594.748320671118	13
1	258	598.274381598067	12
1	262	599.368227092208	12
1	267	609.617173713877	13
1	269	618.765200043476	14
1	271	628.111450699737	15
1	279	643.978860644792	16
1	284	656.742284483357	16
1	285	670.185096243393	15
1	287	670.76103880654	15
1	289	673.781192419499	16
1	290	675.335860055042	16
1	292	677.024116712335	16
1	293	677.063698560112	16
1	297	680.55874114572	16
1	301	690.106648260074	17
1	304	695.833009998525	18
1	307	706.460375203675	19
1	308	707.318212565873	19
1	310	710.189187192976	19
1	312	714.031277994825	20
1	313	716.912103369202	20
1	314	717.853785366936	19
1	315	726.887597662904	18
1	316	728.90679241704	17
1	320	739.556468157491	16
1	322	746.56073465194	16
1	324	747.335346081218	17
1	326	752.507465201618	18
1	327	754.132977941991	18
1	328	760.724305437349	17
1	329	760.969116171012	16
1	331	764.711850508577	16
1	332	765.264240256237	16
1	339	777.058766382745	15
1	341	779.392366829766	15
1	351	798.727175529999	16
1	359	805.745986193468	17
1	362	809.376814129608	18
1	364	814.345620529679	19
1	366	816.943428381458	20
1	368	820.20186011876	21
1	371	823.652287563037	22
1	373	823.852341833642	23
1	376	838.965598310374	24
1	380	849.665848546355	25
1	383	855.20014544701	26
1	388	871.717698180917	26
1	392	874.938272861615	26
1	394	875.642170742283	27
1	396	878.916392601563	28
1	398	880.194743129377	29
1	400	897.890534596376	29
1	401	898.964306291129	28
1	405	908.302664689417	28
1	407	912.880118731235	29
1	409	914.154013521909	30
1	411	918.221453502094	31
1	413	920.466740367527	32
1	415	921.269617257342	33
1	418	928.270388860147	34
1	419	932.87932378345	34
1	420	936.474322572103	33
1	421	937.695992483096	32
1	423	940.769429665337	32
1	425	946.937388544451	33
1	427	948.378059082212	34
1	428	954.361629466715	34
1	429	954.936464506958	33
1	431	961.276425471982	33
1	432	966.256670953597	33
1	433	967.016863705801	32
1	435	968.857171976466	32
1	439	975.340680858185	32
1	440	978.977462032601	31
1	441	984.056069506892	30
1	442	985.216248989426	29
1	444	985.637922849169	29
1	449	990.293399767415	30
1	450	992.711549032466	30
1	451	993.737849237003	29
1	453	994.830844296818	29
1	454	1000.696937303629	29
1	458	1006.809630873742	29
1	460	1008.576925158246	30
1	466	1025.702611347249	31
1	468	1025.859092540039	32
1	469	1026.024742496872	32
1	470	1026.603385839895	31
1	474	1032.037129145877	31
1	480	1039.660424487586	32
1	481	1040.856254395568	32
1	483	1044.334527619919	32
1	484	1049.060487193823	32
1	485	1051.38028865376	31
1	489	1058.104759765632	30
1	490	1061.471258163403	29
1	491	1064.76960640601	28
1	495	1069.794077147459	28
1	497	1079.619732593181	28
1	498	1083.86701396804	27
1	500	1092.429440543177	27
1	501	1092.695804115446	27
1	502	1098.983521996413	26
1	504	1099.606014265835	26
1	505	1102.829668932357	26
1	506	1106.752018637246	25
1	508	1106.988560342246	25
1	510	1108.012979850404	26
1	511	1108.720346853212	26
1	515	1120.1800428392	25
1	516	1124.942418288514	24
1	523	1136.140998633732	24
1	525	1142.257318337436	24
1	532	1157.550368266195	24
1	534	1157.611214525958	25
1	536	1159.257835699373	25
1	537	1160.317026641063	24
1	539	1162.88480480778	24
1	540	1164.786227559333	24
1	541	1165.237930931546	23
1	543	1166.784023230992	23
1	544	1174.924375283147	23
1	548	1185.447799949105	22
1	549	1187.648879146024	21
1	551	1201.198363559256	21
1	552	1205.199447391514	21
1	553	1210.351524240885	20
1	554	1216.143550483003	19
1	555	1216.375100414467	18
1	556	1218.474560776485	17
1	557	1220.099884247318	16
1	559	1233.994475151404	16
1	561	1234.638255782988	17
1	563	1245.207501304281	18
1	565	1252.287471471351	19
1	567	1252.958309372731	20
1	569	1255.544300550687	21
1	571	1257.702205050436	22
1	572	1263.119559163615	22
1	574	1273.575107147716	22
1	575	1280.810375712102	22
1	577	1282.000157476293	22
1	582	1308.042757533478	23
1	583	1311.138599922099	23
1	584	1316.472603759994	22
1	585	1317.070997601045	21
1	586	1317.764278849302	20
1	587	1322.404821379298	19
1	589	1322.442427890273	19
1	590	1330.644417854692	19
1	591	1337.2144218592	18
1	592	1346.421612493273	17
1	593	1349.72419716222	16
1	594	1352.202588286751	15
1	595	1352.321353287814	14
1	597	1354.450041299215	14
1	599	1359.808667138904	15
1	601	1365.567060418044	16
1	602	1372.36239219877	16
1	603	1373.403767102699	15
1	605	1379.527834508314	15
1	606	1383.535430915976	15
1	607	1383.56378968851	14
1	608	1384.169326394241	13
1	609	1388.006965362368	12
1	611	1388.343387569061	12
1	612	1388.633617512378	12
1	614	1391.530722183322	12
1	615	1395.604970984737	12
1	617	1395.987648763864	12
1	618	1397.194311072257	12
1	622	1402.539151177519	11
1	626	1405.73259010185	11
1	629	1407.59546398581	12
1	630	1416.8100053681	12
1	631	1417.474627755479	11
1	633	1421.052419772988	11
1	634	1421.855158269485	11
1	644	1465.665298626496	11
1	653	1483.14063802135	12
1	657	1486.981162243963	13
1	659	1490.211591955959	14
1	661	1492.475700231023	15
1	663	1493.600893495466	16
1	665	1496.620248682547	17
1	668	1499.251009617682	18
1	670	1501.190745310615	19
1	675	1503.555027487292	20
1	677	1503.84271439289	21
1	679	1507.41017972299	22
1	684	1530.291608934717	23
1	686	1530.384925280363	24
1	690	1537.457528739665	25
1	698	1553.162040759077	26
1	702	1570.137080280809	27
1	705	1573.274776966163	28
1	708	1580.777479436213	29
1	721	1617.45004086707	30
1	723	1618.19945656825	31
1	728	1639.564752723533	32
1	735	1659.579680344184	33
1	737	1661.084268464403	34
1	739	1661.820909129658	35
1	741	1664.226597667918	36
1	744	1670.65600116995	37
1	749	1680.886189374644	37
1	750	1683.394381819916	36
1	752	1692.733021911401	36
1	754	1693.122160938568	37
1	755	1696.01375748719	37
1	757	1696.792034829513	37
1	759	1706.576033597084	38
1	760	1720.132323265611	38
1	768	1737.584751462818	38
1	769	1739.457838107688	38
1	770	1741.702607257374	37
1	771	1745.281362896275	36
1	781	1762.88645240741	36
1	783	1764.52628129551	37
1	785	1771.345773685681	38
1	789	1782.840199138905	39
1	792	1787.099373712175	40
1	794	1790.474069399335	41
1	796	1798.639424257225	42
1	802	1811.071683779677	43
1	805	1815.698051184562	44
1	807	1818.193629922128	45
1	809	1819.927956121786	46
1	812	1832.547517710329	46
1	813	1838.378617218013	45
1	817	1841.53335381805	45
1	819	1848.825722193123	46
1	821	1851.803641447519	47
1	823	1865.839352922554	47
1	825	1871.596090993364	47
1	827	1873.039811236144	48
1	829	1888.636690117927	49
1	831	1889.72021430197	50
1	832	1893.519534695502	50
1	840	1908.068432641432	50
1	844	1917.112298752113	51
1	854	1928.548868381647	52
1	856	1943.202172054068	53
1	858	1943.853450068646	54
1	860	1947.491857768771	55
1	863	1952.257540051665	56
1	865	1953.894543985779	57
1	867	1961.883782027226	57
1	871	1967.391884018465	57
1	873	1968.953078841886	58
1	877	1975.753052079742	59
1	881	1980.675212583733	60
1	883	1984.434920620764	61
1	885	1988.17588147654	62
1	891	1997.039189549181	63
1	894	2006.675050578551	64
1	897	2013.603734137001	65
1	899	2013.712213650688	66
1	904	2016.571851117598	67
1	906	2017.433573627472	68
1	908	2021.377678270243	69
1	912	2031.751956071526	70
1	917	2052.242150349561	71
1	922	2060.513224836688	72
1	924	2061.071047269637	73
1	926	2084.662761164515	73
1	928	2085.179997703273	73
1	930	2087.200259857916	74
1	931	2092.319033179315	74
1	932	2110.774966137028	73
1	933	2114.297573324169	72
1	934	2118.199894878377	71
1	935	2118.313516498397	70
1	942	2124.846046838009	70
1	947	2142.935923442178	70
1	949	2147.294971925394	70
1	956	2172.99750839478	70
1	957	2177.348665738518	69
1	959	2181.080498134622	69
1	961	2182.839138302258	70
1	962	2186.748554810828	70
1	963	2189.011647029442	69
1	965	2191.644797750578	69
1	969	2199.238841691685	69
1	970	2209.66702606326	68
1	971	2213.41234938432	67
1	973	2213.834378504324	67
1	975	2216.879486632086	68
1	979	2221.076484284912	69
1	982	2225.648999783634	70
1	983	2226.882460461462	70
1	984	2227.154539498943	69
1	986	2236.923596929798	69
1	987	2243.581758362996	69
1	989	2243.644770406919	69
1	991	2265.943846688117	70
1	995	2278.84125004028	71
1	997	2287.025055931666	71
1	998	2290.90630459923	70
1	999	2296.878896203464	69
1	1006	2320.695049884845	68
1	1011	2325.20156429716	68
1	1013	2335.233532933645	69
1	1014	2336.948672375623	69
1	1015	2338.125818383709	68
1	1017	2345.440787043552	68
1	1018	2347.804232262503	68
1	1019	2348.178833527049	67
1	1024	2357.58083537246	67
1	1025	2361.747616940936	67
1	1027	2362.672863402485	67
1	1028	2377.456748013495	67
1	1030	2380.495826501538	67
1	1031	2382.89520810669	67
1	1032	2383.176262760365	66
1	1034	2387.22080609807	66
1	1035	2387.466191961441	66
1	1036	2393.027468080117	65
1	1037	2396.411863731842	64
1	1038	2401.919170953536	63
1	1040	2408.542308582601	63
1	1042	2410.226325649505	64
1	1047	2413.640233561452	65
1	1048	2420.235062582341	65
1	1050	2421.961824707125	65
1	1051	2437.03872574798	65
1	1052	2438.434087853602	64
1	1054	2439.826725366544	64
1	1055	2439.991697984853	64
1	1057	2448.966925486014	64
1	1058	2449.078241042741	64
1	1059	2449.816243261988	63
1	1060	2451.090219056425	62
1	1064	2457.299839417518	62
1	1066	2461.289238194113	63
1	1073	2473.170198392813	64
1	1076	2481.059061575314	65
1	1081	2498.777613055608	65
2	129	353.727058868405	30
2	130	358.199815137765	31
2	131	358.754117232136	32
2	137	370.826935076964	33
2	138	372.880165798916	34
2	145	395.875416577011	35
2	148	401.120682286996	36
2	149	407.101899561077	37
2	152	412.00909296671	38
2	153	414.785012877853	39
2	174	452.464970409519	40
2	175	453.861537933348	41
2	176	455.002416695681	42
2	179	460.036809647056	43
2	182	466.819242737947	44
2	183	467.907924910756	45
2	187	474.482324020576	46
2	192	479.933983509125	47
2	193	484.724370907533	48
2	194	487.090212410336	49
2	195	488.939535994968	50
2	205	520.569501697564	51
2	236	555.999755780004	52
2	239	557.657204940955	53
2	242	559.483303237508	54
2	243	561.868317025819	55
2	255	585.14514639483	56
2	256	589.414393427182	57
2	257	594.748320671118	58
2	258	598.274381598067	59
2	284	656.742284483357	60
2	285	670.185096243393	61
2	290	675.335860055042	62
2	293	677.063698560112	63
2	308	707.318212565873	64
2	313	716.912103369202	65
2	314	717.853785366936	66
2	315	726.887597662904	67
2	316	728.90679241704	68
2	320	739.556468157491	69
2	327	754.132977941991	70
2	328	760.724305437349	71
2	329	760.969116171012	72
2	332	765.264240256237	73
2	339	777.058766382745	74
2	388	871.717698180917	75
2	400	897.890534596376	76
2	401	898.964306291129	77
2	419	932.87932378345	78
2	420	936.474322572103	79
2	421	937.695992483096	80
2	428	954.361629466715	81
2	429	954.936464506958	82
2	432	966.256670953597	83
2	433	967.016863705801	84
2	439	975.340680858185	85
2	440	978.977462032601	86
2	441	984.056069506892	87
2	442	985.216248989426	88
2	450	992.711549032466	89
2	451	993.737849237003	90
2	454	1000.696937303629	91
2	469	1026.024742496872	92
2	470	1026.603385839895	93
2	481	1040.856254395568	94
2	484	1049.060487193823	95
2	485	1051.38028865376	96
2	489	1058.104759765632	97
2	490	1061.471258163403	98
2	491	1064.76960640601	99
2	497	1079.619732593181	100
2	498	1083.86701396804	101
2	501	1092.695804115446	102
2	502	1098.983521996413	103
2	505	1102.829668932357	104
2	506	1106.752018637246	105
2	511	1108.720346853212	106
2	515	1120.1800428392	107
2	516	1124.942418288514	108
2	525	1142.257318337436	109
2	536	1159.257835699373	110
2	537	1160.317026641063	111
2	540	1164.786227559333	112
2	541	1165.237930931546	113
2	544	1174.924375283147	114
2	548	1185.447799949105	115
2	549	1187.648879146024	116
2	552	1205.199447391514	117
2	553	1210.351524240885	118
2	554	1216.143550483003	119
2	555	1216.375100414467	120
2	556	1218.474560776485	121
2	557	1220.099884247318	122
2	572	1263.119559163615	123
2	575	1280.810375712102	124
2	583	1311.138599922099	125
2	584	1316.472603759994	126
2	585	1317.070997601045	127
2	586	1317.764278849302	128
2	587	1322.404821379298	129
2	590	1330.644417854692	130
2	591	1337.2144218592	131
2	592	1346.421612493273	132
2	593	1349.72419716222	133
2	594	1352.202588286751	134
2	595	1352.321353287814	135
2	602	1372.36239219877	136
2	603	1373.403767102699	137
2	606	1383.535430915976	138
2	607	1383.56378968851	139
2	608	1384.169326394241	140
2	609	1388.006965362368	141
2	612	1388.633617512378	142
2	615	1395.604970984737	143
2	618	1397.194311072257	144
2	622	1402.539151177519	145
2	630	1416.8100053681	146
2	631	1417.474627755479	147
2	634	1421.855158269485	148
2	749	1680.886189374644	149
2	750	1683.394381819916	150
2	755	1696.01375748719	151
2	760	1720.132323265611	152
2	769	1739.457838107688	153
2	770	1741.702607257374	154
2	771	1745.281362896275	155
2	812	1832.547517710329	156
2	813	1838.378617218013	157
2	823	1865.839352922554	158
2	832	1893.519534695502	159
2	867	1961.883782027226	160
2	926	2084.662761164515	161
2	931	2092.319033179315	162
2	932	2110.774966137028	163
2	933	2114.297573324169	164
2	934	2118.199894878377	165
2	935	2118.313516498397	166
2	947	2142.935923442178	167
2	956	2172.99750839478	168
2	957	2177.348665738518	169
2	962	2186.748554810828	170
2	963	2189.011647029442	171
2	969	2199.238841691685	172
2	970	2209.66702606326	173
2	971	2213.41234938432	174
2	983	2226.882460461462	175
2	984	2227.154539498943	176
2	987	2243.581758362996	177
2	997	2287.025055931666	178
2	998	2290.90630459923	179
2	999	2296.878896203464	180
2	1006	2320.695049884845	181
2	1014	2336.948672375623	182
2	1015	2338.125818383709	183
2	1018	2347.804232262503	184
2	1019	2348.178833527049	185
2	1025	2361.747616940936	186
2	1028	2377.456748013495	187
2	1031	2382.89520810669	188
2	1032	2383.176262760365	189
2	1035	2387.466191961441	190
2	1036	2393.027468080117	191
2	1037	2396.411863731842	192
2	1038	2401.919170953536	193
2	1048	2420.235062582341	194
2	1051	2437.03872574798	195
2	1052	2438.434087853602	196
2	1055	2439.991697984853	197
2	1058	2449.078241042741	198
2	1059	2449.816243261988	199
2	1060	2451.090219056425	200
2	1081	2498.777613055608	201
3	129	353.727058868405	21.508995020264
3	130	358.199815137765	23.280924164059
3	131	358.754117232136	10.69357705504
3	137	370.826935076964	9.962399248753
3	138	372.880165798916	10.658515738972
3	145	395.875416577011	6.956493895256
3	148	401.120682286996	9.435685146942
3	149	407.101899561077	13.588452506654
3	152	412.00909296671	15.190160841727
3	153	414.785012877853	3.711774915732
3	174	452.464970409519	32.875081502457
3	175	453.861537933348	33.500025952557
3	176	455.002416695681	23.588949251263
3	179	460.036809647056	26.690507454165
3	182	466.819242737947	32.626750744314
3	183	467.907924910756	22.475368849915
3	187	474.482324020576	16.857562940858
3	192	479.933983509125	16.941571718671
3	193	484.724370907533	11.306245246967
3	194	487.090212410336	9.35816389536
3	195	488.939535994968	9.373875832512
3	205	520.569501697564	13.662324617459
3	236	555.999755780004	33.376674644404
3	239	557.657204940955	31.953475033324
3	242	559.483303237508	32.722603032576
3	243	561.868317025819	32.714922811054
3	255	585.14514639483	48.568414731002
3	256	589.414393427182	51.783494573476
3	257	594.748320671118	55.762110256737
3	258	598.274381598067	56.134784854202
3	284	656.742284483357	103.7781342685
3	285	670.185096243393	114.89229822192
3	290	675.335860055042	119.80566016276
3	293	677.063698560112	119.67712024294
3	308	707.318212565873	142.64412205171
3	313	716.912103369202	149.91516212882
3	314	717.853785366936	150.65505300763
3	315	726.887597662904	159.08152250226
3	316	728.90679241704	152.02127225175
3	320	739.556468157491	140.18824106528
3	327	754.132977941991	146.16220628756
3	328	760.724305437349	151.10713172347
3	329	760.969116171012	142.20391612754
3	332	765.264240256237	137.1527895565
3	339	777.058766382745	106.2977275762
3	388	871.717698180917	181.61104992084
3	400	897.890534596376	191.4301593927
3	401	898.964306291129	188.77511909815
3	419	932.87932378345	203.19507261871
3	420	936.474322572103	189.91358792016
3	421	937.695992483096	190.36064640188
3	428	954.361629466715	201.8541642651
3	429	954.936464506958	190.22461399838
3	432	966.256670953597	200.80364817971
3	433	967.016863705801	187.62449687603
3	439	975.340680858185	183.41019245496
3	440	978.977462032601	183.82182910621
3	441	984.056069506892	185.32889397689
3	442	985.216248989426	179.47026279596
3	450	992.711549032466	178.36592850279
3	451	993.737849237003	176.79442085554
3	454	1000.696937303629	180.49507718487
3	469	1026.024742496872	202.17240066323
3	470	1026.603385839895	187.63778752952
3	481	1040.856254395568	177.10415006766
3	484	1049.060487193823	176.7896808256
3	485	1051.38028865376	176.44201579214
3	489	1058.104759765632	179.18836716407
3	490	1061.471258163403	181.27651503403
3	491	1064.76960640601	163.35762635394
3	497	1079.619732593181	166.73961386195
3	498	1083.86701396804	169.71300044613
3	501	1092.695804115446	174.47435061335
3	502	1098.983521996413	178.51678162889
3	505	1102.829668932357	181.56005167501
3	506	1106.752018637246	178.4816297771
3	511	1108.720346853212	167.95091718788
3	515	1120.1800428392	171.80198375699
3	516	1124.942418288514	163.66599281653
3	525	1142.257318337436	156.61939548827
3	536	1159.257835699373	164.42699140255
3	537	1160.317026641063	153.72382664628
3	540	1164.786227559333	157.97659668559
3	541	1165.237930931546	156.6610057733
3	544	1174.924375283147	149.2217639359
3	548	1185.447799949105	158.06685925313
3	549	1187.648879146024	155.61175000015
3	552	1205.199447391514	166.96360992217
3	553	1210.351524240885	170.6910997533
3	554	1216.143550483003	171.80902286308
3	555	1216.375100414467	164.52044581786
3	556	1218.474560776485	150.01723641744
3	557	1220.099884247318	150.30580709986
3	572	1263.119559163615	170.69011862044
3	575	1280.810375712102	181.20436144627
3	583	1311.138599922099	203.12562007169
3	584	1316.472603759994	201.35802273759
3	585	1317.070997601045	192.02077343618
3	586	1317.764278849302	186.17582209278
3	587	1322.404821379298	186.26382274557
3	590	1330.644417854692	184.64712766186
3	591	1337.2144218592	181.55855644222
3	592	1346.421612493273	188.87124422708
3	593	1349.72419716222	192.11298263626
3	594	1352.202588286751	189.31778347897
3	595	1352.321353287814	185.53733005682
3	602	1372.36239219877	192.88223367518
3	603	1373.403767102699	172.20540354344
3	606	1383.535430915976	149.54095576457
3	607	1383.56378968851	148.92553390552
3	608	1384.169326394241	138.96182508996
3	609	1388.006965362368	135.71949389102
3	612	1388.633617512378	135.67530813965
3	615	1395.604970984737	140.06067043405
3	618	1397.194311072257	139.49210602182
3	622	1402.539151177519	120.53899370123
3	630	1416.8100053681	108.76724783462
3	631	1417.474627755479	95.032199865206
3	634	1421.855158269485	67.40511697027
3	749	1680.886189374644	315.3191289566
3	750	1683.394381819916	303.8665473116
3	755	1696.01375748719	307.67036991813
3	760	1720.132323265611	328.60160108229
3	769	1739.457838107688	342.25402334511
3	770	1741.702607257374	338.23081983646
3	771	1745.281362896275	339.54877279443
3	812	1832.547517710329	411.49509793734
3	813	1838.378617218013	416.20394948683
3	823	1865.839352922554	382.6987149012
3	832	1893.519534695502	406.53837245154
3	867	1961.883782027226	469.4080817962
3	926	2084.662761164515	585.41175154683
3	931	2092.319033179315	591.1282878687
3	932	2110.774966137028	607.21993864974
3	933	2114.297573324169	610.45485893128
3	934	2118.199894878377	610.78971515539
3	935	2118.313516498397	588.02190756368
3	947	2142.935923442178	605.47839470251
3	956	2172.99750839478	602.86042811397
3	957	2177.348665738518	604.07388877235
3	962	2186.748554810828	605.97107537461
3	963	2189.011647029442	571.56160616237
3	969	2199.238841691685	559.67408896815
3	970	2209.66702606326	550.08734571908
3	971	2213.41234938432	552.32808091992
3	983	2226.882460461462	562.65586279354
3	984	2227.154539498943	556.49853832899
3	987	2243.581758362996	550.84873645159
3	997	2287.025055931666	590.23302110215
3	998	2290.90630459923	584.33027100215
3	999	2296.878896203464	571.70532665395
3	1006	2320.695049884845	557.80859747744
3	1014	2336.948672375623	565.60289868994
3	1015	2338.125818383709	555.2856192448
3	1018	2347.804232262503	560.70485855033
3	1019	2348.178833527049	557.70476412771
3	1025	2361.747616940936	550.67593316126
3	1028	2377.456748013495	561.75869682893
3	1031	2382.89520810669	564.70157818456
3	1032	2383.176262760365	563.24830663858
3	1035	2387.466191961441	547.23772005239
3	1036	2393.027468080117	551.49411426207
3	1037	2396.411863731842	547.58614153872
3	1038	2401.919170953536	550.11552950602
3	1048	2420.235062582341	547.1952513462
3	1051	2437.03872574798	548.40203563005
3	1052	2438.434087853602	548.71387355163
3	1055	2439.991697984853	543.60382670638
3	1058	2449.078241042741	541.00980840131
3	1059	2449.816243261988	532.70394450987
3	1060	2451.090219056425	522.54135067478
3	1081	2498.777613055608	546.52007300394
4	129	353.727058868405	18.808167894699
4	130	358.199815137765	10.139274960669
4	131	358.754117232136	5.279796627331
4	134	361.012696986607	0.148161158396
4	137	370.826935076964	8.60528501702
4	140	388.918922681755	0
4	145	395.875416577011	4.190419436957
4	148	401.120682286996	7.607235232573
4	149	407.101899561077	10.282967436094
4	152	412.00909296671	0.935855004589
4	155	418.275100492741	0
4	173	447.856342511146	28.266453604084
4	174	452.464970409519	32.103458428728
4	175	453.861537933348	22.44807048893
4	176	455.002416695681	21.65611450279
4	179	460.036809647056	25.844317653423
4	182	466.819242737947	21.386686677106
4	183	467.907924910756	21.009868019504
4	186	473.77995529478	16.155194215062
4	187	474.482324020576	11.489912230122
4	192	479.933983509125	6.515857848559
4	193	484.724370907533	6.992322392557
4	194	487.090212410336	7.52455224788
4	200	506.907177080105	0
4	205	520.569501697564	12.384790764068
4	216	536.08497787783	22.290326615101
4	225	547.65217779329	25.02909665769
4	236	555.999755780004	30.296025872373
4	239	557.657204940955	30.896504736023
4	242	559.483303237508	30.329909022743
4	243	561.868317025819	28.205326305523
4	254	584.669164929771	48.092433265943
4	255	585.14514639483	47.514247541124
4	256	589.414393427182	50.428183012801
4	257	594.748320671118	52.608723927253
4	258	598.274381598067	48.731921713176
4	263	606.005977212681	54.150902245705
4	283	652.805189124096	99.841038909236
4	284	656.742284483357	101.44948646188
4	285	670.185096243393	114.65489635112
4	290	675.335860055042	117.94928173787
4	293	677.063698560112	118.48214946932
4	305	701.224064661883	136.54997414772
4	308	707.318212565873	140.32127132549
4	313	716.912103369202	149.71337100989
4	314	717.853785366936	150.04771020629
4	315	726.887597662904	150.00207749762
4	316	728.90679241704	129.62192263386
4	319	731.555702310813	132.1874752186
4	320	739.556468157491	131.58569650306
4	327	754.132977941991	144.51580422811
4	328	760.724305437349	141.95910539387
4	329	760.969116171012	132.85766547127
4	332	765.264240256237	121.28537961144
4	338	772.446952520142	101.6859137136
4	339	777.058766382745	103.27757396325
4	344	790.905213588406	113.88109687607
4	347	793.927593412633	114.18743975483
4	384	860.955796364087	180.39705521837
4	387	864.960347774696	174.85369951462
4	388	871.717698180917	175.88468818239
4	399	883.564421005118	177.10404580144
4	400	897.890534596376	187.7013474034
4	401	898.964306291129	184.9330282963
4	416	923.537447732763	193.85319656802
4	419	932.87932378345	186.31858913151
4	420	936.474322572103	189.13897649088
4	421	937.695992483096	185.18852728148
4	428	954.361629466715	189.64977895814
4	429	954.936464506958	189.48344173307
4	432	966.256670953597	186.86430412383
4	433	967.016863705801	178.04355733541
4	438	975.120399700322	183.18991129709
4	439	975.340680858185	180.18504793179
4	440	978.977462032601	180.2502865026
4	441	984.056069506892	178.31008331342
4	442	985.216248989426	175.83943485982
4	447	988.833994750667	174.48837422099
4	450	992.711549032466	175.76812065101
4	451	993.737849237003	173.53598911824
4	454	1000.696937303629	177.04464974059
4	464	1021.490014408804	197.63767257516
4	469	1026.024742496872	187.0591441865
4	470	1026.603385839895	176.93753729354
4	475	1036.144798672666	180.94465322566
4	478	1038.96015388977	175.20804956186
4	481	1040.856254395568	168.58544802735
4	484	1049.060487193823	174.12221433221
4	485	1051.38028865376	175.73811791148
4	488	1052.741714371661	173.8253217701
4	489	1058.104759765632	177.91001663625
4	490	1061.471258163403	160.05927811133
4	491	1064.76960640601	156.46694171659
4	496	1073.702675229575	160.82255649834
4	497	1079.619732593181	165.46571907127
4	498	1083.86701396804	165.64556046595
4	501	1092.695804115446	172.22906374792
4	502	1098.983521996413	177.71390473907
4	505	1102.829668932357	174.55928007221
4	506	1106.752018637246	165.98258897191
4	511	1108.720346853212	161.78295830876
4	514	1118.466752612658	170.08869353045
4	515	1120.1800428392	158.90361736722
4	516	1124.942418288514	156.08524631205
4	519	1129.182550724628	154.40688071199
4	524	1136.439258918903	150.80133606973
4	525	1142.257318337436	154.22003296605
4	528	1151.698534724409	161.40513495699
4	535	1158.663114247338	163.83226995052
4	536	1159.257835699373	152.66463570459
4	537	1160.317026641063	153.50739576732
4	540	1164.786227559333	156.20930240109
4	541	1165.237930931546	139.5353195843
4	544	1174.924375283147	149.06528274311
4	547	1184.939739576933	157.55879888096
4	548	1185.447799949105	153.41067080323
4	549	1187.648879146024	149.41304167668
4	552	1205.199447391514	165.53902290393
4	553	1210.351524240885	166.01699662097
4	554	1216.143550483003	164.2888958864
4	555	1216.375100414467	147.91777605543
4	556	1218.474560776485	148.68048362903
4	557	1220.099884247318	127.67044370414
4	572	1263.119559163615	163.51354489778
4	575	1280.810375712102	173.82181536986
4	580	1290.975440680312	182.96246082991
4	583	1311.138599922099	196.0240188997
4	584	1316.472603759994	191.42237959513
4	585	1317.070997601045	185.48254084453
4	586	1317.764278849302	181.62328021557
4	587	1322.404821379298	176.40753118647
4	590	1330.644417854692	174.98855243772
4	591	1337.2144218592	179.66405359301
4	592	1346.421612493273	188.81039796731
4	593	1349.72419716222	186.83939235444
4	594	1352.202588286751	185.41856505576
4	595	1352.321353287814	172.84119476422
4	602	1372.36239219877	171.16402863951
4	603	1373.403767102699	139.40929195129
4	606	1383.535430915976	148.89717513299
4	607	1383.56378968851	138.35628838423
4	608	1384.169326394241	131.88185492289
4	609	1388.006965362368	135.04865598964
4	612	1388.633617512378	133.08931696169
4	615	1395.604970984737	137.9027659343
4	618	1397.194311072257	123.61920392454
4	621	1399.739943015873	117.73978553958
4	622	1402.539151177519	114.8695321765
4	627	1406.792784988094	98.750027454616
4	630	1416.8100053681	94.367577477827
4	631	1417.474627755479	63.024586456264
4	634	1421.855158269485	62.046491130581
4	748	1678.642789946563	313.07572952852
4	749	1680.886189374644	301.35835486633
4	750	1683.394381819916	295.05099425086
4	755	1696.01375748719	304.48303530387
4	760	1720.132323265611	324.14467450175
4	766	1736.9208357741	339.71702101153
4	769	1739.457838107688	335.98605068677
4	770	1741.702607257374	335.97001715552
4	771	1745.281362896275	337.68589891046
4	811	1829.076933269388	408.0245134964
4	812	1832.547517710329	410.37284997915
4	813	1838.378617218013	372.71331859152
4	822	1863.563543246491	380.42290522514
4	823	1865.839352922554	378.85819067859
4	832	1893.519534695502	403.30794273954
4	866	1961.695810097017	469.22010986599
4	867	1961.883782027226	468.28288853176
4	918	2054.092058568815	557.47180988627
4	925	2080.819302821223	581.56829320354
4	926	2084.662761164515	583.4720158539
4	931	2092.319033179315	588.76400569202
4	932	2110.774966137028	606.93225174414
4	933	2114.297573324169	606.88739360118
4	934	2118.199894878377	587.90828594366
4	935	2118.313516498397	587.92859121803
4	946	2133.352888953636	595.89536021397
4	947	2142.935923442178	589.7738826831
4	955	2172.948045017433	602.81096473662
4	956	2172.99750839478	599.72273142862
4	957	2177.348665738518	596.57118630231
4	962	2186.748554810828	569.29851394376
4	963	2189.011647029442	570.81219046119
4	968	2194.480045707669	554.91529298414
4	969	2199.238841691685	539.6591613475
4	970	2209.66702606326	548.58275759886
4	971	2213.41234938432	551.59144025466
4	980	2225.27055557809	561.04395791017
4	983	2226.882460461462	556.22645929151
4	984	2227.154539498943	534.42151758754
4	987	2243.581758362996	550.45959742443
4	996	2283.139816932184	586.34778210267
4	997	2287.025055931666	580.44902233458
4	998	2290.90630459923	565.73273504971
4	999	2296.878896203464	559.29414474065
4	1002	2302.35636913002	555.46165049598
4	1005	2317.936599153426	555.05014674602
4	1006	2320.695049884845	556.16876858933
4	1009	2324.75808465677	553.41231097109
4	1014	2336.948672375623	554.10847323672
4	1015	2338.125818383709	551.02644467153
4	1018	2347.804232262503	557.33016286317
4	1019	2348.178833527049	549.53940926982
4	1022	2353.482826487073	542.4111427074
4	1025	2361.747616940936	546.04956575637
4	1028	2377.456748013495	559.26311809137
4	1031	2382.89520810669	562.9672519849
4	1032	2383.176262760365	542.94779085132
4	1035	2387.466191961441	545.93283814339
4	1036	2393.027468080117	544.20174588699
4	1037	2396.411863731842	544.60822228432
4	1038	2401.919170953536	530.32307996017
4	1045	2411.721828343842	538.6820171077
4	1048	2420.235062582341	531.59837246441
4	1051	2437.03872574798	547.31851144601
4	1052	2438.434087853602	542.04621657512
4	1055	2439.991697984853	531.92326534342
4	1058	2449.078241042741	531.96594229063
4	1059	2449.816243261988	521.26737488034
4	1060	2451.090219056425	507.88804700236
4	1067	2461.96886340464	518.11541333599
4	1077	2488.794548696196	541.30269092743
4	1080	2498.278366203351	546.02082615169
4	1081	2498.777613055608	544.88306906983
5	133	360.864535828211	1
5	165	434.192491993633	1
5	167	434.455210291892	2
5	185	473.418125660566	1
5	197	494.985859456131	1
5	215	533.662990720296	1
5	220	537.630898853706	1
5	253	576.885520165288	1
5	260	599.284869783182	1
5	265	607.970771654433	1
5	273	634.887930512541	2
5	276	639.653880988209	2
5	281	649.417160232028	2
5	295	679.740153657803	1
5	299	683.74995469966	2
5	318	729.684251164739	1
5	334	765.453022773889	1
5	336	766.43135895336	2
5	343	788.973306370394	1
5	346	791.930488403228	1
5	349	795.155632926391	1
5	353	799.035351057598	2
5	355	800.178837360028	3
5	357	800.927631421423	4
5	378	849.464980582621	2
5	386	863.752104327907	1
5	390	872.270806368218	1
5	403	901.411980052073	1
5	437	974.77567001264	1
5	446	988.037285371389	1
5	456	1006.593199994784	1
5	462	1011.297870756273	2
5	472	1027.380940695977	1
5	477	1038.235837469343	1
5	487	1051.854654596607	1
5	493	1068.457324359042	1
5	513	1115.114581022403	1
5	518	1125.050224164863	1
5	521	1131.588456756517	1
5	527	1145.997290192829	1
5	530	1155.655865416976	1
5	546	1179.480158523593	1
5	579	1287.669619001015	1
5	620	1397.203814762574	1
5	624	1403.471787420916	1
5	636	1422.174667731178	1
5	638	1425.541955577038	2
5	640	1459.809802668981	3
5	642	1463.472783701677	4
5	646	1468.258265090104	5
5	651	1477.030327765908	3
5	655	1483.733119445775	4
5	672	1502.192571971784	4
5	681	1513.824900073327	4
5	688	1535.615523159129	4
5	693	1544.835433568439	4
5	696	1552.405657681915	4
5	700	1554.423249520396	5
5	710	1584.168946148526	4
5	712	1590.380435773746	5
5	714	1596.202799076679	6
5	716	1601.028906960768	7
5	719	1612.419185454763	7
5	731	1646.052593848569	4
5	746	1672.645983898138	2
5	762	1725.173569549517	1
5	764	1734.285532893839	2
5	773	1746.894718634036	1
5	775	1752.682965373174	2
5	777	1753.420297938543	3
5	779	1756.356175216809	4
5	787	1776.492643095432	5
5	800	1805.713256286704	3
5	815	1840.228471909046	1
5	834	1896.387871278477	1
5	836	1902.845844547256	2
5	838	1905.171414237391	3
5	846	1920.059414409871	2
5	849	1923.446138582809	2
5	851	1927.44617853084	3
5	869	1965.473024415792	1
5	875	1974.610237799757	2
5	879	1978.257315432963	3
5	887	1992.92582265826	4
5	889	1995.832788322231	5
5	901	2013.962719486096	4
5	910	2021.902296801776	4
5	920	2056.852604836569	1
5	937	2119.077779893969	1
5	939	2119.880416731758	2
5	944	2127.915740897932	2
5	951	2148.080455696903	1
5	953	2150.521770546261	2
5	967	2193.689164674927	1
5	977	2219.878277341564	1
5	993	2272.375387945966	1
5	1001	2299.072206357407	1
5	1004	2314.179784942103	1
5	1008	2323.85327808203	1
5	1021	2352.473961820584	1
5	1044	2410.291790491198	1
5	1062	2457.099948359269	1
5	1069	2464.026288258992	1
5	1071	2465.224727782946	2
5	1079	2497.285207450237	1
6	133	360.864535828211	0
6	134	361.012696986607	0
6	165	434.192491993633	0
6	167	434.455210291892	1
6	168	437.791494136481	1
6	173	447.856342511146	0
6	185	473.418125660566	0
6	186	473.77995529478	0
6	197	494.985859456131	0
6	198	498.823556480684	0
6	215	533.662990720296	0
6	216	536.08497787783	0
6	220	537.630898853706	0
6	225	547.65217779329	0
6	253	576.885520165288	0
6	254	584.669164929771	0
6	260	599.284869783182	0
6	263	606.005977212681	0
6	265	607.970771654433	0
6	273	634.887930512541	1
6	274	638.056307113912	1
6	276	639.653880988209	1
6	277	642.031563765102	1
6	281	649.417160232028	1
6	282	652.324012816076	1
6	283	652.805189124096	0
6	295	679.740153657803	0
6	299	683.74995469966	1
6	302	690.558811611436	1
6	305	701.224064661883	0
6	318	729.684251164739	0
6	319	731.555702310813	0
6	334	765.453022773889	0
6	336	766.43135895336	1
6	337	766.626277094813	1
6	338	772.446952520142	0
6	343	788.973306370394	0
6	344	790.905213588406	0
6	346	791.930488403228	0
6	347	793.927593412633	0
6	349	795.155632926391	0
6	353	799.035351057598	1
6	355	800.178837360028	2
6	357	800.927631421423	3
6	360	807.276928357475	3
6	369	820.52940643097	2
6	374	835.258027554387	1
6	378	849.464980582621	1
6	381	849.758058961465	1
6	384	860.955796364087	0
6	386	863.752104327907	0
6	387	864.960347774696	0
6	390	872.270806368218	0
6	399	883.564421005118	0
6	403	901.411980052073	0
6	416	923.537447732763	0
6	437	974.77567001264	0
6	438	975.120399700322	0
6	446	988.037285371389	0
6	447	988.833994750667	0
6	456	1006.593199994784	0
6	462	1011.297870756273	1
6	463	1014.715571329885	1
6	464	1021.490014408804	0
6	472	1027.380940695977	0
6	475	1036.144798672666	0
6	477	1038.235837469343	0
6	478	1038.96015388977	0
6	487	1051.854654596607	0
6	488	1052.741714371661	0
6	493	1068.457324359042	0
6	496	1073.702675229575	0
6	513	1115.114581022403	0
6	514	1118.466752612658	0
6	518	1125.050224164863	0
6	519	1129.182550724628	0
6	521	1131.588456756517	0
6	524	1136.439258918903	0
6	527	1145.997290192829	0
6	528	1151.698534724409	0
6	530	1155.655865416976	0
6	535	1158.663114247338	0
6	546	1179.480158523593	0
6	547	1184.939739576933	0
6	579	1287.669619001015	0
6	580	1290.975440680312	0
6	620	1397.203814762574	0
6	621	1399.739943015873	0
6	624	1403.471787420916	0
6	627	1406.792784988094	0
6	636	1422.174667731178	0
6	638	1425.541955577038	1
6	640	1459.809802668981	2
6	642	1463.472783701677	3
6	646	1468.258265090104	4
6	647	1468.801273976492	4
6	648	1471.587039665653	3
6	649	1475.712197882352	2
6	651	1477.030327765908	2
6	655	1483.733119445775	3
6	666	1497.448156622199	3
6	672	1502.192571971784	3
6	673	1502.234424408505	3
6	681	1513.824900073327	3
6	682	1523.514304311834	3
6	688	1535.615523159129	3
6	691	1544.617717353886	3
6	693	1544.835433568439	3
6	694	1548.757347519205	3
6	696	1552.405657681915	3
6	700	1554.423249520396	4
6	703	1571.756135898531	4
6	706	1577.509179597624	3
6	710	1584.168946148526	3
6	712	1590.380435773746	4
6	714	1596.202799076679	5
6	716	1601.028906960768	6
6	717	1606.089663335026	6
6	719	1612.419185454763	6
6	724	1619.519772068268	6
6	725	1625.851981111645	5
6	726	1626.515658963999	4
6	729	1645.914874010868	3
6	731	1646.052593848569	3
6	732	1651.134778224531	3
6	733	1657.56405332268	2
6	742	1666.201454110349	1
6	746	1672.645983898138	1
6	747	1674.044111570326	1
6	748	1678.642789946563	0
6	762	1725.173569549517	0
6	764	1734.285532893839	1
6	765	1735.723234211378	1
6	766	1736.9208357741	0
6	773	1746.894718634036	0
6	775	1752.682965373174	1
6	777	1753.420297938543	2
6	779	1756.356175216809	3
6	787	1776.492643095432	4
6	790	1783.790920661723	4
6	797	1799.771656351538	3
6	798	1803.141859167579	2
6	800	1805.713256286704	2
6	803	1815.191325825848	2
6	810	1825.078922405524	1
6	811	1829.076933269388	0
6	815	1840.228471909046	0
6	822	1863.563543246491	0
6	834	1896.387871278477	0
6	836	1902.845844547256	1
6	838	1905.171414237391	2
6	841	1911.166412888417	2
6	842	1911.575870747562	1
6	846	1920.059414409871	1
6	847	1921.673627636848	1
6	849	1923.446138582809	1
6	851	1927.44617853084	2
6	852	1928.3657766866	2
6	861	1951.513072144184	1
6	866	1961.695810097017	0
6	869	1965.473024415792	0
6	875	1974.610237799757	1
6	879	1978.257315432963	2
6	887	1992.92582265826	3
6	889	1995.832788322231	4
6	892	2004.183361376577	4
6	895	2006.880780690612	3
6	901	2013.962719486096	3
6	902	2014.365001665306	3
6	910	2021.902296801776	3
6	913	2033.962171438092	3
6	914	2034.319126152401	2
6	915	2038.117499104692	1
6	918	2054.092058568815	0
6	920	2056.852604836569	0
6	925	2080.819302821223	0
6	937	2119.077779893969	0
6	939	2119.880416731758	1
6	940	2122.5937985648	1
6	944	2127.915740897932	1
6	945	2130.784457919011	1
6	946	2133.352888953636	0
6	951	2148.080455696903	0
6	953	2150.521770546261	1
6	954	2157.623795732725	1
6	955	2172.948045017433	0
6	967	2193.689164674927	0
6	968	2194.480045707669	0
6	977	2219.878277341564	0
6	980	2225.27055557809	0
6	993	2272.375387945966	0
6	996	2283.139816932184	0
6	1001	2299.072206357407	0
6	1002	2302.35636913002	0
6	1004	2314.179784942103	0
6	1005	2317.936599153426	0
6	1008	2323.85327808203	0
6	1009	2324.75808465677	0
6	1021	2352.473961820584	0
6	1022	2353.482826487073	0
6	1044	2410.291790491198	0
6	1045	2411.721828343842	0
6	1062	2457.099948359269	0
6	1067	2461.96886340464	0
6	1069	2464.026288258992	0
6	1071	2465.224727782946	1
6	1074	2475.287431084017	1
6	1077	2488.794548696196	0
6	1079	2497.285207450237	0
6	1080	2498.278366203351	0
7	133	360.864535828211	9
7	165	434.192491993633	10
7	185	473.418125660566	11
7	215	533.662990720296	12
7	220	537.630898853706	13
7	253	576.885520165288	14
7	260	599.284869783182	15
7	265	607.970771654433	16
7	295	679.740153657803	17
7	318	729.684251164739	18
7	334	765.453022773889	19
7	343	788.973306370394	20
7	346	791.930488403228	21
7	349	795.155632926391	22
7	386	863.752104327907	23
7	390	872.270806368218	24
7	403	901.411980052073	25
7	437	974.77567001264	26
7	446	988.037285371389	27
7	456	1006.593199994784	28
7	472	1027.380940695977	29
7	477	1038.235837469343	30
7	487	1051.854654596607	31
7	493	1068.457324359042	32
7	513	1115.114581022403	33
7	518	1125.050224164863	34
7	521	1131.588456756517	35
7	527	1145.997290192829	36
7	530	1155.655865416976	37
7	546	1179.480158523593	38
7	579	1287.669619001015	39
7	620	1397.203814762574	40
7	624	1403.471787420916	41
7	636	1422.174667731178	42
7	762	1725.173569549517	43
7	773	1746.894718634036	44
7	815	1840.228471909046	45
7	834	1896.387871278477	46
7	869	1965.473024415792	47
7	920	2056.852604836569	48
7	937	2119.077779893969	49
7	951	2148.080455696903	50
7	967	2193.689164674927	51
7	977	2219.878277341564	52
7	993	2272.375387945966	53
7	1001	2299.072206357407	54
7	1004	2314.179784942103	55
7	1008	2323.85327808203	56
7	1021	2352.473961820584	57
7	1044	2410.291790491198	58
7	1062	2457.099948359269	59
7	1069	2464.026288258992	60
7	1079	2497.285207450237	61
8	133	360.864535828211	0
8	165	434.192491993633	0
8	168	437.791494136481	3.336283844589
8	185	473.418125660566	0
8	197	494.985859456131	0
8	215	533.662990720296	0
8	220	537.630898853706	0
8	253	576.885520165288	0
8	260	599.284869783182	0
8	265	607.970771654433	0
8	274	638.056307113912	3.168376601371
8	277	642.031563765102	2.377682776893
8	282	652.324012816076	2.906852584048
8	295	679.740153657803	0
8	302	690.558811611436	6.808856911776
8	318	729.684251164739	0
8	334	765.453022773889	0
8	337	766.626277094813	0.194918141453
8	343	788.973306370394	0
8	346	791.930488403228	0
8	349	795.155632926391	0
8	360	807.276928357475	8.241577299877
8	369	820.52940643097	20.350569070942
8	374	835.258027554387	34.330396132964
8	381	849.758058961465	0.293078378844
8	386	863.752104327907	0
8	390	872.270806368218	0
8	403	901.411980052073	0
8	437	974.77567001264	0
8	446	988.037285371389	0
8	456	1006.593199994784	0
8	463	1014.715571329885	3.417700573612
8	472	1027.380940695977	0
8	477	1038.235837469343	0
8	487	1051.854654596607	0
8	493	1068.457324359042	0
8	513	1115.114581022403	0
8	518	1125.050224164863	0
8	521	1131.588456756517	0
8	527	1145.997290192829	0
8	530	1155.655865416976	0
8	546	1179.480158523593	0
8	579	1287.669619001015	0
8	620	1397.203814762574	0
8	624	1403.471787420916	0
8	636	1422.174667731178	0
8	647	1468.801273976492	43.259318399454
8	648	1471.587039665653	11.777236996672
8	649	1475.712197882352	12.239414180675
8	666	1497.448156622199	29.189891532095
8	673	1502.234424408505	25.204096642597
8	682	1523.514304311834	39.781184866059
8	691	1544.617717353886	42.425145382102
8	694	1548.757347519205	34.932447445878
8	703	1571.756135898531	36.140612739402
8	706	1577.509179597624	32.673746029185
8	717	1606.089663335026	53.684005653111
8	724	1619.519772068268	65.096522547872
8	725	1625.851981111645	41.683034963119
8	726	1626.515658963999	36.135223190253
8	729	1645.914874010868	49.712074934189
8	732	1651.134778224531	50.105871263763
8	733	1657.56405332268	45.144867867917
8	742	1666.201454110349	20.14886026178
8	747	1674.044111570326	1.398127672188
8	762	1725.173569549517	0
8	765	1735.723234211378	1.437701317539
8	773	1746.894718634036	0
8	790	1783.790920661723	31.107955288549
8	797	1799.771656351538	46.351358412995
8	798	1803.141859167579	46.78568395077
8	803	1815.191325825848	38.698682730416
8	810	1825.078922405524	19.36566611882
8	815	1840.228471909046	0
8	834	1896.387871278477	0
8	841	1911.166412888417	8.320568341161
8	842	1911.575870747562	6.404456510171
8	847	1921.673627636848	1.614213226977
8	852	1928.3657766866	4.919638103791
8	861	1951.513072144184	24.066893613344
8	869	1965.473024415792	0
8	892	2004.183361376577	29.57312357682
8	895	2006.880780690612	28.623465257649
8	902	2014.365001665306	21.439179007046
8	913	2033.962171438092	38.129383115861
8	914	2034.319126152401	20.356406666305
8	915	2038.117499104692	16.215202302916
8	920	2056.852604836569	0
8	937	2119.077779893969	0
8	940	2122.5937985648	2.713381833042
8	945	2130.784457919011	2.868717021079
8	951	2148.080455696903	0
8	954	2157.623795732725	7.102025186464
8	967	2193.689164674927	0
8	977	2219.878277341564	0
8	993	2272.375387945966	0
8	1001	2299.072206357407	0
8	1004	2314.179784942103	0
8	1008	2323.85327808203	0
8	1021	2352.473961820584	0
8	1044	2410.291790491198	0
8	1062	2457.099948359269	0
8	1069	2464.026288258992	0
8	1074	2475.287431084017	10.062703301071
8	1079	2497.285207450237	0
9	134	361.012696986607	12
9	168	437.791494136481	13
9	173	447.856342511146	14
9	186	473.77995529478	15
9	198	498.823556480684	16
9	216	536.08497787783	17
9	225	547.65217779329	18
9	254	584.669164929771	19
9	263	606.005977212681	20
9	274	638.056307113912	21
9	277	642.031563765102	22
9	282	652.324012816076	23
9	283	652.805189124096	24
9	302	690.558811611436	25
9	305	701.224064661883	26
9	319	731.555702310813	27
9	337	766.626277094813	28
9	338	772.446952520142	29
9	344	790.905213588406	30
9	347	793.927593412633	31
9	360	807.276928357475	32
9	369	820.52940643097	33
9	374	835.258027554387	34
9	381	849.758058961465	35
9	384	860.955796364087	36
9	387	864.960347774696	37
9	399	883.564421005118	38
9	416	923.537447732763	39
9	438	975.120399700322	40
9	447	988.833994750667	41
9	463	1014.715571329885	42
9	464	1021.490014408804	43
9	475	1036.144798672666	44
9	478	1038.96015388977	45
9	488	1052.741714371661	46
9	496	1073.702675229575	47
9	514	1118.466752612658	48
9	519	1129.182550724628	49
9	524	1136.439258918903	50
9	528	1151.698534724409	51
9	535	1158.663114247338	52
9	547	1184.939739576933	53
9	580	1290.975440680312	54
9	621	1399.739943015873	55
9	627	1406.792784988094	56
9	647	1468.801273976492	57
9	648	1471.587039665653	58
9	649	1475.712197882352	59
9	666	1497.448156622199	60
9	673	1502.234424408505	61
9	682	1523.514304311834	62
9	691	1544.617717353886	63
9	694	1548.757347519205	64
9	703	1571.756135898531	65
9	706	1577.509179597624	66
9	717	1606.089663335026	67
9	724	1619.519772068268	68
9	725	1625.851981111645	69
9	726	1626.515658963999	70
9	729	1645.914874010868	71
9	732	1651.134778224531	72
9	733	1657.56405332268	73
9	742	1666.201454110349	74
9	747	1674.044111570326	75
9	748	1678.642789946563	76
9	765	1735.723234211378	77
9	766	1736.9208357741	78
9	790	1783.790920661723	79
9	797	1799.771656351538	80
9	798	1803.141859167579	81
9	803	1815.191325825848	82
9	810	1825.078922405524	83
9	811	1829.076933269388	84
9	822	1863.563543246491	85
9	841	1911.166412888417	86
9	842	1911.575870747562	87
9	847	1921.673627636848	88
9	852	1928.3657766866	89
9	861	1951.513072144184	90
9	866	1961.695810097017	91
9	892	2004.183361376577	92
9	895	2006.880780690612	93
9	902	2014.365001665306	94
9	913	2033.962171438092	95
9	914	2034.319126152401	96
9	915	2038.117499104692	97
9	918	2054.092058568815	98
9	925	2080.819302821223	99
9	940	2122.5937985648	100
9	945	2130.784457919011	101
9	946	2133.352888953636	102
9	954	2157.623795732725	103
9	955	2172.948045017433	104
9	968	2194.480045707669	105
9	980	2225.27055557809	106
9	996	2283.139816932184	107
9	1002	2302.35636913002	108
9	1005	2317.936599153426	109
9	1009	2324.75808465677	110
9	1022	2353.482826487073	111
9	1045	2411.721828343842	112
9	1067	2461.96886340464	113
9	1074	2475.287431084017	114
9	1077	2488.794548696196	115
9	1080	2498.278366203351	116
10	134	361.012696986607	0.148161158396
10	168	437.791494136481	3.599002142848
10	173	447.856342511146	13.401132219254
10	186	473.77995529478	0.361829634214
10	198	498.823556480684	3.837697024553
10	216	536.08497787783	2.421987157534
10	225	547.65217779329	10.021278939584
10	254	584.669164929771	7.783644764483
10	263	606.005977212681	6.721107429499
10	274	638.056307113912	30.085535459479
10	277	642.031563765102	7.143633252561
10	282	652.324012816076	12.670131827867
10	283	652.805189124096	3.388028892068
10	302	690.558811611436	10.818657953633
10	305	701.224064661883	17.474109962223
10	319	731.555702310813	1.871451146074
10	337	766.626277094813	1.173254320924
10	338	772.446952520142	6.015593566782
10	344	790.905213588406	1.931907218012
10	347	793.927593412633	1.997105009405
10	360	807.276928357475	12.121295431084
10	369	820.52940643097	21.494055373372
10	374	835.258027554387	35.079190194359
10	381	849.758058961465	48.830427540042
10	384	860.955796364087	11.490815781466
10	387	864.960347774696	1.208243446789
10	399	883.564421005118	11.2936146369
10	416	923.537447732763	22.12546768069
10	438	975.120399700322	0.344729687682
10	447	988.833994750667	0.796709379278
10	463	1014.715571329885	8.122371335101
10	464	1021.490014408804	10.192143652531
10	475	1036.144798672666	8.763857976689
10	478	1038.96015388977	0.724316420427
10	488	1052.741714371661	0.887059775054
10	496	1073.702675229575	5.245350870533
10	514	1118.466752612658	3.352171590255
10	519	1129.182550724628	4.132326559765
10	524	1136.439258918903	4.850802162386
10	528	1151.698534724409	5.70124453158
10	535	1158.663114247338	3.007248830362
10	547	1184.939739576933	5.45958105334
10	580	1290.975440680312	3.305821679297
10	621	1399.739943015873	2.536128253299
10	627	1406.792784988094	3.320997567178
10	647	1468.801273976492	46.626606245314
10	648	1471.587039665653	46.045084088615
10	649	1475.712197882352	15.902395213371
10	666	1497.448156622199	33.975372920522
10	673	1502.234424408505	33.976159318401
10	682	1523.514304311834	46.483976545926
10	691	1544.617717353886	60.884597908111
10	694	1548.757347519205	46.564775547421
10	703	1571.756135898531	57.931235825204
10	706	1577.509179597624	41.893656438495
10	717	1606.089663335026	61.254229766587
10	724	1619.519772068268	67.114114386353
10	725	1625.851981111645	71.428731591249
10	726	1626.515658963999	42.346712815473
10	729	1645.914874010868	55.534438237122
10	732	1651.134778224531	54.931979147852
10	733	1657.56405332268	56.535146361912
10	742	1666.201454110349	53.782268655586
10	747	1674.044111570326	27.991517721757
10	748	1678.642789946563	5.996806048425
10	765	1735.723234211378	10.549664661861
10	766	1736.9208357741	2.635302880261
10	790	1783.790920661723	36.896202027687
10	797	1799.771656351538	47.088690978364
10	798	1803.141859167579	49.721561229036
10	803	1815.191325825848	58.835150609039
10	810	1825.078922405524	48.586279310092
10	811	1829.076933269388	23.363676982684
10	822	1863.563543246491	23.335071337445
10	841	1911.166412888417	14.77854160994
10	842	1911.575870747562	8.730026200306
10	847	1921.673627636848	16.502213399457
10	852	1928.3657766866	8.306362276729
10	861	1951.513072144184	28.066933561375
10	866	1961.695810097017	34.249631566177
10	892	2004.183361376577	38.710336960785
10	895	2006.880780690612	32.270542890855
10	902	2014.365001665306	36.107686232343
10	913	2033.962171438092	41.036348779832
10	914	2034.319126152401	38.48633783017
10	915	2038.117499104692	24.154779618596
10	918	2054.092058568815	32.189761767039
10	925	2080.819302821223	23.966697984654
10	940	2122.5937985648	3.516018670831
10	945	2130.784457919011	10.904041187253
10	946	2133.352888953636	5.437148055704
10	954	2157.623795732725	9.543340035822
10	955	2172.948045017433	22.426274471172
10	968	2194.480045707669	0.790881032742
10	980	2225.27055557809	5.392278236526
10	996	2283.139816932184	10.764428986218
10	1002	2302.35636913002	3.284162772613
10	1005	2317.936599153426	3.756814211323
10	1009	2324.75808465677	0.90480657474
10	1022	2353.482826487073	1.008864666489
10	1045	2411.721828343842	1.430037852644
10	1067	2461.96886340464	4.868915045371
10	1074	2475.287431084017	11.261142825025
10	1077	2488.794548696196	23.56982091325
10	1080	2498.278366203351	0.993158753114
11	1082	2500	0.0804
12	1082	2500	0.0464

