version 2
run experiments_hard_game_mode1-1451-20230311-19:44:41-12309
attr configname experiments_hard_game_mode1
attr datetime 20230311-19:44:41
attr experiment experiments_hard_game_mode1
attr inifile omnetpp.ini
attr iterationvars "$0=9.5, $1=7, $2=0"
attr iterationvarsf 9.5,7,0-
attr measurement "$0=9.5, $1=7, $2=0"
attr network Network
attr processid 12309
attr repetition 11
attr replication #11
attr resultdir results
attr runnumber 1451
attr seedset 11
param *.boss.arrival_mean 20
param *.boss.service_mean 9.5
param *.minion.arrival_mean 10
param *.minion.service_mean 7
param *.player.recover_rate_x 0
param **.minion.arrival_distribution 0
param **.minion.service_distribution 0
param **.boss.arrival_distribution 0
param **.boss.service_distribution 0

vector 0 Network.player minion_jobs_number_stat:vector ETV
attr source signal_minion_jobs_number
vector 1 Network.player minion_jobs_queue_number_stat:vector ETV
attr source signal_minion_jobs_queue_number
vector 2 Network.player boss_jobs_number_stat:vector ETV
attr source signal_boss_jobs_number
vector 3 Network.player boss_jobs_queue_number_stat:vector ETV
attr source signal_boss_jobs_queue_number
vector 4 Network.player boss_defeated_stat:vector ETV
attr source signal_boss_defeated
vector 5 Network.player boss_response_time_stat:vector ETV
attr source signal_boss_response_time
vector 6 Network.player boss_waiting_time_stat:vector ETV
attr source signal_boss_waiting_time
vector 7 Network.player minion_waiting_time_stat:vector ETV
attr source signal_minion_waiting_time
vector 8 Network.player minion_recovered_stat:vector ETV
attr source signal_minion_recovered
vector 9 Network.player minion_defeated_stat:vector ETV
attr source signal_minion_defeated
vector 10 Network.player minion_response_time_stat:vector ETV
attr source signal_minion_response_time
vector 11 Network.player minion_throughput:vector ETV
attr source signal_minion_throughput
vector 12 Network.player boss_throughput:vector ETV
attr source signal_boss_throughput
0	134	350.303694308731	17
0	138	352.709450616181	18
0	140	359.137739579226	19
0	144	369.266637427107	20
0	146	369.375412817191	21
0	148	370.873719345442	22
0	154	387.024720403828	23
0	157	393.162611874545	24
0	160	394.679426205505	25
0	163	415.383307801732	26
0	165	418.87213829018	27
0	169	421.862269267216	28
0	180	441.130071532625	29
0	183	452.061875109923	30
0	195	468.155898046976	30
0	201	488.009898807156	27
0	205	492.900364237022	28
0	207	494.512010483134	29
0	217	512.775260977005	29
0	220	521.052336852026	29
0	222	525.543254130801	30
0	224	527.276736677588	31
0	231	551.162666912064	32
0	234	553.060902280298	33
0	236	555.656423412936	34
0	240	556.754828330883	33
0	243	563.370178863217	33
0	245	565.638401836711	34
0	249	576.375778673491	33
0	254	582.448947497491	33
0	256	584.883224644294	34
0	259	600.709963063835	35
0	276	640.85141684619	27
0	286	687.76161823421	24
0	290	688.727931328968	25
0	294	705.076370722239	26
0	300	715.9480092005	24
0	302	720.686766845378	25
0	306	723.799091568504	26
0	308	731.050371694015	27
0	310	738.21519073483	28
0	312	738.822238024502	29
0	316	744.068287236785	30
0	325	756.484884622359	31
0	327	761.473385222325	32
0	329	762.226094275914	33
0	344	799.724576325184	30
0	354	821.147247013063	31
0	356	823.801422505266	32
0	359	836.749804546185	33
0	363	853.078903192315	34
0	370	870.998470699558	35
0	375	880.830733923947	36
0	384	893.217435194636	37
0	386	906.668866996905	38
0	389	918.623290573403	39
0	391	919.248349479899	40
0	396	945.855647726051	39
0	398	946.688111488124	40
0	404	968.031123308084	37
0	406	970.152406719344	38
0	408	971.150300432477	39
0	414	988.393433997575	38
0	416	994.490623682818	39
0	422	1027.125225611619	37
0	424	1033.912215976126	38
0	427	1043.308456436593	38
0	429	1044.462267627308	39
0	432	1045.632848180084	39
0	437	1047.302069123249	40
0	439	1047.837859487353	41
0	449	1089.368639708313	37
0	453	1100.071111898213	38
0	458	1103.239614144073	39
0	466	1121.983322707557	40
0	475	1144.728342827038	41
0	487	1167.137292667847	42
0	489	1168.93136648433	43
0	497	1208.632144335726	44
0	499	1210.051908615118	45
0	505	1219.258910902078	46
0	507	1223.076690675915	47
0	510	1234.450591372613	48
0	513	1238.123943579705	48
0	515	1242.928870294732	49
0	518	1248.411639262905	49
0	520	1251.379423845751	50
0	524	1255.399082031035	51
0	526	1263.372586817724	52
0	530	1271.767628511126	53
0	536	1293.504490813738	54
0	539	1294.505840097558	55
0	543	1310.016883361914	56
0	549	1326.010644670228	54
0	551	1326.130165290046	55
0	553	1329.258883718323	56
0	559	1339.996337954665	55
0	568	1364.234255218975	56
0	573	1385.251721740677	57
0	583	1408.453509734647	55
0	585	1410.541351761165	56
0	587	1410.701200519422	57
0	593	1437.916239710075	58
0	598	1457.135986058949	59
0	601	1463.863081362695	59
0	605	1475.121051293377	58
0	607	1485.698678768333	59
0	609	1486.082764281978	60
0	611	1488.654620302366	61
0	613	1492.350019974408	62
0	615	1494.481659191787	63
0	618	1502.788513431867	63
0	624	1521.305385869116	60
0	629	1530.321319216425	61
0	635	1541.740056958835	58
0	637	1553.159850998384	59
0	646	1568.578782640119	59
0	649	1578.587247343035	60
0	654	1589.573930396353	60
0	666	1617.49409152528	53
0	670	1622.843226805875	53
0	673	1636.203787737193	53
0	675	1636.223604907962	54
0	684	1649.882857743454	54
0	686	1652.748665399068	55
0	688	1653.901490038131	56
0	692	1656.281657010804	55
0	694	1663.086637639268	56
0	700	1676.909461828521	55
0	704	1697.064821415371	55
0	711	1713.323205912301	54
0	713	1713.507443854502	55
0	715	1714.315219406149	56
0	718	1716.335202817096	56
0	728	1734.695155229784	55
0	730	1735.890649832329	56
0	732	1738.477290119343	57
0	747	1757.670786796485	56
0	749	1759.030456891294	57
0	751	1759.527130891979	58
0	758	1773.983693338513	55
0	760	1780.903749549798	56
0	769	1790.216823658163	55
0	771	1797.21028462533	56
0	773	1799.390672298627	57
0	779	1813.860765463794	58
0	784	1823.203980516358	59
0	786	1827.473098799169	60
0	794	1841.446792750422	61
0	801	1868.244179735752	57
0	809	1887.669891032764	58
0	812	1891.225302871141	59
0	814	1893.784441518926	60
0	817	1901.79464966945	61
0	819	1903.376461398091	62
0	821	1903.969241316446	63
0	823	1905.924883769131	64
0	826	1914.971144170305	65
0	832	1921.532423523295	65
0	836	1931.833855161237	64
0	848	1961.983118157343	63
0	852	1975.499884752887	64
0	854	1976.122818012844	65
0	856	1977.164348844541	66
0	858	1979.50393054575	67
0	860	1983.731705496404	68
0	870	1999.351922660245	69
0	874	2011.039717619805	70
0	876	2026.168821835072	71
0	878	2028.179732084205	72
0	886	2033.048172808381	73
0	888	2033.073617590761	74
0	893	2050.459045601385	75
0	897	2053.572704547533	76
0	899	2053.957049572369	77
0	902	2065.96774147428	78
0	904	2066.468224913352	79
0	906	2071.897140969689	80
0	912	2095.309211991189	81
0	914	2099.152242455596	82
0	916	2111.494773923332	83
0	918	2113.8798162556	84
0	920	2116.269377278582	85
0	922	2120.023954379216	86
0	924	2123.122902361805	87
0	927	2127.750241830486	88
0	930	2130.078567183926	89
0	932	2131.495155404478	90
0	934	2132.624774988384	91
0	938	2143.935080643314	92
0	940	2150.616198935546	93
0	943	2157.745754046788	94
0	948	2176.601181932338	95
0	954	2196.080128418496	95
0	956	2196.648671677225	96
0	958	2196.652310126947	97
0	960	2197.452306147215	98
0	963	2212.554795247171	99
0	965	2220.065471877854	100
0	970	2235.781844994769	98
0	980	2247.258262670889	98
0	982	2247.921152751817	99
0	993	2262.60975715086	93
0	996	2268.231280023979	93
0	1003	2284.362463945471	93
0	1006	2288.616964143479	94
0	1008	2288.768008539858	95
0	1014	2307.199077728286	96
0	1019	2320.835344432854	97
0	1025	2327.454243526653	98
0	1027	2334.651959635471	99
0	1030	2337.646540715213	100
0	1041	2382.030018921152	101
0	1043	2383.273477274161	102
0	1045	2384.450095936471	103
0	1049	2394.024967628115	104
0	1051	2397.913866535143	105
0	1053	2402.248345995042	106
0	1058	2423.668402161838	106
0	1064	2430.87271779238	103
0	1066	2431.065062749537	104
0	1068	2435.567579352682	105
0	1074	2447.658637715971	105
0	1083	2487.122538059349	103
1	134	350.303694308731	16
1	138	352.709450616181	17
1	140	359.137739579226	18
1	144	369.266637427107	19
1	146	369.375412817191	20
1	148	370.873719345442	21
1	154	387.024720403828	22
1	157	393.162611874545	23
1	160	394.679426205505	24
1	163	415.383307801732	25
1	165	418.87213829018	26
1	169	421.862269267216	27
1	180	441.130071532625	28
1	183	452.061875109923	29
1	184	453.61841582257	29
1	195	468.155898046976	29
1	196	476.886049640864	29
1	197	479.211557425227	28
1	198	479.842068578437	27
1	199	481.769761766862	26
1	201	488.009898807156	26
1	205	492.900364237022	27
1	207	494.512010483134	28
1	209	500.777874793781	28
1	217	512.775260977005	28
1	218	519.172443111966	28
1	220	521.052336852026	28
1	222	525.543254130801	29
1	224	527.276736677588	30
1	231	551.162666912064	31
1	234	553.060902280298	32
1	236	555.656423412936	33
1	237	556.506315683969	33
1	238	556.542388995051	32
1	240	556.754828330883	32
1	241	558.936739299523	32
1	243	563.370178863217	32
1	245	565.638401836711	33
1	246	566.068863568085	33
1	247	571.058023823757	32
1	249	576.375778673491	32
1	250	576.727759893291	32
1	254	582.448947497491	32
1	256	584.883224644294	33
1	259	600.709963063835	34
1	260	604.646213826678	34
1	261	606.448138063953	33
1	262	607.873585575201	32
1	263	612.431609749616	31
1	264	612.871118460818	30
1	265	621.404762910184	29
1	266	623.351271121194	28
1	270	627.733853925848	27
1	271	631.170814961843	26
1	276	640.85141684619	26
1	277	642.194084974845	26
1	278	642.313780216424	25
1	279	654.273694433078	24
1	280	672.120477874478	23
1	286	687.76161823421	23
1	290	688.727931328968	24
1	294	705.076370722239	25
1	296	711.968862902695	25
1	297	712.508940213688	24
1	298	714.47007303435	23
1	300	715.9480092005	23
1	302	720.686766845378	24
1	306	723.799091568504	25
1	308	731.050371694015	26
1	310	738.21519073483	27
1	312	738.822238024502	28
1	316	744.068287236785	29
1	325	756.484884622359	30
1	327	761.473385222325	31
1	329	762.226094275914	32
1	331	769.020596433516	32
1	332	770.917136185227	31
1	333	772.166093721783	30
1	337	789.558692461556	29
1	344	799.724576325184	29
1	354	821.147247013063	30
1	356	823.801422505266	31
1	359	836.749804546185	32
1	363	853.078903192315	33
1	370	870.998470699558	34
1	375	880.830733923947	35
1	384	893.217435194636	36
1	386	906.668866996905	37
1	389	918.623290573403	38
1	391	919.248349479899	39
1	393	927.315728521898	39
1	394	933.74735783696	38
1	396	945.855647726051	38
1	398	946.688111488124	39
1	399	960.436857911343	39
1	400	960.991672972294	38
1	401	964.647150665288	37
1	402	966.472743899927	36
1	404	968.031123308084	36
1	406	970.152406719344	37
1	408	971.150300432477	38
1	409	979.163458902464	38
1	410	982.355921425682	37
1	414	988.393433997575	37
1	416	994.490623682818	38
1	418	1003.319702155255	38
1	419	1016.44262314878	37
1	420	1018.456681603638	36
1	422	1027.125225611619	36
1	424	1033.912215976126	37
1	425	1040.33503960114	37
1	427	1043.308456436593	37
1	429	1044.462267627308	38
1	430	1044.619081465027	38
1	432	1045.632848180084	38
1	437	1047.302069123249	39
1	439	1047.837859487353	40
1	440	1052.857168631036	40
1	444	1077.66113997519	39
1	445	1079.693140065389	38
1	446	1083.097990726814	37
1	447	1083.915625707498	36
1	449	1089.368639708313	36
1	453	1100.071111898213	37
1	458	1103.239614144073	38
1	466	1121.983322707557	39
1	475	1144.728342827038	40
1	487	1167.137292667847	41
1	489	1168.93136648433	42
1	497	1208.632144335726	43
1	499	1210.051908615118	44
1	505	1219.258910902078	45
1	507	1223.076690675915	46
1	510	1234.450591372613	47
1	511	1237.825651504825	47
1	513	1238.123943579705	47
1	515	1242.928870294732	48
1	516	1246.553584549782	48
1	518	1248.411639262905	48
1	520	1251.379423845751	49
1	524	1255.399082031035	50
1	526	1263.372586817724	51
1	530	1271.767628511126	52
1	536	1293.504490813738	53
1	539	1294.505840097558	54
1	543	1310.016883361914	55
1	545	1316.626326233069	55
1	546	1316.924669422102	54
1	547	1320.564220583633	53
1	549	1326.010644670228	53
1	551	1326.130165290046	54
1	553	1329.258883718323	55
1	554	1332.795229452736	55
1	555	1333.818712036039	54
1	559	1339.996337954665	54
1	568	1364.234255218975	55
1	573	1385.251721740677	56
1	577	1399.491145530552	56
1	578	1400.183230865282	55
1	579	1401.574275931985	54
1	583	1408.453509734647	54
1	585	1410.541351761165	55
1	587	1410.701200519422	56
1	593	1437.916239710075	57
1	598	1457.135986058949	58
1	599	1458.288363572067	58
1	601	1463.863081362695	58
1	602	1469.196061291763	58
1	603	1470.106282115882	57
1	605	1475.121051293377	57
1	607	1485.698678768333	58
1	609	1486.082764281978	59
1	611	1488.654620302366	60
1	613	1492.350019974408	61
1	615	1494.481659191787	62
1	616	1497.059139740355	62
1	618	1502.788513431867	62
1	619	1510.618372012597	62
1	620	1512.791166764128	61
1	621	1513.276154183363	60
1	622	1519.164640064089	59
1	624	1521.305385869116	59
1	629	1530.321319216425	60
1	630	1531.070263482841	60
1	631	1537.534984150738	59
1	632	1538.857589494064	58
1	633	1539.259957627963	57
1	635	1541.740056958835	57
1	637	1553.159850998384	58
1	638	1557.142273963597	58
1	646	1568.578782640119	58
1	649	1578.587247343035	59
1	652	1583.398490359944	59
1	654	1589.573930396353	59
1	655	1591.081761801042	59
1	656	1594.430713493281	58
1	657	1597.354494394544	57
1	658	1599.41562514615	56
1	659	1600.690526345386	55
1	660	1602.361504246818	54
1	661	1604.38757458435	53
1	662	1608.770837124948	52
1	666	1617.49409152528	52
1	668	1617.860548266299	52
1	670	1622.843226805875	52
1	671	1625.810286524596	52
1	673	1636.203787737193	52
1	675	1636.223604907962	53
1	682	1649.10664875577	53
1	684	1649.882857743454	53
1	686	1652.748665399068	54
1	688	1653.901490038131	55
1	689	1654.618467039498	55
1	690	1655.082734288623	54
1	692	1656.281657010804	54
1	694	1663.086637639268	55
1	695	1665.223274541575	55
1	696	1669.330598823409	54
1	700	1676.909461828521	54
1	702	1687.277281782839	54
1	704	1697.064821415371	54
1	705	1699.883063009792	54
1	709	1707.470169597432	53
1	711	1713.323205912301	53
1	713	1713.507443854502	54
1	715	1714.315219406149	55
1	716	1715.10575570664	55
1	718	1716.335202817096	55
1	719	1722.444237141775	55
1	720	1724.102573224702	54
1	728	1734.695155229784	54
1	730	1735.890649832329	55
1	732	1738.477290119343	56
1	733	1738.678379665001	56
1	734	1740.062678184183	55
1	747	1757.670786796485	55
1	749	1759.030456891294	56
1	751	1759.527130891979	57
1	753	1761.403757783779	57
1	754	1764.809584625412	56
1	755	1765.348684818728	55
1	756	1767.80937667031	54
1	758	1773.983693338513	54
1	760	1780.903749549798	55
1	761	1783.653691092284	55
1	765	1787.6933607694	54
1	769	1790.216823658163	54
1	771	1797.21028462533	55
1	773	1799.390672298627	56
1	779	1813.860765463794	57
1	784	1823.203980516358	58
1	786	1827.473098799169	59
1	794	1841.446792750422	60
1	795	1841.64848780724	60
1	796	1843.217923755192	59
1	797	1847.043508708808	58
1	798	1851.781162686281	57
1	799	1859.148848906317	56
1	801	1868.244179735752	56
1	809	1887.669891032764	57
1	812	1891.225302871141	58
1	814	1893.784441518926	59
1	817	1901.79464966945	60
1	819	1903.376461398091	61
1	821	1903.969241316446	62
1	823	1905.924883769131	63
1	826	1914.971144170305	64
1	827	1915.619918118489	64
1	832	1921.532423523295	64
1	833	1925.660434591496	64
1	834	1926.891573232867	63
1	836	1931.833855161237	63
1	837	1942.454740685178	63
1	838	1945.000771487814	62
1	848	1961.983118157343	62
1	852	1975.499884752887	63
1	854	1976.122818012844	64
1	856	1977.164348844541	65
1	858	1979.50393054575	66
1	860	1983.731705496404	67
1	870	1999.351922660245	68
1	874	2011.039717619805	69
1	876	2026.168821835072	70
1	878	2028.179732084205	71
1	886	2033.048172808381	72
1	888	2033.073617590761	73
1	893	2050.459045601385	74
1	897	2053.572704547533	75
1	899	2053.957049572369	76
1	902	2065.96774147428	77
1	904	2066.468224913352	78
1	906	2071.897140969689	79
1	912	2095.309211991189	80
1	914	2099.152242455596	81
1	916	2111.494773923332	82
1	918	2113.8798162556	83
1	920	2116.269377278582	84
1	922	2120.023954379216	85
1	924	2123.122902361805	86
1	927	2127.750241830486	87
1	930	2130.078567183926	88
1	932	2131.495155404478	89
1	934	2132.624774988384	90
1	938	2143.935080643314	91
1	940	2150.616198935546	92
1	943	2157.745754046788	93
1	948	2176.601181932338	94
1	950	2184.158310505378	94
1	954	2196.080128418496	94
1	956	2196.648671677225	95
1	958	2196.652310126947	96
1	960	2197.452306147215	97
1	963	2212.554795247171	98
1	965	2220.065471877854	99
1	966	2220.167392912299	99
1	967	2221.45881230205	98
1	968	2226.698411738726	97
1	970	2235.781844994769	97
1	971	2235.945091678424	97
1	980	2247.258262670889	97
1	982	2247.921152751817	98
1	985	2254.233582934932	98
1	986	2257.597949714822	97
1	987	2258.818110394216	96
1	988	2259.176632015238	95
1	989	2260.925278686066	94
1	990	2261.389993861814	93
1	991	2262.24654013577	92
1	993	2262.60975715086	92
1	994	2266.362382786553	92
1	996	2268.231280023979	92
1	997	2273.817792040594	92
1	1003	2284.362463945471	92
1	1006	2288.616964143479	93
1	1008	2288.768008539858	94
1	1014	2307.199077728286	95
1	1019	2320.835344432854	96
1	1025	2327.454243526653	97
1	1027	2334.651959635471	98
1	1030	2337.646540715213	99
1	1041	2382.030018921152	100
1	1043	2383.273477274161	101
1	1045	2384.450095936471	102
1	1049	2394.024967628115	103
1	1051	2397.913866535143	104
1	1053	2402.248345995042	105
1	1056	2418.275597045147	105
1	1058	2423.668402161838	105
1	1059	2423.792604073447	105
1	1060	2429.500367368968	104
1	1061	2429.684716951039	103
1	1062	2430.856138954551	102
1	1064	2430.87271779238	102
1	1066	2431.065062749537	103
1	1068	2435.567579352682	104
1	1072	2440.718080784288	104
1	1074	2447.658637715971	104
1	1075	2450.801726332865	104
1	1076	2455.922103330107	103
1	1077	2468.371584084086	102
1	1083	2487.122538059349	102
2	136	350.810908640399	3
2	142	362.43827406384	4
2	150	372.457831806101	5
2	167	421.231036863725	1
2	171	422.258155636236	2
2	174	434.397689262197	2
2	178	439.610663971992	1
2	186	453.793526523054	1
2	189	457.822166656212	1
2	191	459.596779139852	2
2	203	490.031856445978	1
2	211	501.146565597212	1
2	214	507.998940490456	1
2	226	535.385086866618	1
2	228	536.647697750317	2
2	252	577.008063714078	1
2	268	625.155745667831	1
2	273	632.977105340681	1
2	282	682.961103942653	1
2	284	685.159062044213	2
2	288	688.41788609212	3
2	304	720.818567622802	1
2	314	742.34700746987	2
2	320	752.391989375619	1
2	323	755.897324484502	1
2	335	775.662088383508	1
2	339	790.080534832881	1
2	341	790.813576755962	2
2	346	807.051325263327	2
2	348	814.182191414584	3
2	350	819.651339178744	4
2	352	820.627860029246	5
2	365	860.996806993361	3
2	368	870.307832749627	3
2	372	874.759940419569	4
2	377	880.847424649465	4
2	382	893.070156380368	2
2	412	986.254666555407	1
2	434	1045.839946687533	1
2	442	1055.895288500736	1
2	451	1094.128034977528	1
2	455	1101.478109745127	2
2	460	1103.51526631821	2
2	462	1108.512747814944	3
2	464	1112.452693155669	4
2	468	1126.078054653729	5
2	471	1137.278937592869	5
2	473	1138.471287941422	6
2	478	1150.749150558914	6
2	481	1157.590509079489	6
2	485	1163.830009180747	5
2	491	1169.18630106408	6
2	494	1188.666672010308	6
2	522	1254.837442024195	1
2	528	1264.436041734011	2
2	534	1283.561317743566	1
2	541	1294.924141858317	1
2	557	1334.618986807489	1
2	561	1351.449230121806	2
2	563	1353.337317539997	3
2	566	1364.007868382867	3
2	570	1367.234470496	4
2	581	1407.623308105574	1
2	589	1429.953231197204	2
2	595	1445.290017857441	1
2	626	1522.546985036706	1
2	640	1564.732089783015	1
2	642	1565.20203831387	2
2	644	1567.158129871605	3
2	664	1614.815752662296	1
2	677	1641.723510214391	1
2	679	1642.919599835408	2
2	698	1672.309207478826	1
2	707	1700.493543879694	1
2	722	1725.771804747797	1
2	724	1727.107486985558	2
2	736	1741.765106934903	1
2	739	1747.672227176383	1
2	741	1750.165771003638	2
2	745	1753.882913231852	1
2	763	1785.856777205899	1
2	767	1790.198200156219	1
2	775	1801.790227424367	2
2	777	1804.043678835036	3
2	781	1816.226235181707	4
2	790	1830.93854574318	2
2	803	1884.186922687865	1
2	805	1884.312240102275	2
2	807	1884.679389480801	3
2	829	1915.950055390832	1
2	840	1947.126132806161	1
2	842	1950.112634598494	2
2	844	1951.560215154763	3
2	846	1953.826841268356	4
2	850	1975.34125048369	5
2	862	1986.569639472766	6
2	864	1989.237686142385	7
2	866	1994.180594181578	8
2	868	1996.175709749868	9
2	880	2032.315413499591	8
2	882	2032.713617515447	9
2	884	2032.831458324909	10
2	891	2050.075995185237	10
2	895	2053.286951205201	11
2	946	2166.547424019246	1
2	952	2190.516773128762	1
2	973	2238.342644924639	1
2	976	2241.536865042855	1
2	978	2242.466596596854	2
2	999	2283.392076793466	1
2	1001	2283.943439539722	2
2	1010	2298.37380560479	2
2	1012	2304.187980098955	3
2	1017	2315.248738444814	3
2	1021	2320.865879407701	4
2	1023	2321.248891173496	5
2	1032	2341.447019352221	5
2	1034	2355.084277993321	6
2	1039	2379.095213703034	4
2	1070	2437.703142205419	1
2	1079	2475.022752058164	1
2	1081	2483.50970015636	2
2	1085	2493.644976029564	3
3	136	350.810908640399	2
3	142	362.43827406384	3
3	150	372.457831806101	4
3	151	373.803861668643	4
3	152	383.657465275131	3
3	155	388.440418250036	2
3	158	393.527281020129	1
3	161	397.004157311434	0
3	167	421.231036863725	0
3	171	422.258155636236	1
3	172	432.861706482241	1
3	174	434.397689262197	1
3	175	435.352147461241	1
3	176	438.042780479385	0
3	178	439.610663971992	0
3	181	449.169633862163	0
3	186	453.793526523054	0
3	187	456.602715219067	0
3	189	457.822166656212	0
3	191	459.596779139852	1
3	192	464.677028188853	1
3	193	464.907919302032	0
3	203	490.031856445978	0
3	208	494.878269403277	0
3	211	501.146565597212	0
3	212	502.134051745579	0
3	214	507.998940490456	0
3	215	512.156462892041	0
3	226	535.385086866618	0
3	228	536.647697750317	1
3	229	538.779423683882	1
3	232	552.440946931307	0
3	252	577.008063714078	0
3	257	586.736357949523	0
3	268	625.155745667831	0
3	269	625.659199399616	0
3	273	632.977105340681	0
3	274	636.671795381918	0
3	282	682.961103942653	0
3	284	685.159062044213	1
3	288	688.41788609212	2
3	291	695.521138155056	2
3	292	697.47028780664	1
3	295	711.426606416671	0
3	304	720.818567622802	0
3	314	742.34700746987	1
3	317	744.485435879273	1
3	318	747.713329018633	0
3	320	752.391989375619	0
3	321	755.393732099528	0
3	323	755.897324484502	0
3	330	767.237289202036	0
3	335	775.662088383508	0
3	336	778.698124177811	0
3	339	790.080534832881	0
3	341	790.813576755962	1
3	342	796.845782637503	1
3	346	807.051325263327	1
3	348	814.182191414584	2
3	350	819.651339178744	3
3	352	820.627860029246	4
3	357	826.182976733845	4
3	360	841.757984845782	3
3	361	843.049519009499	2
3	365	860.996806993361	2
3	366	867.436956168862	2
3	368	870.307832749627	2
3	372	874.759940419569	3
3	373	880.503381291508	3
3	377	880.847424649465	3
3	378	884.818670348368	3
3	379	884.86856170307	2
3	380	891.709022810658	1
3	382	893.070156380368	1
3	387	910.171773523537	1
3	392	923.701475589403	0
3	412	986.254666555407	0
3	417	997.565210040484	0
3	434	1045.839946687533	0
3	435	1047.15102950034	0
3	442	1055.895288500736	0
3	443	1063.545203272471	0
3	451	1094.128034977528	0
3	455	1101.478109745127	1
3	456	1101.670911934737	1
3	460	1103.51526631821	1
3	462	1108.512747814944	2
3	464	1112.452693155669	3
3	468	1126.078054653729	4
3	469	1127.672433280499	4
3	471	1137.278937592869	4
3	473	1138.471287941422	5
3	476	1147.655500027539	5
3	478	1150.749150558914	5
3	479	1154.483325009027	5
3	481	1157.590509079489	5
3	482	1160.723424189513	5
3	483	1162.581083163533	4
3	485	1163.830009180747	4
3	491	1169.18630106408	5
3	492	1185.420108967654	5
3	494	1188.666672010308	5
3	495	1192.732623665576	5
3	500	1215.144430658561	4
3	501	1218.444495156705	3
3	502	1218.719718972018	2
3	503	1218.820976171901	1
3	508	1224.543055026772	0
3	522	1254.837442024195	0
3	528	1264.436041734011	1
3	531	1275.28570421509	1
3	532	1279.332134011023	0
3	534	1283.561317743566	0
3	537	1293.710244448419	0
3	541	1294.924141858317	0
3	544	1311.544241877942	0
3	557	1334.618986807489	0
3	561	1351.449230121806	1
3	563	1353.337317539997	2
3	564	1361.71047266515	2
3	566	1364.007868382867	2
3	570	1367.234470496	3
3	571	1379.308899420986	3
3	574	1392.288533260696	2
3	575	1396.395122800945	1
3	576	1399.348641587469	0
3	581	1407.623308105574	0
3	589	1429.953231197204	1
3	590	1432.597629541027	1
3	591	1436.865049403729	0
3	595	1445.290017857441	0
3	596	1448.811461498073	0
3	626	1522.546985036706	0
3	627	1529.647288881219	0
3	640	1564.732089783015	0
3	642	1565.20203831387	1
3	644	1567.158129871605	2
3	647	1571.94441258644	2
3	650	1579.464700542377	1
3	651	1582.761277077376	0
3	664	1614.815752662296	0
3	667	1617.659196256472	0
3	677	1641.723510214391	0
3	679	1642.919599835408	1
3	680	1643.67980324444	1
3	681	1645.503149568724	0
3	698	1672.309207478826	0
3	701	1685.652948503305	0
3	707	1700.493543879694	0
3	708	1704.743820082491	0
3	722	1725.771804747797	0
3	724	1727.107486985558	1
3	725	1728.231753937553	1
3	726	1729.666585027618	0
3	736	1741.765106934903	0
3	737	1743.33012470681	0
3	739	1747.672227176383	0
3	741	1750.165771003638	1
3	742	1752.353704320156	1
3	743	1753.436807637511	0
3	745	1753.882913231852	0
3	752	1759.948164858316	0
3	763	1785.856777205899	0
3	764	1786.636039123162	0
3	767	1790.198200156219	0
3	775	1801.790227424367	1
3	777	1804.043678835036	2
3	781	1816.226235181707	3
3	782	1823.146105875748	3
3	787	1828.546709465478	2
3	788	1830.041227735688	1
3	790	1830.93854574318	1
3	791	1834.091853128318	1
3	792	1840.951526846162	0
3	803	1884.186922687865	0
3	805	1884.312240102275	1
3	807	1884.679389480801	2
3	810	1888.555757286959	2
3	815	1895.681126963416	1
3	824	1910.793941729669	0
3	829	1915.950055390832	0
3	830	1919.409883532794	0
3	840	1947.126132806161	0
3	842	1950.112634598494	1
3	844	1951.560215154763	2
3	846	1953.826841268356	3
3	850	1975.34125048369	4
3	862	1986.569639472766	5
3	864	1989.237686142385	6
3	866	1994.180594181578	7
3	868	1996.175709749868	8
3	871	2002.553472081479	8
3	872	2004.206151555945	7
3	880	2032.315413499591	7
3	882	2032.713617515447	8
3	884	2032.831458324909	9
3	889	2047.417396282573	9
3	891	2050.075995185237	9
3	895	2053.286951205201	10
3	900	2056.04908862685	10
3	907	2072.741596701343	9
3	908	2073.781963058588	8
3	909	2077.208972017556	7
3	910	2085.181858209356	6
3	925	2123.375270273882	5
3	928	2128.013735228309	4
3	935	2140.851847464704	3
3	936	2141.692858598969	2
3	941	2154.838817382483	1
3	944	2162.681394990398	0
3	946	2166.547424019246	0
3	949	2177.659852117983	0
3	952	2190.516773128762	0
3	961	2200.437886903243	0
3	973	2238.342644924639	0
3	974	2241.416851784157	0
3	976	2241.536865042855	0
3	978	2242.466596596854	1
3	983	2251.83974788438	1
3	984	2253.952058287812	0
3	999	2283.392076793466	0
3	1001	2283.943439539722	1
3	1004	2285.38505006403	1
3	1010	2298.37380560479	1
3	1012	2304.187980098955	2
3	1015	2307.652525596922	2
3	1017	2315.248738444814	2
3	1021	2320.865879407701	3
3	1023	2321.248891173496	4
3	1028	2336.926633455672	4
3	1032	2341.447019352221	4
3	1034	2355.084277993321	5
3	1035	2360.565567624421	5
3	1036	2361.143529885769	4
3	1037	2366.268616506711	3
3	1039	2379.095213703034	3
3	1046	2386.427461230749	3
3	1047	2388.133223184058	2
3	1054	2402.681123009986	1
3	1055	2412.320833178757	0
3	1070	2437.703142205419	0
3	1071	2440.467554419512	0
3	1079	2475.022752058164	0
3	1081	2483.50970015636	1
3	1085	2493.644976029564	2
4	151	373.803861668643	12
4	152	383.657465275131	13
4	155	388.440418250036	14
4	158	393.527281020129	15
4	161	397.004157311434	16
4	172	432.861706482241	17
4	175	435.352147461241	18
4	176	438.042780479385	19
4	181	449.169633862163	20
4	187	456.602715219067	21
4	192	464.677028188853	22
4	193	464.907919302032	23
4	208	494.878269403277	24
4	212	502.134051745579	25
4	215	512.156462892041	26
4	229	538.779423683882	27
4	232	552.440946931307	28
4	257	586.736357949523	29
4	269	625.659199399616	30
4	274	636.671795381918	31
4	291	695.521138155056	32
4	292	697.47028780664	33
4	295	711.426606416671	34
4	317	744.485435879273	35
4	318	747.713329018633	36
4	321	755.393732099528	37
4	330	767.237289202036	38
4	336	778.698124177811	39
4	342	796.845782637503	40
4	357	826.182976733845	41
4	360	841.757984845782	42
4	361	843.049519009499	43
4	366	867.436956168862	44
4	373	880.503381291508	45
4	378	884.818670348368	46
4	379	884.86856170307	47
4	380	891.709022810658	48
4	387	910.171773523537	49
4	392	923.701475589403	50
4	417	997.565210040484	51
4	435	1047.15102950034	52
4	443	1063.545203272471	53
4	456	1101.670911934737	54
4	469	1127.672433280499	55
4	476	1147.655500027539	56
4	479	1154.483325009027	57
4	482	1160.723424189513	58
4	483	1162.581083163533	59
4	492	1185.420108967654	60
4	495	1192.732623665576	61
4	500	1215.144430658561	62
4	501	1218.444495156705	63
4	502	1218.719718972018	64
4	503	1218.820976171901	65
4	508	1224.543055026772	66
4	531	1275.28570421509	67
4	532	1279.332134011023	68
4	537	1293.710244448419	69
4	544	1311.544241877942	70
4	564	1361.71047266515	71
4	571	1379.308899420986	72
4	574	1392.288533260696	73
4	575	1396.395122800945	74
4	576	1399.348641587469	75
4	590	1432.597629541027	76
4	591	1436.865049403729	77
4	596	1448.811461498073	78
4	627	1529.647288881219	79
4	647	1571.94441258644	80
4	650	1579.464700542377	81
4	651	1582.761277077376	82
4	667	1617.659196256472	83
4	680	1643.67980324444	84
4	681	1645.503149568724	85
4	701	1685.652948503305	86
4	708	1704.743820082491	87
4	725	1728.231753937553	88
4	726	1729.666585027618	89
4	737	1743.33012470681	90
4	742	1752.353704320156	91
4	743	1753.436807637511	92
4	752	1759.948164858316	93
4	764	1786.636039123162	94
4	782	1823.146105875748	95
4	787	1828.546709465478	96
4	788	1830.041227735688	97
4	791	1834.091853128318	98
4	792	1840.951526846162	99
4	810	1888.555757286959	100
4	815	1895.681126963416	101
4	824	1910.793941729669	102
4	830	1919.409883532794	103
4	871	2002.553472081479	104
4	872	2004.206151555945	105
4	889	2047.417396282573	106
4	900	2056.04908862685	107
4	907	2072.741596701343	108
4	908	2073.781963058588	109
4	909	2077.208972017556	110
4	910	2085.181858209356	111
4	925	2123.375270273882	112
4	928	2128.013735228309	113
4	935	2140.851847464704	114
4	936	2141.692858598969	115
4	941	2154.838817382483	116
4	944	2162.681394990398	117
4	949	2177.659852117983	118
4	961	2200.437886903243	119
4	974	2241.416851784157	120
4	983	2251.83974788438	121
4	984	2253.952058287812	122
4	1004	2285.38505006403	123
4	1015	2307.652525596922	124
4	1028	2336.926633455672	125
4	1035	2360.565567624421	126
4	1036	2361.143529885769	127
4	1037	2366.268616506711	128
4	1046	2386.427461230749	129
4	1047	2388.133223184058	130
4	1054	2402.681123009986	131
4	1055	2412.320833178757	132
4	1071	2440.467554419512	133
5	151	373.803861668643	25.70144803591
5	152	383.657465275131	34.67882560093
5	155	388.440418250036	37.629509609637
5	158	393.527281020129	31.089006956289
5	161	397.004157311434	24.546325505333
5	172	432.861706482241	11.630669618516
5	175	435.352147461241	13.093991825005
5	176	438.042780479385	3.645091217188
5	181	449.169633862163	9.558969890171
5	187	456.602715219067	2.809188696013
5	192	464.677028188853	6.854861532641
5	193	464.907919302032	5.31114016218
5	208	494.878269403277	4.846412957299
5	212	502.134051745579	0.987486148367
5	215	512.156462892041	4.157522401585
5	229	538.779423683882	3.394336817264
5	232	552.440946931307	15.79324918099
5	257	586.736357949523	9.728294235445
5	269	625.659199399616	0.503453731785
5	274	636.671795381918	3.694690041237
5	291	695.521138155056	12.560034212403
5	292	697.47028780664	12.311225762427
5	295	711.426606416671	23.008720324551
5	317	744.485435879273	23.666868256471
5	318	747.713329018633	5.366321548763
5	321	755.393732099528	3.001742723909
5	330	767.237289202036	11.339964717534
5	336	778.698124177811	3.036035794303
5	342	796.845782637503	6.765247804622
5	357	826.182976733845	35.369399977883
5	360	841.757984845782	34.706659582455
5	361	843.049519009499	28.867327594915
5	366	867.436956168862	47.785616990118
5	373	880.503381291508	59.875521262262
5	378	884.818670348368	23.821863355007
5	379	884.86856170307	14.560728953443
5	380	891.709022810658	16.949082391089
5	387	910.171773523537	29.324348874072
5	392	923.701475589403	30.631319209035
5	417	997.565210040484	11.310543485077
5	435	1047.15102950034	1.311082812807
5	443	1063.545203272471	7.649914771735
5	456	1101.670911934737	7.542876957209
5	469	1127.672433280499	26.194323535372
5	476	1147.655500027539	44.140233709329
5	479	1154.483325009027	45.970577194083
5	482	1160.723424189513	48.270731033844
5	483	1162.581083163533	36.503028509804
5	492	1185.420108967654	48.141171374785
5	495	1192.732623665576	54.261335724154
5	500	1215.144430658561	64.395280099647
5	501	1218.444495156705	60.853986077216
5	502	1218.719718972018	54.889709791271
5	503	1218.820976171901	49.634675107821
5	508	1224.543055026772	35.876383016464
5	531	1275.28570421509	20.448262190895
5	532	1279.332134011023	14.896092277012
5	537	1293.710244448419	10.148926704853
5	544	1311.544241877942	16.620100019625
5	564	1361.71047266515	27.091485857661
5	571	1379.308899420986	27.85966929918
5	574	1392.288533260696	38.951215720699
5	575	1396.395122800945	32.387254418078
5	576	1399.348641587469	32.114171091469
5	590	1432.597629541027	24.974321435453
5	591	1436.865049403729	6.911818206525
5	596	1448.811461498073	3.521443640632
5	627	1529.647288881219	7.100303844513
5	647	1571.94441258644	7.212322803425
5	650	1579.464700542377	14.262662228507
5	651	1582.761277077376	15.603147205771
5	667	1617.659196256472	2.843443594176
5	680	1643.67980324444	1.956293030049
5	681	1645.503149568724	2.583549733316
5	701	1685.652948503305	13.343741024479
5	708	1704.743820082491	4.250276202797
5	725	1728.231753937553	2.459949189756
5	726	1729.666585027618	2.55909804206
5	737	1743.33012470681	1.565017771907
5	742	1752.353704320156	4.681477143773
5	743	1753.436807637511	3.271036633873
5	752	1759.948164858316	6.065251626464
5	764	1786.636039123162	0.779261917263
5	782	1823.146105875748	32.947905719529
5	787	1828.546709465478	26.756482041111
5	788	1830.041227735688	25.997548900652
5	791	1834.091853128318	17.865617946611
5	792	1840.951526846162	10.012981102982
5	810	1888.555757286959	4.368834599094
5	815	1895.681126963416	11.368886861141
5	824	1910.793941729669	26.114552248868
5	830	1919.409883532794	3.459828141962
5	871	2002.553472081479	55.427339275318
5	872	2004.206151555945	54.093516957451
5	889	2047.417396282573	95.85718112781
5	900	2056.04908862685	102.22224735849
5	907	2072.741596701343	97.400346217653
5	908	2073.781963058588	87.212323585822
5	909	2077.208972017556	87.971285875171
5	910	2085.181858209356	91.001264027778
5	925	2123.375270273882	127.19956052401
5	928	2128.013735228309	95.698321728718
5	935	2140.851847464704	108.13822994926
5	936	2141.692858598969	108.86140027406
5	941	2154.838817382483	104.76282219725
5	944	2162.681394990398	109.3944437852
5	949	2177.659852117983	11.112428098737
5	961	2200.437886903243	9.921113774481
5	974	2241.416851784157	3.074206859518
5	983	2251.83974788438	10.302882841525
5	984	2253.952058287812	11.485461690958
5	1004	2285.38505006403	1.992973270564
5	1015	2307.652525596922	23.7090860572
5	1028	2336.926633455672	38.552827850882
5	1035	2360.565567624421	56.377587525466
5	1036	2361.143529885769	45.894791440955
5	1037	2366.268616506711	45.40273709901
5	1046	2386.427461230749	65.178570057253
5	1047	2388.133223184058	46.686203831837
5	1054	2402.681123009986	47.596845016665
5	1055	2412.320833178757	33.225619475723
5	1071	2440.467554419512	2.764412214093
6	151	373.803861668643	24.825221994442
6	152	383.657465275131	32.846556634732
6	155	388.440418250036	26.002144186196
6	158	393.527281020129	21.069449214028
6	167	421.231036863725	0
6	172	432.861706482241	10.603550846005
6	175	435.352147461241	0.954458199044
6	178	439.610663971992	0
6	186	453.793526523054	0
6	189	457.822166656212	0
6	192	464.677028188853	5.080249049001
6	203	490.031856445978	0
6	211	501.146565597212	0
6	214	507.998940490456	0
6	226	535.385086866618	0
6	229	538.779423683882	2.131725933565
6	252	577.008063714078	0
6	268	625.155745667831	0
6	273	632.977105340681	0
6	282	682.961103942653	0
6	291	695.521138155056	10.362076110843
6	292	697.47028780664	9.05240171452
6	304	720.818567622802	0
6	317	744.485435879273	2.138428409403
6	320	752.391989375619	0
6	323	755.897324484502	0
6	335	775.662088383508	0
6	339	790.080534832881	0
6	342	796.845782637503	6.032205881541
6	357	826.182976733845	19.131651470518
6	360	841.757984845782	27.575793431198
6	361	843.049519009499	23.398179830755
6	366	867.436956168862	46.809096139616
6	373	880.503381291508	19.506574298147
6	378	884.818670348368	14.510837598741
6	379	884.86856170307	10.108621283501
6	380	891.709022810658	10.861598161193
6	387	910.171773523537	17.101617143169
6	412	986.254666555407	0
6	434	1045.839946687533	0
6	442	1055.895288500736	0
6	451	1094.128034977528	0
6	456	1101.670911934737	0.19280218961
6	469	1127.672433280499	24.157166962289
6	476	1147.655500027539	39.142752212595
6	479	1154.483325009027	42.030631853358
6	482	1160.723424189513	34.645369535784
6	483	1162.581083163533	25.302145570664
6	492	1185.420108967654	46.948821026232
6	495	1192.732623665576	41.983473106662
6	500	1215.144430658561	57.553921579072
6	501	1218.444495156705	54.614485975958
6	502	1218.719718972018	49.533417907938
6	503	1218.820976171901	30.154304161593
6	522	1254.837442024195	0
6	531	1275.28570421509	10.849662481079
6	534	1283.561317743566	0
6	541	1294.924141858317	0
6	557	1334.618986807489	0
6	564	1361.71047266515	10.261242543344
6	571	1379.308899420986	25.971581880989
6	574	1392.288533260696	28.280664877829
6	575	1396.395122800945	29.160652304945
6	581	1407.623308105574	0
6	590	1432.597629541027	2.644398343823
6	595	1445.290017857441	0
6	626	1522.546985036706	0
6	640	1564.732089783015	0
6	647	1571.94441258644	6.74237427257
6	650	1579.464700542377	12.306570670772
6	664	1614.815752662296	0
6	677	1641.723510214391	0
6	680	1643.67980324444	0.760203409032
6	698	1672.309207478826	0
6	707	1700.493543879694	0
6	722	1725.771804747797	0
6	725	1728.231753937553	1.124266951995
6	736	1741.765106934903	0
6	739	1747.672227176383	0
6	742	1752.353704320156	2.187933316518
6	745	1753.882913231852	0
6	763	1785.856777205899	0
6	767	1790.198200156219	0
6	782	1823.146105875748	21.355878451381
6	787	1828.546709465478	24.503030630442
6	788	1830.041227735688	13.814992553981
6	791	1834.091853128318	3.153307385138
6	803	1884.186922687865	0
6	810	1888.555757286959	4.243517184684
6	815	1895.681126963416	11.001737482615
6	829	1915.950055390832	0
6	840	1947.126132806161	0
6	871	2002.553472081479	52.440837482985
6	872	2004.206151555945	52.645936401182
6	889	2047.417396282573	93.590555014217
6	900	2056.04908862685	80.70783814316
6	907	2072.741596701343	86.171957228577
6	908	2073.781963058588	84.544276916203
6	909	2077.208972017556	83.028377835978
6	910	2085.181858209356	89.006148459488
6	925	2123.375270273882	91.059856774291
6	928	2128.013735228309	95.300117712862
6	935	2140.851847464704	108.0203891398
6	936	2141.692858598969	91.616863413732
6	941	2154.838817382483	101.55186617728
6	946	2166.547424019246	0
6	952	2190.516773128762	0
6	973	2238.342644924639	0
6	976	2241.536865042855	0
6	983	2251.83974788438	9.373151287526
6	999	2283.392076793466	0
6	1004	2285.38505006403	1.441610524308
6	1015	2307.652525596922	9.278719992132
6	1028	2336.926633455672	32.738653356717
6	1035	2360.565567624421	45.316829179607
6	1036	2361.143529885769	40.277650478068
6	1037	2366.268616506711	45.019725333215
6	1046	2386.427461230749	44.980441878528
6	1047	2388.133223184058	33.048945190737
6	1054	2402.681123009986	23.585909306952
6	1070	2437.703142205419	0
6	1079	2475.022752058164	0
7	161	397.004157311434	179.81350177326
7	176	438.042780479385	213.2457135129
7	181	449.169633862163	223.16823482751
7	184	453.61841582257	225.69580075927
7	187	456.602715219067	226.2223878641
7	193	464.907919302032	232.57401851797
7	196	476.886049640864	212.97620771819
7	197	479.211557425227	211.85200552704
7	198	479.842068578437	202.69884494868
7	199	481.769761766862	175.91777771639
7	208	494.878269403277	183.92067627966
7	209	500.777874793781	178.05041765947
7	212	502.134051745579	169.82063275031
7	215	512.156462892041	172.66744970693
7	218	519.172443111966	171.07002947923
7	232	552.440946931307	202.55574553134
7	237	556.506315683969	206.20262137524
7	238	556.542388995051	203.83293837887
7	241	558.936739299523	199.7989997203
7	246	566.068863568085	196.80222614098
7	247	571.058023823757	201.68261100657
7	250	576.727759893291	205.85404054785
7	257	586.736357949523	199.71163754569
7	260	604.646213826678	211.48360195213
7	261	606.448138063953	211.76871185845
7	262	607.873585575201	192.49027777347
7	263	612.431609749616	193.55947145944
7	264	612.871118460818	191.64008159709
7	265	621.404762910184	199.54249364297
7	266	623.351271121194	183.7406071492
7	269	625.659199399616	184.52912786699
7	270	627.733853925848	175.67197881593
7	271	631.170814961843	177.37728843879
7	274	636.671795381918	178.84962872571
7	277	642.194084974845	174.03818692787
7	278	642.313780216424	154.30388140927
7	279	654.273694433078	164.2418379871
7	280	672.120477874478	179.22011363746
7	295	711.426606416671	216.91459593354
7	296	711.968862902695	210.82229730548
7	297	712.508940213688	204.50999972323
7	298	714.47007303435	201.69481205734
7	318	747.713329018633	226.66099216661
7	321	755.393732099528	229.85047796873
7	330	767.237289202036	239.96055252445
7	331	769.020596433516	233.6355095669
7	332	770.917136185227	219.75446927316
7	333	772.166093721783	219.10519144149
7	336	778.698124177811	223.04170076488
7	337	789.558692461556	232.80386413067
7	392	923.701475589403	360.33129672619
7	393	927.315728521898	361.67732668519
7	394	933.74735783696	357.37157916347
7	399	960.436857911343	383.42879419727
7	400	960.991672972294	378.5427254748
7	401	964.647150665288	379.76392602099
7	402	966.472743899927	365.76278083609
7	409	979.163458902464	354.00771323463
7	410	982.355921425682	349.378816085
7	417	997.565210040484	356.71379319429
7	418	1003.319702155255	320.3585982126
7	419	1016.44262314878	328.68100491457
7	420	1018.456681603638	329.72875027467
7	425	1040.33503960114	335.2586688789
7	430	1044.619081465027	328.67107226453
7	435	1047.15102950034	326.46426265496
7	440	1052.857168631036	332.03860100823
7	443	1063.545203272471	339.74611170397
7	444	1077.66113997519	346.61076828118
7	445	1079.693140065389	341.47794933056
7	446	1083.097990726814	344.27575270231
7	447	1083.915625707498	339.84733847071
7	508	1224.543055026772	472.15106565115
7	511	1237.825651504825	481.92832702032
7	516	1246.553584549782	490.06869992742
7	532	1279.332134011023	517.8587487887
7	537	1293.710244448419	531.4841501725
7	544	1311.544241877942	535.88215349443
7	545	1316.626326233069	526.54579140019
7	546	1316.924669422102	517.20009309692
7	547	1320.564220583633	499.41697357057
7	554	1332.795229452736	508.99380694747
7	555	1333.818712036039	497.06890748985
7	576	1399.348641587469	546.26973839515
7	577	1399.491145530552	528.49267483099
7	578	1400.183230865282	519.35249694133
7	579	1401.574275931985	508.35684073735
7	591	1436.865049403729	530.19618240682
7	596	1448.811461498073	530.18817092467
7	599	1458.288363572067	539.04001409217
7	602	1469.196061291763	523.34041356571
7	603	1470.106282115882	523.41817062776
7	616	1497.059139740355	529.02801643227
7	619	1510.618372012597	540.46596529325
7	620	1512.791166764128	541.64086633165
7	621	1513.276154183363	527.02148762796
7	622	1519.164640064089	530.77120606651
7	627	1529.647288881219	535.1566651984
7	630	1531.070263482841	503.94503787122
7	631	1537.534984150738	503.62276817461
7	632	1538.857589494064	495.54913305747
7	633	1539.259957627963	494.79769000065
7	638	1557.142273963597	511.50942578351
7	651	1582.761277077376	536.92133038984
7	652	1583.398490359944	536.09642123669
7	655	1591.081761801042	543.24390231369
7	656	1594.430713493281	538.53542499255
7	657	1597.354494394544	507.98585468623
7	658	1599.41562514615	505.28759016862
7	659	1600.690526345386	500.61941444717
7	660	1602.361504246818	499.12189010274
7	661	1604.38757458435	482.40425187679
7	662	1608.770837124948	464.04249429791
7	667	1617.659196256472	450.52190358862
7	668	1617.860548266299	448.92918178197
7	671	1625.810286524596	417.17814218887
7	681	1645.503149568724	435.45124095361
7	682	1649.10664875577	429.84773785369
7	689	1654.618467039498	431.54177636358
7	690	1655.082734288623	420.63214291601
7	695	1665.223274541575	427.09933096187
7	696	1669.330598823409	426.40172852868
7	701	1685.652948503305	437.2413092404
7	702	1687.277281782839	435.89785793709
7	705	1699.883063009792	445.0456209856
7	708	1704.743820082491	449.34473805146
7	709	1707.470169597432	444.09758277971
7	716	1715.10575570664	443.33812719551
7	719	1722.444237141775	438.88291939821
7	720	1724.102573224702	430.59808241096
7	726	1729.666585027618	435.16074493006
7	733	1738.678379665001	443.75423780668
7	734	1740.062678184183	430.04579482227
7	737	1743.33012470681	417.31948003658
7	743	1753.436807637511	427.30664234747
7	752	1759.948164858316	430.68928113999
7	753	1761.403757783779	426.78477097629
7	754	1764.809584625412	424.81324667075
7	755	1765.348684818728	401.11442959975
7	756	1767.80937667031	382.55765492963
7	761	1783.653691092284	376.03038298671
7	764	1786.636039123162	378.18252938851
7	765	1787.6933607694	377.15200900823
7	792	1840.951526846162	430.25032632674
7	795	1841.64848780724	403.73224809716
7	796	1843.217923755192	397.92790589775
7	797	1847.043508708808	389.90752264986
7	798	1851.781162686281	387.91808132359
7	799	1859.148848906317	384.02779761294
7	824	1910.793941729669	425.09526296134
7	827	1915.619918118489	429.53715383651
7	830	1919.409883532794	430.75526323043
7	833	1925.660434591496	433.31041461709
7	834	1926.891573232867	432.40991404108
7	837	1942.454740685178	439.66622725331
7	838	1945.000771487814	423.6953856187
7	944	2162.681394990398	640.13440995369
7	949	2177.659852117983	647.33853290156
7	950	2184.158310505378	642.41825354654
7	961	2200.437886903243	647.27803590486
7	966	2220.167392912299	655.43530312928
7	967	2221.45881230205	652.88002966193
7	968	2226.698411738726	648.11116439569
7	971	2235.945091678424	646.37116128207
7	974	2241.416851784157	626.60109912186
7	984	2253.952058287812	636.45796676253
7	985	2254.233582934932	631.39035612906
7	986	2257.597949714822	621.39416197763
7	987	2258.818110394216	622.59450548625
7	988	2259.176632015238	617.45312180085
7	989	2260.925278686066	611.04242094261
7	990	2261.389993861814	608.64132846275
7	991	2262.24654013577	608.34505009764
7	994	2266.362382786553	610.08072577575
7	997	2273.817792040594	610.73115440133
7	1055	2412.320833178757	740.01162569993
7	1056	2418.275597045147	741.36613521663
7	1059	2423.792604073447	726.72778265808
7	1060	2429.500367368968	729.00682348927
7	1061	2429.684716951039	716.36151103874
7	1062	2430.856138954551	717.34869510005
7	1071	2440.467554419512	726.15233501336
7	1072	2440.718080784288	724.38287796719
7	1075	2450.801726332865	725.02992158507
7	1076	2455.922103330107	721.22694810032
7	1077	2468.371584084086	732.48093425176
8	167	421.231036863725	11
8	178	439.610663971992	12
8	186	453.793526523054	13
8	189	457.822166656212	14
8	203	490.031856445978	15
8	211	501.146565597212	16
8	214	507.998940490456	17
8	226	535.385086866618	18
8	252	577.008063714078	19
8	268	625.155745667831	20
8	273	632.977105340681	21
8	282	682.961103942653	22
8	304	720.818567622802	23
8	320	752.391989375619	24
8	323	755.897324484502	25
8	335	775.662088383508	26
8	339	790.080534832881	27
8	412	986.254666555407	28
8	434	1045.839946687533	29
8	442	1055.895288500736	30
8	451	1094.128034977528	31
8	522	1254.837442024195	32
8	534	1283.561317743566	33
8	541	1294.924141858317	34
8	557	1334.618986807489	35
8	581	1407.623308105574	36
8	595	1445.290017857441	37
8	626	1522.546985036706	38
8	640	1564.732089783015	39
8	664	1614.815752662296	40
8	677	1641.723510214391	41
8	698	1672.309207478826	42
8	707	1700.493543879694	43
8	722	1725.771804747797	44
8	736	1741.765106934903	45
8	739	1747.672227176383	46
8	745	1753.882913231852	47
8	763	1785.856777205899	48
8	767	1790.198200156219	49
8	803	1884.186922687865	50
8	829	1915.950055390832	51
8	840	1947.126132806161	52
8	946	2166.547424019246	53
8	952	2190.516773128762	54
8	973	2238.342644924639	55
8	976	2241.536865042855	56
8	999	2283.392076793466	57
8	1070	2437.703142205419	58
8	1079	2475.022752058164	59
9	184	453.61841582257	22
9	196	476.886049640864	23
9	197	479.211557425227	24
9	198	479.842068578437	25
9	199	481.769761766862	26
9	209	500.777874793781	27
9	218	519.172443111966	28
9	237	556.506315683969	29
9	238	556.542388995051	30
9	241	558.936739299523	31
9	246	566.068863568085	32
9	247	571.058023823757	33
9	250	576.727759893291	34
9	260	604.646213826678	35
9	261	606.448138063953	36
9	262	607.873585575201	37
9	263	612.431609749616	38
9	264	612.871118460818	39
9	265	621.404762910184	40
9	266	623.351271121194	41
9	270	627.733853925848	42
9	271	631.170814961843	43
9	277	642.194084974845	44
9	278	642.313780216424	45
9	279	654.273694433078	46
9	280	672.120477874478	47
9	296	711.968862902695	48
9	297	712.508940213688	49
9	298	714.47007303435	50
9	331	769.020596433516	51
9	332	770.917136185227	52
9	333	772.166093721783	53
9	337	789.558692461556	54
9	393	927.315728521898	55
9	394	933.74735783696	56
9	399	960.436857911343	57
9	400	960.991672972294	58
9	401	964.647150665288	59
9	402	966.472743899927	60
9	409	979.163458902464	61
9	410	982.355921425682	62
9	418	1003.319702155255	63
9	419	1016.44262314878	64
9	420	1018.456681603638	65
9	425	1040.33503960114	66
9	430	1044.619081465027	67
9	440	1052.857168631036	68
9	444	1077.66113997519	69
9	445	1079.693140065389	70
9	446	1083.097990726814	71
9	447	1083.915625707498	72
9	511	1237.825651504825	73
9	516	1246.553584549782	74
9	545	1316.626326233069	75
9	546	1316.924669422102	76
9	547	1320.564220583633	77
9	554	1332.795229452736	78
9	555	1333.818712036039	79
9	577	1399.491145530552	80
9	578	1400.183230865282	81
9	579	1401.574275931985	82
9	599	1458.288363572067	83
9	602	1469.196061291763	84
9	603	1470.106282115882	85
9	616	1497.059139740355	86
9	619	1510.618372012597	87
9	620	1512.791166764128	88
9	621	1513.276154183363	89
9	622	1519.164640064089	90
9	630	1531.070263482841	91
9	631	1537.534984150738	92
9	632	1538.857589494064	93
9	633	1539.259957627963	94
9	638	1557.142273963597	95
9	652	1583.398490359944	96
9	655	1591.081761801042	97
9	656	1594.430713493281	98
9	657	1597.354494394544	99
9	658	1599.41562514615	100
9	659	1600.690526345386	101
9	660	1602.361504246818	102
9	661	1604.38757458435	103
9	662	1608.770837124948	104
9	668	1617.860548266299	105
9	671	1625.810286524596	106
9	682	1649.10664875577	107
9	689	1654.618467039498	108
9	690	1655.082734288623	109
9	695	1665.223274541575	110
9	696	1669.330598823409	111
9	702	1687.277281782839	112
9	705	1699.883063009792	113
9	709	1707.470169597432	114
9	716	1715.10575570664	115
9	719	1722.444237141775	116
9	720	1724.102573224702	117
9	733	1738.678379665001	118
9	734	1740.062678184183	119
9	753	1761.403757783779	120
9	754	1764.809584625412	121
9	755	1765.348684818728	122
9	756	1767.80937667031	123
9	761	1783.653691092284	124
9	765	1787.6933607694	125
9	795	1841.64848780724	126
9	796	1843.217923755192	127
9	797	1847.043508708808	128
9	798	1851.781162686281	129
9	799	1859.148848906317	130
9	827	1915.619918118489	131
9	833	1925.660434591496	132
9	834	1926.891573232867	133
9	837	1942.454740685178	134
9	838	1945.000771487814	135
9	950	2184.158310505378	136
9	966	2220.167392912299	137
9	967	2221.45881230205	138
9	968	2226.698411738726	139
9	971	2235.945091678424	140
9	985	2254.233582934932	141
9	986	2257.597949714822	142
9	987	2258.818110394216	143
9	988	2259.176632015238	144
9	989	2260.925278686066	145
9	990	2261.389993861814	146
9	991	2262.24654013577	147
9	994	2266.362382786553	148
9	997	2273.817792040594	149
9	1056	2418.275597045147	150
9	1059	2423.792604073447	151
9	1060	2429.500367368968	152
9	1061	2429.684716951039	153
9	1062	2430.856138954551	154
9	1072	2440.718080784288	155
9	1075	2450.801726332865	156
9	1076	2455.922103330107	157
9	1077	2468.371584084086	158
10	184	453.61841582257	227.61701678792
10	196	476.886049640864	244.5521488568
10	197	479.211557425227	215.30171550255
10	198	479.842068578437	212.48251668025
10	199	481.769761766862	204.6265381371
10	209	500.777874793781	189.82028167017
10	218	519.172443111966	179.68342992685
10	237	556.506315683969	206.621114284
10	238	556.542388995051	206.23869468632
10	241	558.936739299523	206.22728868334
10	246	566.068863568085	206.93112398886
10	247	571.058023823757	201.79138639665
10	250	576.727759893291	207.3523470761
10	260	604.646213826678	217.62149342285
10	261	606.448138063953	213.28552618941
10	262	607.873585575201	213.1941593697
10	263	612.431609749616	197.04830194788
10	264	612.871118460818	193.99898017064
10	265	621.404762910184	200.17372604646
10	266	623.351271121194	201.48900185398
10	270	627.733853925848	186.60378239322
10	271	631.170814961843	179.10893985192
10	277	642.194084974845	184.37191831863
10	278	642.313780216424	174.15788216945
10	279	654.273694433078	166.26379562592
10	280	672.120477874478	182.0886214285
10	296	711.968862902695	217.45685241956
10	297	712.508940213688	211.36237461648
10	298	714.47007303435	206.47113254389
10	331	769.020596433516	241.74385975593
10	332	770.917136185227	235.53204931861
10	333	772.166093721783	221.00342680972
10	337	789.558692461556	233.90226904862
10	393	927.315728521898	363.94554965868
10	394	933.74735783696	368.10895600025
10	399	960.436857911343	384.06107923785
10	400	960.991672972294	383.98360925822
10	401	964.647150665288	382.1982031678
10	402	966.472743899927	381.58951925563
10	409	979.163458902464	378.45349583863
10	410	982.355921425682	357.20017575785
10	418	1003.319702155255	362.46828530906
10	419	1016.44262314878	333.48151920613
10	420	1018.456681603638	330.69506336943
10	425	1040.33503960114	351.60710827217
10	430	1044.619081465027	339.54271074279
10	440	1052.857168631036	332.17040178566
10	444	1077.66113997519	353.86204840669
10	445	1079.693140065389	348.64276837137
10	446	1083.097990726814	344.88279999198
10	447	1083.915625707498	345.093387683
10	511	1237.825651504825	485.43366212921
10	516	1246.553584549782	490.65626006528
10	545	1316.626326233069	540.96423784956
10	546	1316.924669422102	526.84413458922
10	547	1320.564220583633	520.83964425845
10	554	1332.795229452736	511.64798243967
10	555	1333.818712036039	510.01728953077
10	577	1399.491145530552	546.41224233824
10	578	1400.183230865282	529.18476016572
10	579	1401.574275931985	520.74354200804
10	599	1458.288363572067	539.66507299866
10	602	1469.196061291763	549.94771181186
10	603	1470.106282115882	524.25063438983
10	616	1497.059139740355	550.37102825223
10	619	1510.618372012597	542.58724870451
10	620	1512.791166764128	542.63876004478
10	621	1513.276154183363	542.12585375089
10	622	1519.164640064089	532.90997350868
10	630	1531.070263482841	536.57963980002
10	631	1537.534984150738	510.40975853912
10	632	1538.857589494064	504.94537351794
10	633	1539.259957627963	495.95150119137
10	638	1557.142273963597	512.68000633629
10	652	1583.398490359944	537.55854367241
10	655	1591.081761801042	543.77969267779
10	656	1594.430713493281	546.59285400593
10	657	1597.354494394544	541.45920589381
10	658	1599.41562514615	510.04698543784
10	659	1600.690526345386	506.56249136786
10	660	1602.361504246818	502.2903923486
10	661	1604.38757458435	501.14796044028
10	662	1608.770837124948	486.78751441739
10	668	1617.860548266299	450.72325559845
10	671	1625.810286524596	456.87892004027
10	682	1649.10664875577	439.05474014065
10	689	1654.618467039498	435.35955613742
10	690	1655.082734288623	432.00604361271
10	695	1665.223274541575	430.77268316896
10	696	1669.330598823409	431.2066552437
10	702	1687.277281782839	438.86564251993
10	705	1699.883063009792	448.50363916404
10	709	1707.470169597432	452.0710875664
10	716	1715.10575570664	451.73316888892
10	719	1722.444237141775	450.67660863065
10	720	1724.102573224702	440.54125548114
10	733	1738.678379665001	444.17253956744
10	734	1740.062678184183	445.13853632587
10	753	1761.403757783779	432.14487406546
10	754	1764.809584625412	430.19059781792
10	755	1765.348684818728	425.35234686406
10	756	1767.80937667031	403.57512145134
10	761	1783.653691092284	398.40196935161
10	765	1787.6933607694	379.23985103475
10	795	1841.64848780724	430.94728728782
10	796	1843.217923755192	405.30168404512
10	797	1847.043508708808	401.75349085137
10	798	1851.781162686281	394.64517662733
10	799	1859.148848906317	395.28576754362
10	827	1915.619918118489	429.92123935016
10	833	1925.660434591496	437.00581428913
10	834	1926.891573232867	434.54155325846
10	837	1942.454740685178	447.97308149339
10	838	1945.000771487814	442.21225805595
10	950	2184.158310505378	653.83699128895
10	966	2220.167392912299	667.00754191392
10	967	2221.45881230205	656.72672251903
10	968	2226.698411738726	658.11962909861
10	971	2235.945091678424	657.35784433539
10	985	2254.233582934932	636.73949140965
10	986	2257.597949714822	634.75472290895
10	987	2258.818110394216	622.61432265702
10	988	2259.176632015238	622.95302710728
10	989	2260.925278686066	619.20176847167
10	990	2261.389993861814	611.50713611836
10	991	2262.24654013577	609.4978747367
10	994	2266.362382786553	612.46089274842
10	997	2273.817792040594	617.53613502979
10	1056	2418.275597045147	745.96638956632
10	1059	2423.792604073447	746.88314224493
10	1060	2429.500367368968	732.4355459536
10	1061	2429.684716951039	729.19117307135
10	1062	2430.856138954551	717.53293304225
10	1072	2440.718080784288	726.40286137814
10	1075	2450.801726332865	734.46652351577
10	1076	2455.922103330107	730.15029858231
10	1077	2468.371584084086	733.6764288543
11	1086	2500	0.0632
12	1086	2500	0.0532

