version 2
run experiments_hard_game_mode1-1629-20230311-19:45:27-13220
attr configname experiments_hard_game_mode1
attr datetime 20230311-19:45:27
attr experiment experiments_hard_game_mode1
attr inifile omnetpp.ini
attr iterationvars "$0=10, $1=5, $2=0"
attr iterationvarsf 10,5,0-
attr measurement "$0=10, $1=5, $2=0"
attr network Network
attr processid 13220
attr repetition 9
attr replication #9
attr resultdir results
attr runnumber 1629
attr seedset 9
param *.boss.arrival_mean 20
param *.boss.service_mean 10
param *.minion.arrival_mean 10
param *.minion.service_mean 5
param *.player.recover_rate_x 0
param **.minion.arrival_distribution 0
param **.minion.service_distribution 0
param **.boss.arrival_distribution 0
param **.boss.service_distribution 0

vector 0 Network.player boss_defeated_stat:vector ETV
attr source signal_boss_defeated
vector 1 Network.player boss_jobs_queue_number_stat:vector ETV
attr source signal_boss_jobs_queue_number
vector 2 Network.player boss_response_time_stat:vector ETV
attr source signal_boss_response_time
vector 3 Network.player minion_waiting_time_stat:vector ETV
attr source signal_minion_waiting_time
vector 4 Network.player minion_jobs_number_stat:vector ETV
attr source signal_minion_jobs_number
vector 5 Network.player minion_jobs_queue_number_stat:vector ETV
attr source signal_minion_jobs_queue_number
vector 6 Network.player minion_defeated_stat:vector ETV
attr source signal_minion_defeated
vector 7 Network.player minion_response_time_stat:vector ETV
attr source signal_minion_response_time
vector 8 Network.player boss_jobs_number_stat:vector ETV
attr source signal_boss_jobs_number
vector 9 Network.player minion_recovered_stat:vector ETV
attr source signal_minion_recovered
vector 10 Network.player boss_waiting_time_stat:vector ETV
attr source signal_boss_waiting_time
vector 11 Network.player minion_throughput:vector ETV
attr source signal_minion_throughput
vector 12 Network.player boss_throughput:vector ETV
attr source signal_boss_throughput
0	124	357.51849045691	10
0	135	374.361984624284	11
0	145	387.062194711891	12
0	150	393.296697293127	13
0	151	395.883489942446	14
0	159	405.925687027885	15
0	168	417.699878070027	16
0	171	427.715991019925	17
0	184	446.659664706914	18
0	191	472.651247672422	19
0	217	504.412689190359	20
0	224	521.313905382625	21
0	227	528.851367618423	22
0	240	557.945900060368	23
0	241	560.60158614915	24
0	255	588.132855616111	25
0	258	594.477651944988	26
0	270	632.202426855984	27
0	292	694.093361905102	28
0	295	711.569560991069	29
0	296	715.657524848666	30
0	307	744.893524460222	31
0	310	747.738881974986	32
0	315	757.628734251179	33
0	316	761.854143701974	34
0	321	765.433885836103	35
0	324	770.117633085033	36
0	329	788.344199112615	37
0	332	795.474871005983	38
0	354	845.417449577468	39
0	355	856.961232360485	40
0	379	906.72683665488	41
0	393	921.750485920236	42
0	422	976.684675566509	43
0	439	1001.681984458602	44
0	446	1014.419287702364	45
0	447	1015.549055971015	46
0	448	1019.058447962468	47
0	449	1021.846362064185	48
0	454	1028.490141639713	49
0	480	1089.289270115322	50
0	504	1149.012968726684	51
0	505	1150.622565968626	52
0	532	1214.867827383285	53
0	537	1223.346300155957	54
0	542	1230.230070693842	55
0	561	1275.83529711558	56
0	569	1294.318017044232	57
0	576	1306.807235145382	58
0	590	1330.986690092148	59
0	598	1341.185943287054	60
0	603	1352.286124206511	61
0	606	1364.535902923304	62
0	614	1382.756443502035	63
0	621	1390.04000477303	64
0	637	1440.373540486475	65
0	646	1452.218263192333	66
0	663	1492.427496821744	67
0	664	1499.71092104386	68
0	671	1507.540617189581	69
0	674	1509.741705596105	70
0	679	1520.313258733631	71
0	684	1533.990286317406	72
0	689	1545.1178302727	73
0	692	1556.4709512314	74
0	693	1573.56050801857	75
0	699	1588.768428583914	76
0	700	1588.904943483498	77
0	707	1608.190721604484	78
0	716	1627.75715742936	79
0	717	1630.211013650322	80
0	718	1635.921581393113	81
0	755	1736.392449723516	82
0	763	1750.533988946129	83
0	790	1807.991580855538	84
0	793	1820.55350854936	85
0	794	1827.407970424463	86
0	797	1848.349498339861	87
0	802	1850.05714153134	88
0	807	1854.859997482662	89
0	819	1879.11477392636	90
0	824	1888.591612783584	91
0	825	1891.910257984611	92
0	826	1894.412288907858	93
0	844	1928.468376577133	94
0	888	2022.60547065272	95
0	912	2048.155475772274	96
0	915	2051.449643984944	97
0	920	2061.079500885619	98
0	927	2067.630032953855	99
0	930	2074.402263587458	100
0	936	2083.213078150338	101
0	956	2132.878481557802	102
0	966	2150.567379702822	103
0	971	2164.249080689869	104
0	974	2166.523078526249	105
0	983	2186.354578528473	106
0	996	2212.274701833812	107
0	1011	2235.625089521557	108
0	1014	2248.458744585388	109
0	1021	2255.092561974761	110
0	1022	2259.348941681602	111
0	1041	2312.335403679886	112
0	1044	2314.810113032008	113
0	1045	2319.021081373039	114
0	1048	2321.696341868232	115
0	1049	2322.07569821063	116
0	1050	2323.23365564926	117
0	1055	2337.702755766409	118
0	1079	2379.029603924522	119
0	1080	2384.672308078147	120
0	1083	2392.463281499677	121
0	1096	2427.589910588857	122
0	1102	2454.603784508823	123
0	1107	2463.099764071269	124
1	124	357.51849045691	0
1	132	366.90674060042	0
1	135	374.361984624284	0
1	140	381.784833013177	0
1	144	386.250875507134	1
1	145	387.062194711891	1
1	149	389.749122569849	1
1	150	393.296697293127	1
1	151	395.883489942446	0
1	154	399.549588799422	0
1	156	402.504371015353	1
1	159	405.925687027885	1
1	161	408.499009690112	1
1	168	417.699878070027	1
1	171	427.715991019925	0
1	181	443.817232557662	0
1	183	445.367973862082	1
1	184	446.659664706914	1
1	191	472.651247672422	0
1	196	478.003471691353	0
1	204	484.600153220399	1
1	217	504.412689190359	1
1	223	517.502141464979	1
1	224	521.313905382625	1
1	227	528.851367618423	0
1	229	529.042666305749	0
1	237	549.723407939261	1
1	240	557.945900060368	1
1	241	560.60158614915	0
1	244	562.927292449865	0
1	254	586.270515660759	1
1	255	588.132855616111	1
1	258	594.477651944988	0
1	269	626.843884536897	0
1	270	632.202426855984	0
1	273	647.353795303353	0
1	277	662.438482297379	1
1	287	680.919630399863	2
1	292	694.093361905102	2
1	294	697.442376960556	2
1	295	711.569560991069	2
1	296	715.657524848666	1
1	300	725.763040227324	1
1	304	738.500469943368	2
1	306	739.177665474985	3
1	307	744.893524460222	3
1	310	747.738881974986	2
1	315	757.628734251179	1
1	316	761.854143701974	0
1	318	762.526755291277	0
1	320	765.313687185756	1
1	321	765.433885836103	1
1	324	770.117633085033	0
1	328	779.370713826155	0
1	329	788.344199112615	0
1	331	791.075455498199	0
1	332	795.474871005983	0
1	347	825.727435836351	0
1	353	841.668238793278	1
1	354	845.417449577468	1
1	355	856.961232360485	0
1	378	906.230180631313	0
1	379	906.72683665488	0
1	392	918.329453634844	0
1	393	921.750485920236	0
1	407	957.388344174164	0
1	409	957.723820241117	1
1	415	965.1212364791	2
1	417	970.625671301786	3
1	422	976.684675566509	3
1	426	986.583432109771	3
1	428	987.393290059605	4
1	439	1001.681984458602	4
1	445	1008.65887140681	4
1	446	1014.419287702364	4
1	447	1015.549055971015	3
1	448	1019.058447962468	2
1	449	1021.846362064185	1
1	454	1028.490141639713	0
1	473	1070.155179727889	0
1	480	1089.289270115322	0
1	499	1130.416300279589	0
1	501	1132.048297238397	1
1	504	1149.012968726684	1
1	505	1150.622565968626	0
1	529	1205.642446634233	0
1	532	1214.867827383285	0
1	536	1216.616931884824	0
1	537	1223.346300155957	0
1	539	1228.520457625003	0
1	542	1230.230070693842	0
1	552	1254.734196931696	0
1	561	1275.83529711558	0
1	566	1286.850380159512	0
1	569	1294.318017044232	0
1	575	1302.844015444965	0
1	576	1306.807235145382	0
1	589	1328.909099580252	0
1	590	1330.986690092148	0
1	595	1337.388330083135	0
1	597	1339.233828183082	1
1	598	1341.185943287054	1
1	600	1343.29505004117	1
1	603	1352.286124206511	1
1	606	1364.535902923304	0
1	613	1374.799124051652	0
1	614	1382.756443502035	0
1	618	1387.35074829731	0
1	621	1390.04000477303	0
1	636	1438.672465126625	0
1	637	1440.373540486475	0
1	643	1446.386407934709	0
1	646	1452.218263192333	0
1	650	1465.471776737086	0
1	654	1472.526123282645	1
1	656	1477.260476761024	2
1	658	1478.758750500482	3
1	660	1484.290723402252	4
1	662	1490.187265864041	5
1	663	1492.427496821744	5
1	664	1499.71092104386	4
1	666	1500.847975289427	4
1	671	1507.540617189581	4
1	673	1508.857475936079	4
1	674	1509.741705596105	4
1	679	1520.313258733631	3
1	684	1533.990286317406	2
1	686	1534.984185702364	2
1	689	1545.1178302727	2
1	692	1556.4709512314	1
1	693	1573.56050801857	0
1	696	1584.596546818588	0
1	698	1584.900654196861	1
1	699	1588.768428583914	1
1	700	1588.904943483498	0
1	704	1604.854966012996	0
1	707	1608.190721604484	0
1	709	1608.92861649769	0
1	711	1610.735235706327	1
1	715	1622.440234149539	2
1	716	1627.75715742936	2
1	717	1630.211013650322	1
1	718	1635.921581393113	0
1	750	1725.797566812866	0
1	755	1736.392449723516	0
1	762	1744.043509672546	0
1	763	1750.533988946129	0
1	785	1790.574625413366	0
1	787	1793.295441535686	1
1	789	1796.601928198126	2
1	790	1807.991580855538	2
1	793	1820.55350854936	1
1	794	1827.407970424463	0
1	796	1830.0117169173	0
1	797	1848.349498339861	0
1	799	1848.743132659626	0
1	802	1850.05714153134	0
1	806	1853.658041950659	0
1	807	1854.859997482662	0
1	810	1855.784039861942	0
1	812	1857.679617678275	1
1	819	1879.11477392636	1
1	821	1882.457710465602	1
1	823	1885.04093721874	2
1	824	1888.591612783584	2
1	825	1891.910257984611	1
1	826	1894.412288907858	0
1	843	1925.63764088096	0
1	844	1928.468376577133	0
1	887	2022.200134446936	0
1	888	2022.60547065272	0
1	901	2032.794886553949	0
1	903	2040.625890296416	1
1	912	2048.155475772274	1
1	915	2051.449643984944	0
1	919	2053.878915809292	0
1	920	2061.079500885619	0
1	926	2064.153547375319	0
1	927	2067.630032953855	0
1	929	2068.750220991927	0
1	930	2074.402263587458	0
1	933	2081.78025563606	0
1	936	2083.213078150338	0
1	955	2126.915847722145	0
1	956	2132.878481557802	0
1	959	2137.731399979001	0
1	961	2139.643418030477	1
1	965	2146.629260054248	2
1	966	2150.567379702822	2
1	971	2164.249080689869	1
1	974	2166.523078526249	0
1	980	2179.771093233548	0
1	983	2186.354578528473	0
1	989	2196.627595088498	0
1	996	2212.274701833812	0
1	1002	2216.971440694834	0
1	1006	2226.000127713074	1
1	1008	2228.447023846671	2
1	1010	2234.20252635727	3
1	1011	2235.625089521557	3
1	1013	2237.414483346714	3
1	1014	2248.458744585388	3
1	1016	2249.077865559208	3
1	1021	2255.092561974761	3
1	1022	2259.348941681602	2
1	1024	2259.534430219018	2
1	1028	2277.923741025562	3
1	1032	2288.666116345938	4
1	1038	2296.659481833168	5
1	1041	2312.335403679886	5
1	1044	2314.810113032008	4
1	1045	2319.021081373039	3
1	1048	2321.696341868232	2
1	1049	2322.07569821063	1
1	1050	2323.23365564926	0
1	1054	2330.015315462675	0
1	1055	2337.702755766409	0
1	1064	2350.915731692075	0
1	1076	2367.773846882979	1
1	1078	2378.574598955318	2
1	1079	2379.029603924522	2
1	1080	2384.672308078147	1
1	1083	2392.463281499677	0
1	1095	2425.11642804679	0
1	1096	2427.589910588857	0
1	1099	2431.98697731575	0
1	1102	2454.603784508823	0
1	1106	2458.246234532336	0
1	1107	2463.099764071269	0
1	1111	2481.626538504285	0
2	124	357.51849045691	9.237872098002
2	135	374.361984624284	7.455244023864
2	145	387.062194711891	5.277361698714
2	150	393.296697293127	7.045821785993
2	151	395.883489942446	6.134367372597
2	159	405.925687027885	6.376098228463
2	168	417.699878070027	15.195507054674
2	171	427.715991019925	19.216981329813
2	184	446.659664706914	2.842432149252
2	191	472.651247672422	27.28327381034
2	217	504.412689190359	26.409217499006
2	224	521.313905382625	36.713752162226
2	227	528.851367618423	11.349226153444
2	240	557.945900060368	28.903233754619
2	241	560.60158614915	10.878178209889
2	255	588.132855616111	25.205563166246
2	258	594.477651944988	8.207136284229
2	270	632.202426855984	5.358542319087
2	292	694.093361905102	46.739566601749
2	295	711.569560991069	49.13107869369
2	296	715.657524848666	34.737894448803
2	307	744.893524460222	47.451147499666
2	310	747.738881974986	21.975841747662
2	315	757.628734251179	19.128264307811
2	316	761.854143701974	22.676478226989
2	321	765.433885836103	2.907130544826
2	324	770.117633085033	4.803945899277
2	329	788.344199112615	8.97348528646
2	332	795.474871005983	4.399415507784
2	354	845.417449577468	19.690013741117
2	355	856.961232360485	15.292993567207
2	379	906.72683665488	0.496656023567
2	393	921.750485920236	3.421032285392
2	422	976.684675566509	19.296331392345
2	439	1001.681984458602	43.958164217485
2	446	1014.419287702364	49.298051223264
2	447	1015.549055971015	44.923384669229
2	448	1019.058447962468	32.475015852697
2	449	1021.846362064185	34.45307200458
2	454	1028.490141639713	19.831270232903
2	480	1089.289270115322	19.134090387433
2	504	1149.012968726684	18.596668447095
2	505	1150.622565968626	18.574268730229
2	532	1214.867827383285	9.225380749052
2	537	1223.346300155957	6.729368271133
2	542	1230.230070693842	1.709613068839
2	561	1275.83529711558	21.101100183884
2	569	1294.318017044232	7.46763688472
2	576	1306.807235145382	3.963219700417
2	590	1330.986690092148	2.077590511896
2	598	1341.185943287054	3.797613203919
2	603	1352.286124206511	13.052296023429
2	606	1364.535902923304	21.240852882134
2	614	1382.756443502035	7.957319450383
2	621	1390.04000477303	2.68925647572
2	637	1440.373540486475	1.70107535985
2	646	1452.218263192333	5.831855257624
2	663	1492.427496821744	26.955720084658
2	664	1499.71092104386	27.184797761215
2	671	1507.540617189581	30.280140428557
2	674	1509.741705596105	30.982955095623
2	679	1520.313258733631	36.022535331379
2	684	1533.990286317406	43.803020453365
2	689	1545.1178302727	44.269854983273
2	692	1556.4709512314	47.613475295321
2	693	1573.56050801857	38.576322316206
2	699	1588.768428583914	4.171881765326
2	700	1588.904943483498	4.004289286637
2	707	1608.190721604484	3.335755591488
2	716	1627.75715742936	18.82854093167
2	717	1630.211013650322	19.475777943995
2	718	1635.921581393113	13.481347243574
2	755	1736.392449723516	10.59488291065
2	763	1750.533988946129	6.490479273583
2	790	1807.991580855538	17.416955442172
2	793	1820.55350854936	27.258067013674
2	794	1827.407970424463	30.806042226337
2	797	1848.349498339861	18.337781422561
2	802	1850.05714153134	1.314008871714
2	807	1854.859997482662	1.201955532003
2	819	1879.11477392636	23.330734064418
2	824	1888.591612783584	30.911995105309
2	825	1891.910257984611	9.452547519009
2	826	1894.412288907858	9.371351689118
2	844	1928.468376577133	2.830735696173
2	888	2022.60547065272	0.405336205784
2	912	2048.155475772274	15.360589218325
2	915	2051.449643984944	10.823753688528
2	920	2061.079500885619	7.200585076327
2	927	2067.630032953855	3.476485578536
2	930	2074.402263587458	5.652042595531
2	936	2083.213078150338	1.432822514278
2	956	2132.878481557802	5.962633835657
2	966	2150.567379702822	12.835979723821
2	971	2164.249080689869	24.605662659392
2	974	2166.523078526249	19.893818472001
2	983	2186.354578528473	6.583485294925
2	996	2212.274701833812	15.647106745314
2	1011	2235.625089521557	18.653648826723
2	1014	2248.458744585388	22.458616872314
2	1021	2255.092561974761	26.64553812809
2	1022	2259.348941681602	25.146415324332
2	1041	2312.335403679886	74.920920333172
2	1044	2314.810113032008	65.7322474728
2	1045	2319.021081373039	59.486651154021
2	1048	2321.696341868232	43.77260084267
2	1049	2322.07569821063	33.409581864692
2	1050	2323.23365564926	26.574173816092
2	1055	2337.702755766409	7.687440303734
2	1079	2379.029603924522	28.113872232447
2	1080	2384.672308078147	16.898461195168
2	1083	2392.463281499677	13.888682544359
2	1096	2427.589910588857	2.473482542067
2	1102	2454.603784508823	22.616807193073
2	1107	2463.099764071269	4.853529538933
3	124	357.51849045691	27.528501304594
3	129	363.622868770425	33.609191835273
3	130	364.718653123118	18.8605105433
3	135	374.361984624284	26.081366265376
3	138	378.708457472475	30.287763200952
3	151	395.883489942446	37.013674043953
3	152	396.385154096642	32.809808615176
3	171	427.715991019925	60.809250419505
3	172	428.13697408673	56.241927264573
3	177	440.179006800191	62.255579523604
3	191	472.651247672422	90.866414659245
3	192	474.105969434939	89.306594305973
3	227	528.851367618423	141.22731309413
3	241	560.60158614915	161.05199734973
3	242	561.696423553853	157.9856682933
3	258	594.477651944988	184.60269085561
3	259	594.740595386922	183.65418779826
3	260	596.107026963356	182.65824313416
3	261	596.831069139455	174.17091168855
3	262	606.63435892278	172.86060311184
3	263	607.256670765906	170.7219409679
3	264	608.386060869077	165.84074193585
3	265	610.654545470724	166.83731291306
3	266	613.119360919318	161.6193515326
3	267	619.603037664552	159.12134899315
3	270	632.202426855984	159.87210370431
3	271	634.467484986142	158.17688275472
3	316	761.854143701974	283.85067201062
3	324	770.117633085033	288.53856701669
3	325	774.729356691865	290.61438584485
3	326	776.75402736301	292.34682392595
3	329	788.344199112615	301.5084039254
3	332	795.474871005983	304.95554471348
3	335	799.35608492278	306.95314298813
3	336	800.341864806253	304.00839019552
3	339	805.731505174573	309.16862682693
3	340	817.372788625973	316.67359189354
3	341	820.527593919391	309.91100584634
3	355	856.961232360485	340.55806350294
3	356	861.617276175422	337.63376948427
3	357	862.725877327778	333.68321102203
3	358	875.77844180741	334.67030187783
3	361	880.133886679158	336.23664633764
3	362	882.409943898185	337.16327273615
3	367	887.153866222237	334.46640863537
3	368	891.680401019414	328.75310856955
3	369	899.206067769508	332.39653989466
3	372	901.472297691505	332.74840821278
3	373	901.676898672454	332.37784990495
3	376	905.156514984273	331.67293908175
3	379	906.72683665488	317.12732778436
3	384	908.847552320257	282.00366778336
3	385	909.739901510068	262.38610620671
3	388	914.426998799155	261.74757975506
3	393	921.750485920236	257.90001579763
3	394	923.498861341495	257.00304532421
3	395	923.595473812402	249.41699691733
3	396	924.15180507799	249.71587352597
3	397	932.352279714099	246.48023611439
3	400	945.604661910525	258.09880292961
3	401	948.199729226661	229.02439529559
3	402	957.158687240168	231.3826600406
3	403	957.176739236477	209.4970938067
3	454	1028.490141639713	276.44461601125
3	455	1031.619766295652	275.98330066672
3	456	1031.833049643155	269.30629435188
3	457	1032.850082366878	267.00351255675
3	458	1034.903859588681	255.53314576253
3	459	1036.927035115788	245.85157961759
3	460	1037.45024059327	239.52058448465
3	463	1052.051427862846	248.68461435044
3	466	1055.884313853519	233.86245960366
3	467	1063.130617240487	239.03840148759
3	480	1089.289270115322	263.56183427897
3	481	1091.300063910014	265.42977192666
3	484	1100.945466607947	270.74015998508
3	491	1111.405250310839	234.90872070887
3	492	1115.778461685842	232.69946602678
3	497	1122.751593747806	238.63736875522
3	505	1150.622565968626	250.31298854512
3	506	1153.749972874144	251.06394432144
3	507	1157.804547493936	251.57436686262
3	510	1165.435110720539	257.59365262723
3	511	1171.520411981277	263.29692821752
3	514	1177.287802072512	263.30190557647
3	515	1177.485256844583	261.97403707605
3	516	1178.527982818032	260.19852918319
3	517	1179.737554893272	243.58738020922
3	520	1185.430060998593	228.07953810614
3	521	1185.87891153526	228.4905673611
3	522	1186.611558132677	227.07399175747
3	525	1189.326405365972	228.3113838165
3	526	1193.330308698973	219.52413771102
3	527	1204.988239611525	230.65445828842
3	532	1214.867827383285	229.13469598712
3	537	1223.346300155957	235.9278140292
3	542	1230.230070693842	240.51212625175
3	549	1249.102527296339	252.46716609346
3	550	1254.476671099877	256.97469364004
3	561	1275.83529711558	275.22091638167
3	562	1277.328587700559	274.3910482826
3	569	1294.318017044232	291.17810434675
3	570	1296.11626092786	272.66265827398
3	573	1300.541249565511	272.69714422381
3	576	1306.807235145382	266.34177032878
3	577	1308.819717733558	254.35889042674
3	578	1310.869262371403	245.39315155489
3	581	1314.093541328615	245.316589913
3	584	1321.293749234766	251.13856950688
3	587	1328.075776715434	254.18592339372
3	590	1330.986690092148	244.76299191018
3	593	1335.759877711479	248.73162619066
3	606	1364.535902923304	264.22417408751
3	607	1367.315880420106	264.3787540177
3	610	1372.28217558673	268.98600687115
3	611	1373.34898229873	267.80567490341
3	614	1382.756443502035	263.52565452531
3	615	1382.864660087746	261.86506823469
3	616	1384.912260050346	254.49595977076
3	621	1390.04000477303	257.47983220808
3	622	1401.113100134193	239.15275672884
3	623	1406.981161697819	229.78516430688
3	624	1412.120123803904	232.0387073291
3	625	1414.831755136207	227.21408959884
3	626	1418.447897680484	212.80545104625
3	627	1419.469849896113	208.53694640605
3	628	1420.614793845449	205.14547306924
3	631	1421.940892573285	205.32396068846
3	634	1434.708613421396	206.18815579639
3	637	1440.373540486475	210.16070601623
3	638	1440.575746508473	209.00818350066
3	641	1444.088503869415	210.93155497405
3	646	1452.218263192333	214.28027726453
3	647	1457.472970627797	202.7387736961
3	648	1461.560981968391	202.04418241177
3	693	1573.56050801857	303.01995935973
3	694	1576.220759210274	304.89996005828
3	700	1588.904943483498	314.65152212288
3	701	1589.85059690458	304.69780683084
3	702	1599.022523396275	312.17214323676
3	707	1608.190721604484	318.93511802573
3	718	1635.921581393113	336.6646479874
3	725	1648.909299870799	346.06528442583
3	726	1650.198722479977	337.74965526427
3	727	1652.97116293371	336.69166306291
3	728	1657.35834851498	329.56373325621
3	729	1658.859641220396	329.95054164014
3	730	1660.953815328697	327.16781747567
3	733	1663.577124164406	326.18879408127
3	736	1668.496212618463	320.11306389471
3	737	1671.56485854755	307.72271700222
3	738	1689.080875521499	321.2680199968
3	739	1690.050145446402	315.25102139475
3	740	1698.541115014451	311.19036671714
3	741	1701.572364581947	313.42774949527
3	742	1701.942590290436	280.99058315131
3	743	1705.827859893198	272.41776258824
3	744	1711.641038686502	272.96857355988
3	745	1713.305506256566	271.80605221303
3	746	1715.416798886318	269.03039095161
3	747	1717.669452709927	269.23867654649
3	748	1720.853310377395	255.38153364031
3	755	1736.392449723516	269.29271044351
3	758	1740.462733365086	239.19577329743
3	763	1750.533988946129	243.34379497204
3	764	1751.458274580719	240.19461590429
3	767	1754.778885732277	234.54425831955
3	770	1756.316796973257	232.93530040961
3	771	1758.271640632862	227.59137731024
3	772	1760.11125321087	221.17796188178
3	773	1760.850560396355	205.15877281751
3	774	1769.479596323817	184.88304950523
3	777	1777.937910734963	173.08294472197
3	778	1781.099742272942	175.39393760557
3	779	1783.948994350899	175.02037785321
3	780	1785.867442344855	166.85110870552
3	783	1788.394869076796	147.28397480377
3	794	1827.407970424463	180.79788296131
3	797	1848.349498339861	200.40626554206
3	802	1850.05714153134	187.22663333634
3	803	1850.417169380624	182.71728964922
3	804	1852.393386422923	126.59581961006
3	807	1854.859997482662	127.7999628971
3	808	1855.65275550879	123.07688177667
3	826	1894.412288907858	154.28100481192
3	827	1894.983196698247	152.89478023997
3	830	1896.2258009356	152.18229126305
3	833	1900.245504907272	145.53227871988
3	834	1903.589478095603	148.76428614594
3	835	1909.052836548521	135.93753178825
3	836	1909.843607728296	121.95822464834
3	837	1910.916906940723	120.34228152736
3	844	1928.468376577133	108.71082504058
3	845	1929.095832682104	99.084115764804
3	846	1929.365828532523	80.622695872897
3	849	1936.838925900328	86.886910537674
3	850	1937.488442641236	83.830400690577
3	851	1941.434181062086	85.650141200144
3	852	1941.861213496699	81.890411072869
3	855	1951.17452327475	88.267645148128
3	858	1955.140233155934	92.189570294396
3	859	1958.48997761652	63.195721014291
3	860	1960.290130830548	62.034134881256
3	863	1962.481205959144	49.361652227748
3	864	1964.801780602756	47.854174030383
3	865	1965.537263487828	39.899622606868
3	866	1966.682139659305	31.736337803628
3	867	1971.476846069356	26.676429036619
3	868	1984.258904318327	32.715172713311
3	869	1988.261281408684	26.070633836629
3	878	2003.827841133628	13.884502860773
3	879	2006.441006747274	10.556670711066
3	882	2012.612932129491	12.149351224271
3	883	2014.824506365489	11.574313317004
3	888	2022.60547065272	11.698031180732
3	889	2025.651578188392	8.385334475414
3	894	2028.52214988669	6.322015439754
3	899	2031.135731627852	5.180187847821
3	915	2051.449643984944	25.199454730353
3	920	2061.079500885619	32.084557449033
3	923	2062.484647111387	33.279113711238
3	924	2062.784746850715	29.989860296766
3	927	2067.630032953855	23.060051946881
3	930	2074.402263587458	28.787165722007
3	931	2076.66756042105	29.049233730844
3	936	2083.213078150338	35.537983399676
3	939	2085.234200414109	35.955693791636
3	940	2086.745297821783	34.724234640948
3	941	2091.001466526264	37.122550716972
3	942	2091.836135479149	29.90308501598
3	943	2100.209857821877	36.056310446558
3	944	2101.898059227119	33.147838235192
3	945	2106.901769584041	25.121513947981
3	948	2109.06764056154	27.103441206239
3	951	2114.040440283513	30.043364432194
3	952	2119.895416114609	12.05083463248
3	953	2121.798856259109	10.260162202095
3	956	2132.878481557802	5.962633835657
3	974	2166.523078526249	22.821313138801
3	975	2172.132387789038	9.209069578484
3	978	2177.745954829506	13.667936699819
3	983	2186.354578528473	21.388471105288
3	984	2187.30392557757	10.164561367195
3	987	2193.575381329859	13.804288096311
3	996	2212.274701833812	26.302778435391
3	997	2215.474614334596	24.081962005401
3	1000	2215.93530767955	19.307712591052
3	1050	2323.23365564926	122.64389818676
3	1051	2326.774394205667	124.78339269065
3	1052	2327.633904353309	116.82008061337
3	1055	2337.702755766409	122.03481604709
3	1056	2343.273483253578	126.30204255874
3	1057	2343.415453831745	120.62991846103
3	1058	2343.892891504043	94.799079645837
3	1061	2346.453662933489	94.243578719672
3	1062	2346.47425770471	75.62250654004
3	1083	2392.463281499677	108.39721721963
3	1084	2396.103847147315	106.98934687244
3	1085	2398.590181325047	105.83558120934
3	1086	2398.998668792633	101.12179035021
3	1087	2407.115468108299	93.256054385029
3	1088	2410.252193953441	90.635726412565
3	1089	2412.103412008648	82.088096545973
3	1090	2415.457010854262	71.049388870741
3	1093	2415.582656218675	64.6669245266
3	1096	2427.589910588857	73.336325402024
3	1097	2428.933182892566	68.816645729536
3	1102	2454.603784508823	91.358841765107
3	1103	2456.370871900974	91.369078250837
3	1104	2457.259465880833	90.174632150331
3	1107	2463.099764071269	73.401275618259
4	126	358.869815898493	6
4	128	363.575345481466	7
4	134	371.895046822157	6
4	137	377.923427276587	7
4	142	384.799375128966	7
4	147	387.624054524293	8
4	158	403.710755260551	8
4	163	409.874961089375	9
4	165	411.086407588665	10
4	167	413.4487838292	11
4	170	422.660157450908	12
4	174	433.773755810936	12
4	176	436.534729798009	13
4	179	442.545318933231	13
4	186	451.500009386721	14
4	188	460.481688671399	15
4	190	472.330323151671	16
4	194	476.290602231417	16
4	198	481.579066068344	17
4	200	484.114970847012	18
4	202	484.407203437057	19
4	206	486.835795187214	20
4	208	490.519326292506	21
4	210	492.402941934648	22
4	212	496.333474610729	23
4	214	496.562878347646	24
4	216	500.699196732436	25
4	219	510.616588073054	26
4	221	516.403168857546	27
4	226	523.983506691155	28
4	231	541.108139929585	29
4	233	543.897240341514	30
4	235	545.246671162031	31
4	239	552.687457586862	32
4	246	566.809527874848	32
4	248	568.72388947873	33
4	250	569.299048767503	34
4	252	573.483575902518	35
4	257	589.599508870518	36
4	275	652.679419044099	27
4	279	663.850470122602	28
4	281	666.495816017287	29
4	283	674.178476895076	30
4	285	674.435931552021	31
4	289	685.87204359971	32
4	291	687.505858980912	33
4	298	719.175333931076	34
4	302	725.776027199568	35
4	309	747.679645429777	36
4	312	752.045525628458	37
4	314	755.63646562893	38
4	323	765.846569810133	39
4	334	797.929656108619	38
4	338	803.366813512402	37
4	343	822.021854249861	35
4	345	824.092215752893	36
4	349	825.870291983351	37
4	351	830.205306622871	38
4	360	876.496529601967	36
4	364	883.078995659064	35
4	366	884.114224992584	36
4	371	900.309577423501	34
4	375	902.686028552706	33
4	381	907.841458093308	33
4	383	908.22348376376	34
4	387	913.985896496045	33
4	390	915.511219768531	33
4	399	936.150174684048	30
4	405	957.350522892456	27
4	411	959.537566375211	28
4	413	961.015021549476	29
4	419	973.806170987952	30
4	421	974.3337813231	31
4	424	985.733131396166	32
4	430	987.418486126761	33
4	432	989.71794444209	34
4	434	996.635361202879	35
4	436	997.50197745984	36
4	438	1000.614380733914	37
4	441	1002.93753941796	38
4	443	1003.139912697479	39
4	451	1023.453602653883	40
4	453	1027.844105341699	41
4	462	1040.4654648166	36
4	465	1054.46082730682	36
4	469	1065.476110816513	35
4	471	1068.776951415614	36
4	475	1073.889853321717	37
4	477	1086.223698181971	38
4	479	1087.028251520815	39
4	483	1100.311728835791	39
4	486	1102.937126402404	39
4	488	1103.296168715579	40
4	490	1105.543307395317	41
4	494	1119.230788976723	40
4	496	1120.999591853058	41
4	503	1132.560172564953	41
4	509	1161.96034340535	40
4	513	1177.195997390942	39
4	519	1180.081416474803	36
4	524	1187.617665537362	34
4	531	1210.932903490067	32
4	534	1215.469320776207	33
4	541	1230.212834470246	34
4	544	1231.567563007815	35
4	546	1233.156948895368	36
4	548	1237.937985927801	37
4	554	1259.516799556624	36
4	556	1270.540548658841	37
4	558	1271.320799151996	38
4	560	1274.253421360614	39
4	564	1285.152790073744	39
4	568	1289.255603578751	40
4	572	1299.256933405716	40
4	580	1312.449067215708	38
4	583	1316.279499870803	38
4	586	1327.794615258772	38
4	592	1333.785997853023	38
4	602	1348.383148723751	38
4	605	1363.842141545331	39
4	609	1367.812855524695	39
4	620	1388.144615086676	36
4	630	1420.952007139121	30
4	633	1433.410097304958	30
4	640	1441.499454043538	29
4	645	1448.430776163437	29
4	652	1467.099739280006	28
4	668	1501.266960067661	29
4	670	1507.19019397409	30
4	676	1511.263658676434	31
4	678	1520.234627412726	32
4	681	1523.381496563648	33
4	683	1530.680263322624	34
4	688	1538.93329132909	35
4	691	1555.691787578848	36
4	706	1605.705804667371	34
4	713	1619.016333639338	35
4	720	1641.110894273024	36
4	722	1646.610087463157	37
4	724	1647.9432327978	38
4	732	1662.830508195001	33
4	735	1667.699879731407	33
4	752	1727.060034585561	21
4	754	1732.575873732124	22
4	757	1740.131284095942	23
4	760	1742.088416458281	23
4	766	1754.713226187395	23
4	769	1754.825191949659	23
4	776	1773.115304760274	19
4	782	1787.885383079952	16
4	792	1819.757551536556	16
4	801	1849.952015362654	17
4	814	1859.97080242383	15
4	816	1862.906878126622	16
4	818	1862.950662861538	17
4	829	1895.294256602229	17
4	832	1898.255995949292	17
4	839	1913.119553731396	13
4	841	1916.947606572373	14
4	848	1934.945801855677	13
4	854	1944.800417032737	10
4	857	1951.543731605016	10
4	862	1962.190647572055	8
4	871	1989.943338272855	2
4	873	1995.884336036208	3
4	875	2000.46358090522	4
4	877	2003.250193048485	5
4	881	2010.907439471988	4
4	885	2017.266243712978	3
4	891	2025.955543780031	3
4	893	2026.250189254591	4
4	896	2028.994943436586	4
4	898	2029.205533400149	5
4	905	2044.569981006974	5
4	907	2045.615097865451	6
4	909	2047.618326690206	7
4	911	2047.675094750662	8
4	914	2049.278506622473	9
4	917	2052.021063180835	10
4	922	2061.933050463169	11
4	935	2081.964199355301	9
4	938	2083.997075851319	10
4	947	2107.844581482129	4
4	950	2111.538694057014	4
4	963	2143.701765387448	1
4	968	2162.923318210554	2
4	970	2164.078018129687	3
4	973	2164.966107423185	4
4	977	2177.139364210375	4
4	982	2185.971923398421	4
4	986	2191.392652329195	4
4	991	2200.589757462497	4
4	993	2201.991001515014	5
4	995	2210.81382373994	6
4	999	2215.667939719317	6
4	1004	2222.785535370716	6
4	1018	2249.093811858206	7
4	1020	2252.210084213817	8
4	1026	2270.85175116467	9
4	1030	2284.066064280049	10
4	1034	2289.114500274871	11
4	1036	2292.754600115712	12
4	1040	2297.876878442418	13
4	1043	2313.85941372327	14
4	1047	2319.616467540876	15
4	1060	2344.407621983521	11
4	1066	2354.253585186833	10
4	1068	2360.11653716303	11
4	1070	2363.244942743716	12
4	1072	2365.001793650137	13
4	1074	2367.084833730502	14
4	1082	2389.69848845301	15
4	1092	2415.469235353027	9
4	1101	2442.832758320266	8
4	1109	2470.443226876066	7
4	1113	2498.157739472885	8
5	126	358.869815898493	5
5	128	363.575345481466	6
5	129	363.622868770425	6
5	130	364.718653123118	5
5	134	371.895046822157	5
5	137	377.923427276587	6
5	138	378.708457472475	6
5	142	384.799375128966	6
5	147	387.624054524293	7
5	152	396.385154096642	7
5	158	403.710755260551	7
5	163	409.874961089375	8
5	165	411.086407588665	9
5	167	413.4487838292	10
5	170	422.660157450908	11
5	172	428.13697408673	11
5	174	433.773755810936	11
5	176	436.534729798009	12
5	177	440.179006800191	12
5	179	442.545318933231	12
5	186	451.500009386721	13
5	188	460.481688671399	14
5	190	472.330323151671	15
5	192	474.105969434939	15
5	194	476.290602231417	15
5	198	481.579066068344	16
5	200	484.114970847012	17
5	202	484.407203437057	18
5	206	486.835795187214	19
5	208	490.519326292506	20
5	210	492.402941934648	21
5	212	496.333474610729	22
5	214	496.562878347646	23
5	216	500.699196732436	24
5	219	510.616588073054	25
5	221	516.403168857546	26
5	226	523.983506691155	27
5	231	541.108139929585	28
5	233	543.897240341514	29
5	235	545.246671162031	30
5	239	552.687457586862	31
5	242	561.696423553853	31
5	246	566.809527874848	31
5	248	568.72388947873	32
5	250	569.299048767503	33
5	252	573.483575902518	34
5	257	589.599508870518	35
5	259	594.740595386922	35
5	260	596.107026963356	34
5	261	596.831069139455	33
5	262	606.63435892278	32
5	263	607.256670765906	31
5	264	608.386060869077	30
5	265	610.654545470724	29
5	266	613.119360919318	28
5	267	619.603037664552	27
5	271	634.467484986142	26
5	275	652.679419044099	26
5	279	663.850470122602	27
5	281	666.495816017287	28
5	283	674.178476895076	29
5	285	674.435931552021	30
5	289	685.87204359971	31
5	291	687.505858980912	32
5	298	719.175333931076	33
5	302	725.776027199568	34
5	309	747.679645429777	35
5	312	752.045525628458	36
5	314	755.63646562893	37
5	323	765.846569810133	38
5	325	774.729356691865	38
5	326	776.75402736301	37
5	334	797.929656108619	37
5	335	799.35608492278	37
5	336	800.341864806253	36
5	338	803.366813512402	36
5	339	805.731505174573	36
5	340	817.372788625973	35
5	341	820.527593919391	34
5	343	822.021854249861	34
5	345	824.092215752893	35
5	349	825.870291983351	36
5	351	830.205306622871	37
5	356	861.617276175422	37
5	357	862.725877327778	36
5	358	875.77844180741	35
5	360	876.496529601967	35
5	361	880.133886679158	35
5	362	882.409943898185	34
5	364	883.078995659064	34
5	366	884.114224992584	35
5	367	887.153866222237	35
5	368	891.680401019414	34
5	369	899.206067769508	33
5	371	900.309577423501	33
5	372	901.472297691505	33
5	373	901.676898672454	32
5	375	902.686028552706	32
5	376	905.156514984273	32
5	381	907.841458093308	32
5	383	908.22348376376	33
5	384	908.847552320257	33
5	385	909.739901510068	32
5	387	913.985896496045	32
5	388	914.426998799155	32
5	390	915.511219768531	32
5	394	923.498861341495	32
5	395	923.595473812402	31
5	396	924.15180507799	30
5	397	932.352279714099	29
5	399	936.150174684048	29
5	400	945.604661910525	29
5	401	948.199729226661	28
5	402	957.158687240168	27
5	403	957.176739236477	26
5	405	957.350522892456	26
5	411	959.537566375211	27
5	413	961.015021549476	28
5	419	973.806170987952	29
5	421	974.3337813231	30
5	424	985.733131396166	31
5	430	987.418486126761	32
5	432	989.71794444209	33
5	434	996.635361202879	34
5	436	997.50197745984	35
5	438	1000.614380733914	36
5	441	1002.93753941796	37
5	443	1003.139912697479	38
5	451	1023.453602653883	39
5	453	1027.844105341699	40
5	455	1031.619766295652	40
5	456	1031.833049643155	39
5	457	1032.850082366878	38
5	458	1034.903859588681	37
5	459	1036.927035115788	36
5	460	1037.45024059327	35
5	462	1040.4654648166	35
5	463	1052.051427862846	35
5	465	1054.46082730682	35
5	466	1055.884313853519	35
5	467	1063.130617240487	34
5	469	1065.476110816513	34
5	471	1068.776951415614	35
5	475	1073.889853321717	36
5	477	1086.223698181971	37
5	479	1087.028251520815	38
5	481	1091.300063910014	38
5	483	1100.311728835791	38
5	484	1100.945466607947	38
5	486	1102.937126402404	38
5	488	1103.296168715579	39
5	490	1105.543307395317	40
5	491	1111.405250310839	40
5	492	1115.778461685842	39
5	494	1119.230788976723	39
5	496	1120.999591853058	40
5	497	1122.751593747806	40
5	503	1132.560172564953	40
5	506	1153.749972874144	40
5	507	1157.804547493936	39
5	509	1161.96034340535	39
5	510	1165.435110720539	39
5	511	1171.520411981277	38
5	513	1177.195997390942	38
5	514	1177.287802072512	38
5	515	1177.485256844583	37
5	516	1178.527982818032	36
5	517	1179.737554893272	35
5	519	1180.081416474803	35
5	520	1185.430060998593	35
5	521	1185.87891153526	34
5	522	1186.611558132677	33
5	524	1187.617665537362	33
5	525	1189.326405365972	33
5	526	1193.330308698973	32
5	527	1204.988239611525	31
5	531	1210.932903490067	31
5	534	1215.469320776207	32
5	541	1230.212834470246	33
5	544	1231.567563007815	34
5	546	1233.156948895368	35
5	548	1237.937985927801	36
5	549	1249.102527296339	36
5	550	1254.476671099877	35
5	554	1259.516799556624	35
5	556	1270.540548658841	36
5	558	1271.320799151996	37
5	560	1274.253421360614	38
5	562	1277.328587700559	38
5	564	1285.152790073744	38
5	568	1289.255603578751	39
5	570	1296.11626092786	39
5	572	1299.256933405716	39
5	573	1300.541249565511	39
5	577	1308.819717733558	38
5	578	1310.869262371403	37
5	580	1312.449067215708	37
5	581	1314.093541328615	37
5	583	1316.279499870803	37
5	584	1321.293749234766	37
5	586	1327.794615258772	37
5	587	1328.075776715434	37
5	592	1333.785997853023	37
5	593	1335.759877711479	37
5	602	1348.383148723751	37
5	605	1363.842141545331	38
5	607	1367.315880420106	38
5	609	1367.812855524695	38
5	610	1372.28217558673	38
5	611	1373.34898229873	37
5	615	1382.864660087746	36
5	616	1384.912260050346	35
5	620	1388.144615086676	35
5	622	1401.113100134193	35
5	623	1406.981161697819	34
5	624	1412.120123803904	33
5	625	1414.831755136207	32
5	626	1418.447897680484	31
5	627	1419.469849896113	30
5	628	1420.614793845449	29
5	630	1420.952007139121	29
5	631	1421.940892573285	29
5	633	1433.410097304958	29
5	634	1434.708613421396	29
5	638	1440.575746508473	28
5	640	1441.499454043538	28
5	641	1444.088503869415	28
5	645	1448.430776163437	28
5	647	1457.472970627797	28
5	648	1461.560981968391	27
5	652	1467.099739280006	27
5	668	1501.266960067661	28
5	670	1507.19019397409	29
5	676	1511.263658676434	30
5	678	1520.234627412726	31
5	681	1523.381496563648	32
5	683	1530.680263322624	33
5	688	1538.93329132909	34
5	691	1555.691787578848	35
5	694	1576.220759210274	35
5	701	1589.85059690458	34
5	702	1599.022523396275	33
5	706	1605.705804667371	33
5	713	1619.016333639338	34
5	720	1641.110894273024	35
5	722	1646.610087463157	36
5	724	1647.9432327978	37
5	725	1648.909299870799	37
5	726	1650.198722479977	36
5	727	1652.97116293371	35
5	728	1657.35834851498	34
5	729	1658.859641220396	33
5	730	1660.953815328697	32
5	732	1662.830508195001	32
5	733	1663.577124164406	32
5	735	1667.699879731407	32
5	736	1668.496212618463	32
5	737	1671.56485854755	31
5	738	1689.080875521499	30
5	739	1690.050145446402	29
5	740	1698.541115014451	28
5	741	1701.572364581947	27
5	742	1701.942590290436	26
5	743	1705.827859893198	25
5	744	1711.641038686502	24
5	745	1713.305506256566	23
5	746	1715.416798886318	22
5	747	1717.669452709927	21
5	748	1720.853310377395	20
5	752	1727.060034585561	20
5	754	1732.575873732124	21
5	757	1740.131284095942	22
5	758	1740.462733365086	22
5	760	1742.088416458281	22
5	764	1751.458274580719	22
5	766	1754.713226187395	22
5	767	1754.778885732277	22
5	769	1754.825191949659	22
5	770	1756.316796973257	22
5	771	1758.271640632862	21
5	772	1760.11125321087	20
5	773	1760.850560396355	19
5	774	1769.479596323817	18
5	776	1773.115304760274	18
5	777	1777.937910734963	18
5	778	1781.099742272942	17
5	779	1783.948994350899	16
5	780	1785.867442344855	15
5	782	1787.885383079952	15
5	783	1788.394869076796	15
5	792	1819.757551536556	15
5	801	1849.952015362654	16
5	803	1850.417169380624	16
5	804	1852.393386422923	15
5	808	1855.65275550879	14
5	814	1859.97080242383	14
5	816	1862.906878126622	15
5	818	1862.950662861538	16
5	827	1894.983196698247	16
5	829	1895.294256602229	16
5	830	1896.2258009356	16
5	832	1898.255995949292	16
5	833	1900.245504907272	16
5	834	1903.589478095603	15
5	835	1909.052836548521	14
5	836	1909.843607728296	13
5	837	1910.916906940723	12
5	839	1913.119553731396	12
5	841	1916.947606572373	13
5	845	1929.095832682104	13
5	846	1929.365828532523	12
5	848	1934.945801855677	12
5	849	1936.838925900328	12
5	850	1937.488442641236	11
5	851	1941.434181062086	10
5	852	1941.861213496699	9
5	854	1944.800417032737	9
5	855	1951.17452327475	9
5	857	1951.543731605016	9
5	858	1955.140233155934	9
5	859	1958.48997761652	8
5	860	1960.290130830548	7
5	862	1962.190647572055	7
5	863	1962.481205959144	7
5	864	1964.801780602756	6
5	865	1965.537263487828	5
5	866	1966.682139659305	4
5	867	1971.476846069356	3
5	868	1984.258904318327	2
5	869	1988.261281408684	1
5	871	1989.943338272855	1
5	873	1995.884336036208	2
5	875	2000.46358090522	3
5	877	2003.250193048485	4
5	878	2003.827841133628	4
5	879	2006.441006747274	3
5	881	2010.907439471988	3
5	882	2012.612932129491	3
5	883	2014.824506365489	2
5	885	2017.266243712978	2
5	889	2025.651578188392	2
5	891	2025.955543780031	2
5	893	2026.250189254591	3
5	894	2028.52214988669	3
5	896	2028.994943436586	3
5	898	2029.205533400149	4
5	899	2031.135731627852	4
5	905	2044.569981006974	4
5	907	2045.615097865451	5
5	909	2047.618326690206	6
5	911	2047.675094750662	7
5	914	2049.278506622473	8
5	917	2052.021063180835	9
5	922	2061.933050463169	10
5	923	2062.484647111387	10
5	924	2062.784746850715	9
5	931	2076.66756042105	8
5	935	2081.964199355301	8
5	938	2083.997075851319	9
5	939	2085.234200414109	9
5	940	2086.745297821783	8
5	941	2091.001466526264	7
5	942	2091.836135479149	6
5	943	2100.209857821877	5
5	944	2101.898059227119	4
5	945	2106.901769584041	3
5	947	2107.844581482129	3
5	948	2109.06764056154	3
5	950	2111.538694057014	3
5	951	2114.040440283513	3
5	952	2119.895416114609	2
5	953	2121.798856259109	1
5	957	2136.861935996168	0
5	963	2143.701765387448	0
5	968	2162.923318210554	1
5	970	2164.078018129687	2
5	973	2164.966107423185	3
5	975	2172.132387789038	3
5	977	2177.139364210375	3
5	978	2177.745954829506	3
5	982	2185.971923398421	3
5	984	2187.30392557757	3
5	986	2191.392652329195	3
5	987	2193.575381329859	3
5	991	2200.589757462497	3
5	993	2201.991001515014	4
5	995	2210.81382373994	5
5	997	2215.474614334596	5
5	999	2215.667939719317	5
5	1000	2215.93530767955	5
5	1004	2222.785535370716	5
5	1018	2249.093811858206	6
5	1020	2252.210084213817	7
5	1026	2270.85175116467	8
5	1030	2284.066064280049	9
5	1034	2289.114500274871	10
5	1036	2292.754600115712	11
5	1040	2297.876878442418	12
5	1043	2313.85941372327	13
5	1047	2319.616467540876	14
5	1051	2326.774394205667	14
5	1052	2327.633904353309	13
5	1056	2343.273483253578	12
5	1057	2343.415453831745	11
5	1058	2343.892891504043	10
5	1060	2344.407621983521	10
5	1061	2346.453662933489	10
5	1062	2346.47425770471	9
5	1066	2354.253585186833	9
5	1068	2360.11653716303	10
5	1070	2363.244942743716	11
5	1072	2365.001793650137	12
5	1074	2367.084833730502	13
5	1082	2389.69848845301	14
5	1084	2396.103847147315	14
5	1085	2398.590181325047	13
5	1086	2398.998668792633	12
5	1087	2407.115468108299	11
5	1088	2410.252193953441	10
5	1089	2412.103412008648	9
5	1090	2415.457010854262	8
5	1092	2415.469235353027	8
5	1093	2415.582656218675	8
5	1097	2428.933182892566	7
5	1101	2442.832758320266	7
5	1103	2456.370871900974	7
5	1104	2457.259465880833	6
5	1109	2470.443226876066	6
5	1113	2498.157739472885	7
6	129	363.622868770425	29
6	130	364.718653123118	30
6	138	378.708457472475	31
6	152	396.385154096642	32
6	172	428.13697408673	33
6	177	440.179006800191	34
6	192	474.105969434939	35
6	242	561.696423553853	36
6	259	594.740595386922	37
6	260	596.107026963356	38
6	261	596.831069139455	39
6	262	606.63435892278	40
6	263	607.256670765906	41
6	264	608.386060869077	42
6	265	610.654545470724	43
6	266	613.119360919318	44
6	267	619.603037664552	45
6	271	634.467484986142	46
6	325	774.729356691865	47
6	326	776.75402736301	48
6	335	799.35608492278	49
6	336	800.341864806253	50
6	339	805.731505174573	51
6	340	817.372788625973	52
6	341	820.527593919391	53
6	356	861.617276175422	54
6	357	862.725877327778	55
6	358	875.77844180741	56
6	361	880.133886679158	57
6	362	882.409943898185	58
6	367	887.153866222237	59
6	368	891.680401019414	60
6	369	899.206067769508	61
6	372	901.472297691505	62
6	373	901.676898672454	63
6	376	905.156514984273	64
6	384	908.847552320257	65
6	385	909.739901510068	66
6	388	914.426998799155	67
6	394	923.498861341495	68
6	395	923.595473812402	69
6	396	924.15180507799	70
6	397	932.352279714099	71
6	400	945.604661910525	72
6	401	948.199729226661	73
6	402	957.158687240168	74
6	403	957.176739236477	75
6	455	1031.619766295652	76
6	456	1031.833049643155	77
6	457	1032.850082366878	78
6	458	1034.903859588681	79
6	459	1036.927035115788	80
6	460	1037.45024059327	81
6	463	1052.051427862846	82
6	466	1055.884313853519	83
6	467	1063.130617240487	84
6	481	1091.300063910014	85
6	484	1100.945466607947	86
6	491	1111.405250310839	87
6	492	1115.778461685842	88
6	497	1122.751593747806	89
6	506	1153.749972874144	90
6	507	1157.804547493936	91
6	510	1165.435110720539	92
6	511	1171.520411981277	93
6	514	1177.287802072512	94
6	515	1177.485256844583	95
6	516	1178.527982818032	96
6	517	1179.737554893272	97
6	520	1185.430060998593	98
6	521	1185.87891153526	99
6	522	1186.611558132677	100
6	525	1189.326405365972	101
6	526	1193.330308698973	102
6	527	1204.988239611525	103
6	549	1249.102527296339	104
6	550	1254.476671099877	105
6	562	1277.328587700559	106
6	570	1296.11626092786	107
6	573	1300.541249565511	108
6	577	1308.819717733558	109
6	578	1310.869262371403	110
6	581	1314.093541328615	111
6	584	1321.293749234766	112
6	587	1328.075776715434	113
6	593	1335.759877711479	114
6	607	1367.315880420106	115
6	610	1372.28217558673	116
6	611	1373.34898229873	117
6	615	1382.864660087746	118
6	616	1384.912260050346	119
6	622	1401.113100134193	120
6	623	1406.981161697819	121
6	624	1412.120123803904	122
6	625	1414.831755136207	123
6	626	1418.447897680484	124
6	627	1419.469849896113	125
6	628	1420.614793845449	126
6	631	1421.940892573285	127
6	634	1434.708613421396	128
6	638	1440.575746508473	129
6	641	1444.088503869415	130
6	647	1457.472970627797	131
6	648	1461.560981968391	132
6	694	1576.220759210274	133
6	701	1589.85059690458	134
6	702	1599.022523396275	135
6	725	1648.909299870799	136
6	726	1650.198722479977	137
6	727	1652.97116293371	138
6	728	1657.35834851498	139
6	729	1658.859641220396	140
6	730	1660.953815328697	141
6	733	1663.577124164406	142
6	736	1668.496212618463	143
6	737	1671.56485854755	144
6	738	1689.080875521499	145
6	739	1690.050145446402	146
6	740	1698.541115014451	147
6	741	1701.572364581947	148
6	742	1701.942590290436	149
6	743	1705.827859893198	150
6	744	1711.641038686502	151
6	745	1713.305506256566	152
6	746	1715.416798886318	153
6	747	1717.669452709927	154
6	748	1720.853310377395	155
6	758	1740.462733365086	156
6	764	1751.458274580719	157
6	767	1754.778885732277	158
6	770	1756.316796973257	159
6	771	1758.271640632862	160
6	772	1760.11125321087	161
6	773	1760.850560396355	162
6	774	1769.479596323817	163
6	777	1777.937910734963	164
6	778	1781.099742272942	165
6	779	1783.948994350899	166
6	780	1785.867442344855	167
6	783	1788.394869076796	168
6	803	1850.417169380624	169
6	804	1852.393386422923	170
6	808	1855.65275550879	171
6	827	1894.983196698247	172
6	830	1896.2258009356	173
6	833	1900.245504907272	174
6	834	1903.589478095603	175
6	835	1909.052836548521	176
6	836	1909.843607728296	177
6	837	1910.916906940723	178
6	845	1929.095832682104	179
6	846	1929.365828532523	180
6	849	1936.838925900328	181
6	850	1937.488442641236	182
6	851	1941.434181062086	183
6	852	1941.861213496699	184
6	855	1951.17452327475	185
6	858	1955.140233155934	186
6	859	1958.48997761652	187
6	860	1960.290130830548	188
6	863	1962.481205959144	189
6	864	1964.801780602756	190
6	865	1965.537263487828	191
6	866	1966.682139659305	192
6	867	1971.476846069356	193
6	868	1984.258904318327	194
6	869	1988.261281408684	195
6	878	2003.827841133628	196
6	879	2006.441006747274	197
6	882	2012.612932129491	198
6	883	2014.824506365489	199
6	889	2025.651578188392	200
6	894	2028.52214988669	201
6	899	2031.135731627852	202
6	923	2062.484647111387	203
6	924	2062.784746850715	204
6	931	2076.66756042105	205
6	939	2085.234200414109	206
6	940	2086.745297821783	207
6	941	2091.001466526264	208
6	942	2091.836135479149	209
6	943	2100.209857821877	210
6	944	2101.898059227119	211
6	945	2106.901769584041	212
6	948	2109.06764056154	213
6	951	2114.040440283513	214
6	952	2119.895416114609	215
6	953	2121.798856259109	216
6	957	2136.861935996168	217
6	975	2172.132387789038	218
6	978	2177.745954829506	219
6	984	2187.30392557757	220
6	987	2193.575381329859	221
6	997	2215.474614334596	222
6	1000	2215.93530767955	223
6	1051	2326.774394205667	224
6	1052	2327.633904353309	225
6	1056	2343.273483253578	226
6	1057	2343.415453831745	227
6	1058	2343.892891504043	228
6	1061	2346.453662933489	229
6	1062	2346.47425770471	230
6	1084	2396.103847147315	231
6	1085	2398.590181325047	232
6	1086	2398.998668792633	233
6	1087	2407.115468108299	234
6	1088	2410.252193953441	235
6	1089	2412.103412008648	236
6	1090	2415.457010854262	237
6	1093	2415.582656218675	238
6	1097	2428.933182892566	239
6	1103	2456.370871900974	240
6	1104	2457.259465880833	241
7	129	363.622868770425	33.632879618109
7	130	364.718653123118	34.704976187966
7	138	378.708457472475	30.427839113567
7	152	396.385154096642	37.515338198149
7	172	428.13697408673	61.23023348631
7	177	440.179006800191	68.283959978034
7	192	474.105969434939	92.321136421762
7	242	561.696423553853	162.14683475443
7	259	594.740595386922	184.86563429755
7	260	596.107026963356	185.02061937469
7	261	596.831069139455	183.38228531025
7	262	606.63435892278	183.97420147187
7	263	607.256670765906	173.48291495497
7	264	608.386060869077	171.85133107107
7	265	610.654545470724	168.10922653749
7	266	613.119360919318	169.30212836166
7	267	619.603037664552	168.10302827783
7	271	634.467484986142	162.13716183447
7	325	774.729356691865	293.15029062352
7	326	776.75402736301	292.639056516
7	335	799.35608492278	308.83675863027
7	336	800.341864806253	307.9389228716
7	339	805.731505174573	309.39803056384
7	340	817.372788625973	320.80991027833
7	341	820.527593919391	319.82839718695
7	356	861.617276175422	345.21410731788
7	357	862.725877327778	338.74237063662
7	358	875.77844180741	346.73577550166
7	361	880.133886679158	339.02574674957
7	362	882.409943898185	338.51270355667
7	367	887.153866222237	341.90719506021
7	368	891.680401019414	338.99294343255
7	369	899.206067769508	336.27877531964
7	372	901.472297691505	334.66276981666
7	373	901.676898672454	332.95300919372
7	376	905.156514984273	335.85746621677
7	384	908.847552320257	319.24804344974
7	385	909.739901510068	282.89601697317
7	388	914.426998799155	267.0732034958
7	394	923.498861341495	259.64839121889
7	395	923.595473812402	257.09965779511
7	396	924.15180507799	249.97332818291
7	397	932.352279714099	257.91634816208
7	400	945.604661910525	259.73261831081
7	401	948.199729226661	260.69387024575
7	402	957.158687240168	237.98335330909
7	403	957.176739236477	231.40071203691
7	455	1031.619766295652	279.57424066719
7	456	1031.833049643155	276.19658401422
7	457	1032.850082366878	270.3233270756
7	458	1034.903859588681	269.05728977855
7	459	1036.927035115788	257.55632128963
7	460	1037.45024059327	246.37478509507
7	463	1052.051427862846	254.12177175423
7	466	1055.884313853519	252.51750034112
7	467	1063.130617240487	241.10876299063
7	481	1091.300063910014	265.57262807366
7	484	1100.945466607947	275.0751746246
7	491	1111.405250310839	281.19994368797
7	492	1115.778461685842	239.28193208388
7	497	1122.751593747806	239.67259808874
7	506	1153.749972874144	253.44039545064
7	507	1157.804547493936	255.11851894123
7	510	1165.435110720539	259.20493008923
7	511	1171.520411981277	263.67895388797
7	514	1177.287802072512	269.06431830875
7	515	1177.485256844583	263.49936034854
7	516	1178.527982818032	263.0167630495
7	517	1179.737554893272	261.40810125843
7	520	1185.430060998593	249.27988631454
7	521	1185.87891153526	228.5283886428
7	522	1186.611558132677	229.22321395851
7	525	1189.326405365972	229.78883899076
7	526	1193.330308698973	232.3152871495
7	527	1204.988239611525	231.18206862357
7	549	1249.102527296339	259.38458285425
7	550	1254.476671099877	257.841309897
7	562	1277.328587700559	276.71420696665
7	570	1296.11626092786	292.97634823038
7	573	1300.541249565511	277.08764691163
7	577	1308.819717733558	268.35425291696
7	578	1310.869262371403	256.40843506458
7	581	1314.093541328615	248.6174305121
7	584	1321.293749234766	252.51679781915
7	587	1328.075776715434	257.92059698754
7	593	1335.759877711479	249.53617952951
7	607	1367.315880420106	267.00415158431
7	610	1372.28217558673	269.34504918433
7	611	1373.34898229873	270.05281358315
7	615	1382.864660087746	263.63387111102
7	616	1384.912260050346	263.91266819729
7	622	1401.113100134193	268.55292756924
7	623	1406.981161697819	245.02081829247
7	624	1412.120123803904	234.92412641296
7	625	1414.831755136207	234.7503386614
7	626	1418.447897680484	230.83023214312
7	627	1419.469849896113	213.82740326188
7	628	1420.614793845449	209.68189035538
7	631	1421.940892573285	206.47157179708
7	634	1434.708613421396	218.09168153657
7	638	1440.575746508473	210.36291203823
7	641	1444.088503869415	212.5209408616
7	647	1457.472970627797	219.5349847
7	648	1461.560981968391	206.82678503669
7	694	1576.220759210274	305.68021055143
7	701	1589.85059690458	315.59717554397
7	702	1599.022523396275	313.86973332253
7	725	1648.909299870799	349.65236646508
7	726	1650.198722479977	347.35470703501
7	727	1652.97116293371	340.522095718
7	728	1657.35834851498	341.07884864418
7	729	1658.859641220396	331.06502596162
7	730	1660.953815328697	332.04471574845
7	733	1663.577124164406	329.79112631138
7	736	1668.496212618463	331.10788253533
7	737	1671.56485854755	323.1817098238
7	738	1689.080875521499	325.23873397617
7	739	1690.050145446402	322.23728992171
7	740	1698.541115014451	323.7419909628
7	741	1701.572364581947	314.22161628464
7	742	1701.942590290436	313.79797520376
7	743	1705.827859893198	284.87585275408
7	744	1711.641038686502	278.23094138154
7	745	1713.305506256566	274.63304112994
7	746	1715.416798886318	273.91734484278
7	747	1717.669452709927	271.28304477522
7	748	1720.853310377395	272.42253421396
7	758	1740.462733365086	273.36299408508
7	764	1751.458274580719	244.26808060663
7	767	1754.778885732277	243.51522705584
7	770	1756.316796973257	236.08216956053
7	771	1758.271640632862	234.89014406921
7	772	1760.11125321087	229.43098988825
7	773	1760.850560396355	221.91726906726
7	774	1769.479596323817	213.78780874497
7	777	1777.937910734963	193.34136391638
7	778	1781.099742272942	176.24477625995
7	779	1783.948994350899	178.24318968353
7	780	1785.867442344855	176.93882584716
7	783	1788.394869076796	169.37853543746
7	803	1850.417169380624	187.58666118562
7	804	1852.393386422923	184.69350669152
7	808	1855.65275550879	128.59272092323
7	827	1894.983196698247	154.8519126023
7	830	1896.2258009356	154.13738447732
7	833	1900.245504907272	156.20199523473
7	834	1903.589478095603	148.87625190821
7	835	1909.052836548521	154.22764459886
7	836	1909.843607728296	136.72830296802
7	837	1910.916906940723	123.03152386077
7	845	1929.095832682104	109.33828114555
7	846	1929.365828532523	99.354111615223
7	849	1936.838925900328	88.095793240702
7	850	1937.488442641236	87.536427278582
7	851	1941.434181062086	87.776139111427
7	852	1941.861213496699	86.077173634757
7	855	1951.17452327475	91.20372085092
7	858	1955.140233155934	92.233355029312
7	859	1958.48997761652	95.539314754982
7	860	1960.290130830548	64.995874228319
7	863	1962.481205959144	64.225210009852
7	864	1964.801780602756	51.68222687136
7	865	1965.537263487828	48.589656915455
7	866	1966.682139659305	41.044498778345
7	867	1971.476846069356	36.531044213679
7	868	1984.258904318327	39.45848728559
7	869	1988.261281408684	36.717549803668
7	878	2003.827841133628	41.637193561573
7	879	2006.441006747274	16.497668474419
7	882	2012.612932129491	16.728596093283
7	883	2014.824506365489	14.360925460269
7	889	2025.651578188392	14.744138716404
7	894	2028.52214988669	11.255906173712
7	899	2031.135731627852	8.935597180916
7	923	2062.484647111387	33.489703674801
7	924	2062.784746850715	33.579213450566
7	931	2076.66756042105	31.052462555599
7	939	2085.234200414109	37.559105663447
7	940	2086.745297821783	37.46679119931
7	941	2091.001466526264	38.980403345429
7	942	2091.836135479149	37.957219669857
7	943	2100.209857821877	38.276807358708
7	944	2101.898059227119	37.7445118518
7	945	2106.901769584041	38.151548592114
7	948	2109.06764056154	27.28738492548
7	951	2114.040440283513	32.076240928212
7	952	2119.895416114609	35.89834026329
7	953	2121.798856259109	13.95427477698
7	957	2136.861935996168	9.946088274023
7	975	2172.132387789038	28.43062240159
7	978	2177.745954829506	14.822636618952
7	984	2187.30392557757	22.337818154385
7	987	2193.575381329859	16.436017119484
7	997	2215.474614334596	29.502690936175
7	1000	2215.93530767955	24.542655350355
7	1051	2326.774394205667	126.18463674317
7	1052	2327.633904353309	125.6429028383
7	1056	2343.273483253578	127.60554353426
7	1057	2343.415453831745	126.44401313691
7	1058	2343.892891504043	121.10735613333
7	1061	2346.453662933489	97.359851075283
7	1062	2346.47425770471	94.264173490893
7	1084	2396.103847147315	112.03778286727
7	1085	2398.590181325047	109.47568105018
7	1086	2398.998668792633	106.24406867692
7	1087	2407.115468108299	109.23858966588
7	1088	2410.252193953441	96.392780230171
7	1089	2412.103412008648	92.486944467772
7	1090	2415.457010854262	85.441695391587
7	1093	2415.582656218675	71.175034235154
7	1097	2428.933182892566	74.679597705733
7	1103	2456.370871900974	93.125929157258
7	1104	2457.259465880833	92.257672230696
8	132	366.90674060042	1
8	140	381.784833013177	1
8	144	386.250875507134	2
8	149	389.749122569849	2
8	154	399.549588799422	1
8	156	402.504371015353	2
8	161	408.499009690112	2
8	181	443.817232557662	1
8	183	445.367973862082	2
8	196	478.003471691353	1
8	204	484.600153220399	2
8	223	517.502141464979	2
8	229	529.042666305749	1
8	237	549.723407939261	2
8	244	562.927292449865	1
8	254	586.270515660759	2
8	269	626.843884536897	1
8	273	647.353795303353	1
8	277	662.438482297379	2
8	287	680.919630399863	3
8	294	697.442376960556	3
8	300	725.763040227324	2
8	304	738.500469943368	3
8	306	739.177665474985	4
8	318	762.526755291277	1
8	320	765.313687185756	2
8	328	779.370713826155	1
8	331	791.075455498199	1
8	347	825.727435836351	1
8	353	841.668238793278	2
8	378	906.230180631313	1
8	392	918.329453634844	1
8	407	957.388344174164	1
8	409	957.723820241117	2
8	415	965.1212364791	3
8	417	970.625671301786	4
8	426	986.583432109771	4
8	428	987.393290059605	5
8	445	1008.65887140681	5
8	473	1070.155179727889	1
8	499	1130.416300279589	1
8	501	1132.048297238397	2
8	529	1205.642446634233	1
8	536	1216.616931884824	1
8	539	1228.520457625003	1
8	552	1254.734196931696	1
8	566	1286.850380159512	1
8	575	1302.844015444965	1
8	589	1328.909099580252	1
8	595	1337.388330083135	1
8	597	1339.233828183082	2
8	600	1343.29505004117	2
8	613	1374.799124051652	1
8	618	1387.35074829731	1
8	636	1438.672465126625	1
8	643	1446.386407934709	1
8	650	1465.471776737086	1
8	654	1472.526123282645	2
8	656	1477.260476761024	3
8	658	1478.758750500482	4
8	660	1484.290723402252	5
8	662	1490.187265864041	6
8	666	1500.847975289427	5
8	673	1508.857475936079	5
8	686	1534.984185702364	3
8	696	1584.596546818588	1
8	698	1584.900654196861	2
8	704	1604.854966012996	1
8	709	1608.92861649769	1
8	711	1610.735235706327	2
8	715	1622.440234149539	3
8	750	1725.797566812866	1
8	762	1744.043509672546	1
8	785	1790.574625413366	1
8	787	1793.295441535686	2
8	789	1796.601928198126	3
8	796	1830.0117169173	1
8	799	1848.743132659626	1
8	806	1853.658041950659	1
8	810	1855.784039861942	1
8	812	1857.679617678275	2
8	821	1882.457710465602	2
8	823	1885.04093721874	3
8	843	1925.63764088096	1
8	887	2022.200134446936	1
8	901	2032.794886553949	1
8	903	2040.625890296416	2
8	919	2053.878915809292	1
8	926	2064.153547375319	1
8	929	2068.750220991927	1
8	933	2081.78025563606	1
8	955	2126.915847722145	1
8	959	2137.731399979001	1
8	961	2139.643418030477	2
8	965	2146.629260054248	3
8	980	2179.771093233548	1
8	989	2196.627595088498	1
8	1002	2216.971440694834	1
8	1006	2226.000127713074	2
8	1008	2228.447023846671	3
8	1010	2234.20252635727	4
8	1013	2237.414483346714	4
8	1016	2249.077865559208	4
8	1024	2259.534430219018	3
8	1028	2277.923741025562	4
8	1032	2288.666116345938	5
8	1038	2296.659481833168	6
8	1054	2330.015315462675	1
8	1064	2350.915731692075	1
8	1076	2367.773846882979	2
8	1078	2378.574598955318	3
8	1095	2425.11642804679	1
8	1099	2431.98697731575	1
8	1106	2458.246234532336	1
8	1111	2481.626538504285	1
9	132	366.90674060042	5
9	140	381.784833013177	6
9	154	399.549588799422	7
9	181	443.817232557662	8
9	196	478.003471691353	9
9	229	529.042666305749	10
9	244	562.927292449865	11
9	269	626.843884536897	12
9	273	647.353795303353	13
9	318	762.526755291277	14
9	328	779.370713826155	15
9	331	791.075455498199	16
9	347	825.727435836351	17
9	378	906.230180631313	18
9	392	918.329453634844	19
9	407	957.388344174164	20
9	473	1070.155179727889	21
9	499	1130.416300279589	22
9	529	1205.642446634233	23
9	536	1216.616931884824	24
9	539	1228.520457625003	25
9	552	1254.734196931696	26
9	566	1286.850380159512	27
9	575	1302.844015444965	28
9	589	1328.909099580252	29
9	595	1337.388330083135	30
9	613	1374.799124051652	31
9	618	1387.35074829731	32
9	636	1438.672465126625	33
9	643	1446.386407934709	34
9	650	1465.471776737086	35
9	696	1584.596546818588	36
9	704	1604.854966012996	37
9	709	1608.92861649769	38
9	750	1725.797566812866	39
9	762	1744.043509672546	40
9	785	1790.574625413366	41
9	796	1830.0117169173	42
9	799	1848.743132659626	43
9	806	1853.658041950659	44
9	810	1855.784039861942	45
9	843	1925.63764088096	46
9	887	2022.200134446936	47
9	901	2032.794886553949	48
9	919	2053.878915809292	49
9	926	2064.153547375319	50
9	929	2068.750220991927	51
9	933	2081.78025563606	52
9	955	2126.915847722145	53
9	980	2179.771093233548	54
9	989	2196.627595088498	55
9	1002	2216.971440694834	56
9	1054	2330.015315462675	57
9	1064	2350.915731692075	58
9	1095	2425.11642804679	59
9	1099	2431.98697731575	60
9	1106	2458.246234532336	61
9	1111	2481.626538504285	62
10	132	366.90674060042	0
10	140	381.784833013177	0
10	145	387.062194711891	0.811319204757
10	150	393.296697293127	3.547574723278
10	154	399.549588799422	0
10	159	405.925687027885	3.421316012532
10	168	417.699878070027	9.200868379915
10	181	443.817232557662	0
10	184	446.659664706914	1.291690844832
10	196	478.003471691353	0
10	217	504.412689190359	19.81253596996
10	224	521.313905382625	3.811763917646
10	229	529.042666305749	0
10	240	557.945900060368	8.222492121107
10	244	562.927292449865	0
10	255	588.132855616111	1.862339955352
10	269	626.843884536897	0
10	273	647.353795303353	0
10	292	694.093361905102	31.654879607723
10	295	711.569560991069	30.649930591206
10	296	715.657524848666	18.21514788811
10	307	744.893524460222	19.130484232898
10	310	747.738881974986	9.238412031618
10	315	757.628734251179	18.451068776194
10	318	762.526755291277	0
10	321	765.433885836103	0.120198650347
10	328	779.370713826155	0
10	331	791.075455498199	0
10	347	825.727435836351	0
10	354	845.417449577468	3.74921078419
10	378	906.230180631313	0
10	392	918.329453634844	0
10	407	957.388344174164	0
10	422	976.684675566509	18.960855325392
10	439	1001.681984458602	36.560747979502
10	446	1014.419287702364	43.793616400578
10	447	1015.549055971015	28.965623861244
10	448	1019.058447962468	31.665157902863
10	449	1021.846362064185	13.187490657375
10	473	1070.155179727889	0
10	499	1130.416300279589	0
10	504	1149.012968726684	16.964671488287
10	529	1205.642446634233	0
10	536	1216.616931884824	0
10	539	1228.520457625003	0
10	552	1254.734196931696	0
10	566	1286.850380159512	0
10	575	1302.844015444965	0
10	589	1328.909099580252	0
10	595	1337.388330083135	0
10	598	1341.185943287054	1.952115103972
10	603	1352.286124206511	8.991074165341
10	613	1374.799124051652	0
10	618	1387.35074829731	0
10	636	1438.672465126625	0
10	643	1446.386407934709	0
10	650	1465.471776737086	0
10	663	1492.427496821744	19.901373539099
10	664	1499.71092104386	22.450444282836
10	671	1507.540617189581	28.781866689099
10	674	1509.741705596105	25.450982193853
10	679	1520.313258733631	30.12599286959
10	684	1533.990286317406	33.142311027979
10	689	1545.1178302727	36.260354336621
10	692	1556.4709512314	21.486765529036
10	696	1584.596546818588	0
10	699	1588.768428583914	3.867774387053
10	704	1604.854966012996	0
10	709	1608.92861649769	0
10	716	1627.75715742936	17.021921723033
10	717	1630.211013650322	7.770779500783
10	750	1725.797566812866	0
10	762	1744.043509672546	0
10	785	1790.574625413366	0
10	790	1807.991580855538	14.696139319852
10	793	1820.55350854936	23.951580351234
10	796	1830.0117169173	0
10	799	1848.743132659626	0
10	806	1853.658041950659	0
10	810	1855.784039861942	0
10	819	1879.11477392636	21.435156248085
10	824	1888.591612783584	6.133902317982
10	825	1891.910257984611	6.869320765871
10	843	1925.63764088096	0
10	887	2022.200134446936	0
10	901	2032.794886553949	0
10	912	2048.155475772274	7.529585475858
10	919	2053.878915809292	0
10	926	2064.153547375319	0
10	929	2068.750220991927	0
10	933	2081.78025563606	0
10	955	2126.915847722145	0
10	959	2137.731399979001	0
10	966	2150.567379702822	10.923961672345
10	971	2164.249080689869	17.619820635621
10	980	2179.771093233548	0
10	989	2196.627595088498	0
10	1002	2216.971440694834	0
10	1011	2235.625089521557	9.624961808483
10	1014	2248.458744585388	20.011720738717
10	1021	2255.092561974761	20.890035617491
10	1022	2259.348941681602	21.934458334888
10	1041	2312.335403679886	63.257538120678
10	1044	2314.810113032008	55.27568281299
10	1045	2319.021081373039	41.097340347477
10	1048	2321.696341868232	33.030225522294
10	1049	2322.07569821063	25.416216377462
10	1054	2330.015315462675	0
10	1064	2350.915731692075	0
10	1079	2379.029603924522	11.255757041543
10	1080	2384.672308078147	6.097709122829
10	1095	2425.11642804679	0
10	1099	2431.98697731575	0
10	1106	2458.246234532336	0
10	1111	2481.626538504285	0
11	1114	2500	0.0964
12	1114	2500	0.0496

