version 2
run experiments_hard_game_mode1-234-20230311-19:40:12-5813
attr configname experiments_hard_game_mode1
attr datetime 20230311-19:40:12
attr experiment experiments_hard_game_mode1
attr inifile omnetpp.ini
attr iterationvars "$0=7.5, $1=6, $2=100"
attr iterationvarsf 7.5,6,100-
attr measurement "$0=7.5, $1=6, $2=100"
attr network Network
attr processid 5813
attr repetition 24
attr replication #24
attr resultdir results
attr runnumber 234
attr seedset 24
param *.boss.arrival_mean 20
param *.boss.service_mean 7.5
param *.minion.arrival_mean 10
param *.minion.service_mean 6
param *.player.recover_rate_x 100
param **.minion.arrival_distribution 0
param **.minion.service_distribution 0
param **.boss.arrival_distribution 0
param **.boss.service_distribution 0

vector 0 Network.player minion_defeated_stat:vector ETV
attr source signal_minion_defeated
vector 1 Network.player minion_jobs_queue_number_stat:vector ETV
attr source signal_minion_jobs_queue_number
vector 2 Network.player minion_response_time_stat:vector ETV
attr source signal_minion_response_time
vector 3 Network.player minion_waiting_time_stat:vector ETV
attr source signal_minion_waiting_time
vector 4 Network.player minion_jobs_number_stat:vector ETV
attr source signal_minion_jobs_number
vector 5 Network.player boss_jobs_number_stat:vector ETV
attr source signal_boss_jobs_number
vector 6 Network.player boss_jobs_queue_number_stat:vector ETV
attr source signal_boss_jobs_queue_number
vector 7 Network.player minion_recovered_stat:vector ETV
attr source signal_minion_recovered
vector 8 Network.player boss_waiting_time_stat:vector ETV
attr source signal_boss_waiting_time
vector 9 Network.player boss_defeated_stat:vector ETV
attr source signal_boss_defeated
vector 10 Network.player boss_response_time_stat:vector ETV
attr source signal_boss_response_time
vector 11 Network.player minion_throughput:vector ETV
attr source signal_minion_throughput
vector 12 Network.player boss_throughput:vector ETV
attr source signal_boss_throughput
0	166	351.26489126287	27
0	167	352.139499292612	28
0	177	380.221209222702	29
0	178	381.521294040891	30
0	179	381.533837406608	31
0	180	382.58573850454	32
0	184	393.664509547355	33
0	190	409.376212102275	34
0	191	410.963822364025	35
0	192	413.115817678288	36
0	193	414.251149736998	37
0	194	418.079182340672	38
0	195	418.960514048959	39
0	196	419.152570109974	40
0	197	419.436539194715	41
0	198	427.531739035474	42
0	203	449.785873906437	43
0	204	451.780041588696	44
0	210	461.713581037227	45
0	213	466.310147663814	46
0	222	487.430781817632	47
0	228	496.38825101409	48
0	235	519.284327022713	49
0	248	561.145040722567	50
0	249	564.275248055245	51
0	250	564.419692185351	52
0	251	567.541944593548	53
0	254	571.392162549646	54
0	255	572.544472121358	55
0	258	582.914645608549	56
0	261	585.057326719958	57
0	264	588.624116993125	58
0	270	632.568083114477	59
0	273	640.767903337925	60
0	283	655.344204080612	61
0	286	657.308875957729	62
0	305	694.675144488703	63
0	306	696.548269234616	64
0	316	722.570737270593	65
0	319	723.104067063112	66
0	322	726.576522555653	67
0	334	757.770284961712	68
0	335	757.811926374972	69
0	336	760.69621322641	70
0	341	767.911506684769	71
0	344	784.456019327014	72
0	347	797.136760674593	73
0	350	799.842523342146	74
0	353	803.179753916454	75
0	357	824.077422112225	76
0	358	825.245156506875	77
0	359	826.059431380195	78
0	360	826.967602890667	79
0	361	830.199224376449	80
0	364	834.019444745856	81
0	369	846.089416467715	82
0	375	857.137315770933	83
0	388	874.875020353816	84
0	389	881.426501172695	85
0	393	888.824903767603	86
0	394	892.950092498188	87
0	397	906.954444506412	88
0	398	917.294235250141	89
0	401	918.394742905859	90
0	402	919.005640253291	91
0	413	944.455151503758	92
0	414	946.290190440223	93
0	415	947.541869131584	94
0	418	951.199969100831	95
0	428	975.786584430888	96
0	429	985.572891363182	97
0	434	997.280370683133	98
0	437	1010.106422358849	99
0	438	1013.637210550842	100
0	439	1015.382854748814	101
0	440	1019.037857877666	102
0	447	1030.670162190639	103
0	448	1033.329464447208	104
0	457	1047.490056524128	105
0	460	1060.172025208686	106
0	464	1074.417932593013	107
0	473	1093.793281625996	108
0	476	1108.394997434958	109
0	477	1125.592663614084	110
0	507	1221.690684880136	111
0	510	1239.559080154229	112
0	513	1241.180938602367	113
0	516	1245.649776578725	114
0	524	1260.005177380118	115
0	528	1262.146085869148	116
0	529	1264.015748561863	117
0	530	1267.696751248426	118
0	533	1270.039237848662	119
0	534	1270.853135775834	120
0	535	1296.064778375305	121
0	539	1308.11746727072	122
0	540	1311.394443224151	123
0	543	1323.151634751227	124
0	549	1334.279731961583	125
0	552	1346.662873370649	126
0	558	1348.95807613733	127
0	566	1360.36818075398	128
0	567	1363.007436581681	129
0	570	1372.669936059151	130
0	579	1413.607183929481	131
0	588	1431.128002620023	132
0	591	1434.880980933291	133
0	603	1441.931809445978	134
0	606	1456.026969105376	135
0	607	1461.978982238072	136
0	608	1466.016071488879	137
0	614	1472.995595231176	138
0	617	1482.969926507371	139
0	620	1484.548276091608	140
0	621	1485.186119985374	141
0	627	1492.835597296495	142
0	630	1508.558076246744	143
0	633	1516.683218633944	144
0	636	1520.854031452729	145
0	639	1523.950264943668	146
0	653	1547.746449477791	147
0	654	1557.05917864822	148
0	659	1564.639097971817	149
0	660	1565.885465168522	150
0	663	1569.023770825537	151
0	668	1580.419621101432	152
0	673	1582.89287164781	153
0	674	1586.026990030169	154
0	675	1590.659289674903	155
0	685	1616.68668180361	156
0	686	1618.137524685162	157
0	687	1621.111049474172	158
0	696	1648.097896689932	159
0	699	1659.340333370002	160
0	700	1664.866251761509	161
0	701	1667.084597159398	162
0	704	1681.186520842452	163
0	717	1704.880134872352	164
0	718	1705.046352219414	165
0	721	1705.40945975436	166
0	722	1706.648760511899	167
0	729	1715.055952705244	168
0	732	1723.462516927905	169
0	733	1724.182596027888	170
0	734	1725.071283650004	171
0	750	1760.743219385746	172
0	769	1794.853231529114	173
0	770	1798.676274675419	174
0	781	1828.887216268055	175
0	782	1832.386345497094	176
0	787	1842.463117255207	177
0	788	1844.149400353169	178
0	789	1857.78449193866	179
0	790	1859.437082400093	180
0	791	1862.36740031977	181
0	792	1862.842106950217	182
0	793	1865.172284894631	183
0	794	1865.226101331717	184
0	797	1872.595121602176	185
0	798	1885.846069177888	186
0	801	1895.065661552978	187
0	810	1918.026624194165	188
0	816	1934.635244645332	189
0	822	1947.836497440777	190
0	868	2045.467593790311	191
0	871	2051.052739959564	192
0	872	2052.349353072587	193
0	873	2053.545592534842	194
0	876	2068.188420631791	195
0	883	2084.632749362277	196
0	884	2091.544185125807	197
0	885	2093.772938459914	198
0	886	2096.640714985824	199
0	889	2109.499160641441	200
0	890	2111.057129010969	201
0	893	2112.420163394182	202
0	898	2138.7024080306	203
0	931	2228.500890095969	204
0	932	2232.384668820685	205
0	933	2234.639753691684	206
0	934	2242.725394686828	207
0	937	2245.077867028286	208
0	938	2247.380062289563	209
0	939	2247.486332367097	210
0	943	2270.83684052922	211
0	955	2297.098187692643	212
0	958	2304.142304657293	213
0	961	2319.94694187606	214
0	962	2326.510143907432	215
0	963	2326.669894400295	216
0	966	2328.585313549598	217
0	967	2328.849458992297	218
0	971	2338.721979531378	219
0	972	2340.60387537281	220
0	973	2342.63705572281	221
0	976	2345.860412181135	222
0	982	2356.226704336429	223
0	983	2360.43305597399	224
0	988	2368.125580511439	225
0	991	2372.686783637245	226
0	1006	2411.38701612323	227
0	1009	2413.049428362991	228
0	1015	2423.447012661582	229
0	1021	2446.371042355921	230
0	1022	2448.703205825143	231
1	166	351.26489126287	11
1	167	352.139499292612	10
1	169	356.789216703952	10
1	171	366.407720533371	11
1	176	377.040571376589	12
1	177	380.221209222702	12
1	178	381.521294040891	11
1	179	381.533837406608	10
1	180	382.58573850454	9
1	184	393.664509547355	8
1	189	407.187138617204	8
1	190	409.376212102275	8
1	191	410.963822364025	7
1	192	413.115817678288	6
1	193	414.251149736998	5
1	194	418.079182340672	4
1	195	418.960514048959	3
1	196	419.152570109974	2
1	197	419.436539194715	1
1	198	427.531739035474	0
1	200	441.086758584803	0
1	202	444.494047951664	1
1	203	449.785873906437	1
1	204	451.780041588696	0
1	208	454.812616210221	0
1	210	461.713581037227	0
1	212	465.641600051131	0
1	213	466.310147663814	0
1	220	479.277820095291	0
1	222	487.430781817632	0
1	227	494.852513830573	0
1	228	496.38825101409	0
1	230	512.690580686026	0
1	232	513.291580781746	1
1	234	513.351339505375	2
1	235	519.284327022713	2
1	241	536.37120453553	2
1	243	543.993126690739	3
1	245	544.734462538936	4
1	248	561.145040722567	4
1	249	564.275248055245	3
1	250	564.419692185351	2
1	251	567.541944593548	1
1	253	570.095733877643	1
1	254	571.392162549646	1
1	255	572.544472121358	0
1	257	581.896687504052	0
1	258	582.914645608549	0
1	260	583.921324485665	0
1	261	585.057326719958	0
1	263	585.279116190361	0
1	264	588.624116993125	0
1	268	628.667395432288	0
1	270	632.568083114477	0
1	272	639.69467870296	0
1	273	640.767903337925	0
1	275	646.035768047026	0
1	277	646.700493880238	1
1	282	654.825600306625	2
1	283	655.344204080612	2
1	285	656.330937168635	2
1	286	657.308875957729	2
1	288	659.22283601459	2
1	292	662.930578404102	3
1	294	668.660465822505	4
1	296	669.213705429238	5
1	300	686.651463762509	6
1	303	689.556081539344	7
1	305	694.675144488703	7
1	306	696.548269234616	6
1	308	699.689261245628	6
1	310	700.697231461097	7
1	315	718.013659795175	8
1	316	722.570737270593	8
1	318	722.983967879998	8
1	319	723.104067063112	8
1	321	726.315870106654	8
1	322	726.576522555653	8
1	324	748.09093089818	8
1	328	754.082570057365	9
1	330	755.845534507378	10
1	333	757.767462288997	11
1	334	757.770284961712	11
1	335	757.811926374972	10
1	336	760.69621322641	9
1	338	763.296326840998	9
1	340	763.756724342622	10
1	341	767.911506684769	10
1	343	783.013662615862	10
1	344	784.456019327014	10
1	346	793.983471542549	10
1	347	797.136760674593	10
1	349	798.026774169896	10
1	350	799.842523342146	10
1	352	801.977773532648	10
1	353	803.179753916454	10
1	357	824.077422112225	9
1	358	825.245156506875	8
1	359	826.059431380195	7
1	360	826.967602890667	6
1	361	830.199224376449	5
1	363	833.465877522527	5
1	364	834.019444745856	5
1	366	836.465091621941	5
1	368	841.389145078265	6
1	369	846.089416467715	6
1	373	855.164496103926	6
1	375	857.137315770933	6
1	379	859.058740100249	6
1	383	870.96052869789	7
1	386	872.015518815138	8
1	388	874.875020353816	8
1	389	881.426501172695	7
1	393	888.824903767603	6
1	394	892.950092498188	5
1	396	905.7906501075	5
1	397	906.954444506412	5
1	398	917.294235250141	4
1	400	917.454414024692	4
1	401	918.394742905859	4
1	402	919.005640253291	3
1	404	921.532650731636	3
1	406	927.925128540496	4
1	413	944.455151503758	4
1	414	946.290190440223	3
1	415	947.541869131584	2
1	417	949.937502961437	2
1	418	951.199969100831	2
1	420	955.67258158671	2
1	424	961.254644888158	3
1	427	967.551004355144	4
1	428	975.786584430888	4
1	429	985.572891363182	3
1	431	994.532880761544	3
1	433	995.30254166152	4
1	434	997.280370683133	4
1	436	1009.931705878689	4
1	437	1010.106422358849	4
1	438	1013.637210550842	3
1	439	1015.382854748814	2
1	440	1019.037857877666	1
1	442	1021.737113462098	1
1	444	1024.17178272167	2
1	446	1024.471307065166	3
1	447	1030.670162190639	3
1	448	1033.329464447208	2
1	455	1044.17301064952	2
1	457	1047.490056524128	2
1	459	1058.134734592907	2
1	460	1060.172025208686	2
1	464	1074.417932593013	1
1	470	1077.59144860176	1
1	473	1093.793281625996	1
1	475	1099.7668425196	1
1	476	1108.394997434958	1
1	477	1125.592663614084	0
1	486	1177.970402632044	0
1	493	1196.635886742355	1
1	495	1200.226436534748	2
1	497	1205.305018111409	3
1	499	1208.547369053641	4
1	503	1215.12574070078	5
1	505	1219.267934439993	6
1	507	1221.690684880136	6
1	509	1237.053733865379	6
1	510	1239.559080154229	6
1	512	1239.590833280954	6
1	513	1241.180938602367	6
1	515	1243.366400938419	6
1	516	1245.649776578725	6
1	518	1247.006478551144	6
1	520	1256.950644294721	7
1	524	1260.005177380118	7
1	528	1262.146085869148	6
1	529	1264.015748561863	5
1	530	1267.696751248426	4
1	532	1269.448195677003	4
1	533	1270.039237848662	4
1	534	1270.853135775834	3
1	535	1296.064778375305	2
1	539	1308.11746727072	1
1	540	1311.394443224151	0
1	542	1316.893751880655	0
1	543	1323.151634751227	0
1	547	1326.742537226964	0
1	549	1334.279731961583	0
1	551	1345.848286259193	0
1	552	1346.662873370649	0
1	557	1348.648970850869	0
1	558	1348.95807613733	0
1	563	1356.52134966197	0
1	565	1358.668885500997	1
1	566	1360.36818075398	1
1	567	1363.007436581681	0
1	569	1366.071723712859	0
1	570	1372.669936059151	0
1	578	1412.303689929352	0
1	579	1413.607183929481	0
1	587	1429.733317691778	0
1	588	1431.128002620023	0
1	590	1434.323136498465	0
1	591	1434.880980933291	0
1	593	1434.964109108602	0
1	597	1436.961393363256	1
1	599	1438.014710699769	2
1	601	1440.91670006931	3
1	603	1441.931809445978	3
1	605	1452.643273660911	3
1	606	1456.026969105376	3
1	607	1461.978982238072	2
1	608	1466.016071488879	1
1	613	1471.204834866045	1
1	614	1472.995595231176	1
1	616	1477.679218653875	1
1	617	1482.969926507371	1
1	619	1483.295070252198	1
1	620	1484.548276091608	1
1	621	1485.186119985374	0
1	626	1491.594781451896	0
1	627	1492.835597296495	0
1	629	1505.030160024024	0
1	630	1508.558076246744	0
1	632	1516.450343239982	0
1	633	1516.683218633944	0
1	635	1517.991208355858	0
1	636	1520.854031452729	0
1	638	1523.870921068251	0
1	639	1523.950264943668	0
1	648	1538.057668432891	0
1	652	1546.248679213656	1
1	653	1547.746449477791	1
1	654	1557.05917864822	0
1	656	1563.091021173002	0
1	658	1564.606893435329	1
1	659	1564.639097971817	1
1	660	1565.885465168522	0
1	662	1568.309056649513	0
1	663	1569.023770825537	0
1	665	1578.568099306452	0
1	667	1579.021682457924	1
1	668	1580.419621101432	1
1	670	1582.461246981718	1
1	672	1582.712989310234	2
1	673	1582.89287164781	2
1	674	1586.026990030169	1
1	675	1590.659289674903	0
1	677	1603.358994729019	0
1	682	1607.744862763942	1
1	684	1612.46891407111	2
1	685	1616.68668180361	2
1	686	1618.137524685162	1
1	687	1621.111049474172	0
1	689	1636.770725581656	0
1	691	1643.752179947993	1
1	693	1644.931583917353	2
1	695	1645.208321763132	3
1	696	1648.097896689932	3
1	698	1659.176969637964	3
1	699	1659.340333370002	3
1	700	1664.866251761509	2
1	701	1667.084597159398	1
1	703	1674.345312371334	1
1	704	1681.186520842452	1
1	711	1685.420559474964	1
1	713	1689.950900213952	2
1	715	1697.931056839573	3
1	717	1704.880134872352	3
1	718	1705.046352219414	2
1	720	1705.363008194692	2
1	721	1705.40945975436	2
1	722	1706.648760511899	1
1	724	1708.149830541008	1
1	726	1710.341140059046	2
1	728	1713.362897446005	3
1	729	1715.055952705244	3
1	731	1716.826918214573	3
1	732	1723.462516927905	3
1	733	1724.182596027888	2
1	734	1725.071283650004	1
1	741	1746.520972385423	1
1	745	1750.012828917756	2
1	747	1750.7522501866	3
1	750	1760.743219385746	3
1	758	1780.545645202351	3
1	760	1783.624836174733	4
1	762	1785.515637779284	5
1	764	1786.608102528738	6
1	766	1788.100980481798	7
1	768	1792.129076952849	8
1	769	1794.853231529114	8
1	770	1798.676274675419	7
1	774	1809.173374539332	7
1	776	1813.686348165498	8
1	781	1828.887216268055	8
1	782	1832.386345497094	7
1	784	1834.396774731413	7
1	786	1837.476149774725	8
1	787	1842.463117255207	8
1	788	1844.149400353169	7
1	789	1857.78449193866	6
1	790	1859.437082400093	5
1	791	1862.36740031977	4
1	792	1862.842106950217	3
1	793	1865.172284894631	2
1	794	1865.226101331717	1
1	796	1870.033855423056	1
1	797	1872.595121602176	1
1	798	1885.846069177888	0
1	800	1890.545216059208	0
1	801	1895.065661552978	0
1	809	1916.765702130355	0
1	810	1918.026624194165	0
1	815	1934.493965339324	0
1	816	1934.635244645332	0
1	818	1937.97189039777	0
1	822	1947.836497440777	0
1	835	1976.855919890475	0
1	842	1988.823419157974	1
1	847	1996.727013769419	2
1	850	1998.85047389208	3
1	854	2006.840808922118	4
1	858	2024.745438396731	5
1	860	2025.944021961315	6
1	862	2028.289970011253	7
1	867	2040.45613515477	8
1	868	2045.467593790311	8
1	870	2047.342792869357	8
1	871	2051.052739959564	8
1	872	2052.349353072587	7
1	873	2053.545592534842	6
1	875	2067.117905936518	6
1	876	2068.188420631791	6
1	878	2079.932128378416	6
1	880	2080.182697143549	7
1	882	2080.499574889648	8
1	883	2084.632749362277	8
1	884	2091.544185125807	7
1	885	2093.772938459914	6
1	886	2096.640714985824	5
1	888	2107.610656614475	5
1	889	2109.499160641441	5
1	890	2111.057129010969	4
1	892	2112.345383053022	4
1	893	2112.420163394182	4
1	895	2130.249105147754	4
1	897	2138.55333155246	5
1	898	2138.7024080306	5
1	902	2143.419866067781	5
1	915	2171.416923986947	6
1	917	2174.188701438503	7
1	919	2187.093761591359	8
1	922	2192.155402618666	9
1	924	2204.841647655703	10
1	926	2206.245984870921	11
1	931	2228.500890095969	11
1	932	2232.384668820685	10
1	933	2234.639753691684	9
1	934	2242.725394686828	8
1	936	2244.13923776168	8
1	937	2245.077867028286	8
1	938	2247.380062289563	7
1	939	2247.486332367097	6
1	943	2270.83684052922	5
1	945	2277.537847225243	5
1	949	2289.141865512103	6
1	951	2291.318595943235	7
1	954	2295.59156571577	8
1	955	2297.098187692643	8
1	957	2297.947119131108	8
1	958	2304.142304657293	8
1	960	2316.278446438018	8
1	961	2319.94694187606	8
1	962	2326.510143907432	7
1	963	2326.669894400295	6
1	965	2327.98601757414	6
1	966	2328.585313549598	6
1	967	2328.849458992297	5
1	971	2338.721979531378	4
1	972	2340.60387537281	3
1	973	2342.63705572281	2
1	975	2345.680151314537	2
1	976	2345.860412181135	2
1	978	2351.582526638814	2
1	982	2356.226704336429	2
1	983	2360.43305597399	1
1	985	2361.054874266508	1
1	987	2366.210491028203	2
1	988	2368.125580511439	2
1	990	2370.222330685964	2
1	991	2372.686783637245	2
1	993	2379.145448243972	2
1	995	2389.248330480956	3
1	997	2389.842691429586	4
1	999	2393.095394791491	5
1	1001	2396.301173612793	6
1	1003	2402.826514123312	7
1	1005	2405.848596340953	8
1	1006	2411.38701612323	8
1	1008	2413.005412113603	8
1	1009	2413.049428362991	8
1	1013	2418.180451570403	8
1	1015	2423.447012661582	8
1	1020	2443.112190058738	8
1	1021	2446.371042355921	8
1	1022	2448.703205825143	7
1	1026	2457.571520976012	7
1	1032	2492.925146764597	8
1	1035	2498.096628724313	9
1	1037	2499.167734483319	10
2	166	351.26489126287	86.921913453338
2	167	352.139499292612	84.176143053303
2	177	380.221209222702	104.5219885311
2	178	381.521294040891	104.27689063717
2	179	381.533837406608	101.17872347414
2	180	382.58573850454	101.86056061552
2	184	393.664509547355	86.121152437039
2	190	409.376212102275	88.067503361798
2	191	410.963822364025	73.482596791756
2	192	413.115817678288	56.326600974336
2	193	414.251149736998	47.843429203627
2	194	418.079182340672	45.94438405356
2	195	418.960514048959	41.91994267237
2	196	419.152570109974	36.502661346083
2	197	419.436539194715	20.953664879913
2	198	427.531739035474	20.34460041827
2	203	449.785873906437	8.699115321634
2	204	451.780041588696	7.285993637032
2	210	461.713581037227	6.900964827006
2	213	466.310147663814	0.668547612683
2	222	487.430781817632	8.152961722341
2	228	496.38825101409	1.535737183517
2	235	519.284327022713	6.593746336687
2	248	561.145040722567	47.793701217192
2	249	564.275248055245	38.249623677726
2	250	564.419692185351	28.048487649821
2	251	567.541944593548	23.548817902809
2	254	571.392162549646	26.65770001071
2	255	572.544472121358	2.448738243715
2	258	582.914645608549	1.017958104497
2	261	585.057326719958	1.136002234293
2	264	588.624116993125	3.345000802764
2	270	632.568083114477	3.900687682189
2	273	640.767903337925	1.073224634965
2	283	655.344204080612	8.643710200374
2	286	657.308875957729	6.264097851077
2	305	694.675144488703	38.344207320068
2	306	696.548269234616	37.325433220026
2	316	722.570737270593	59.640158866491
2	319	723.104067063112	54.443601240607
2	322	726.576522555653	57.362817126415
2	334	757.770284961712	68.214203422368
2	335	757.811926374972	58.122665129344
2	336	760.69621322641	59.998981765313
2	341	767.911506684769	59.71707543168
2	344	784.456019327014	66.442359531839
2	347	797.136760674593	74.152792794595
2	350	799.842523342146	73.526653235492
2	353	803.179753916454	55.088823018274
2	357	824.077422112225	69.99485205486
2	358	825.245156506875	69.399621999497
2	359	826.059431380195	68.291969091198
2	360	826.967602890667	63.671276049669
2	361	830.199224376449	66.442500033827
2	364	834.019444745856	51.005782129994
2	369	846.089416467715	52.105944925166
2	375	857.137315770933	55.159542238285
2	388	874.875020353816	41.409142831289
2	389	881.426501172695	44.961409550754
2	393	888.824903767603	41.792623462498
2	394	892.950092498188	37.785596394262
2	397	906.954444506412	48.361954049528
2	398	917.294235250141	58.235495149892
2	401	918.394742905859	47.434214207969
2	402	919.005640253291	46.990121438153
2	413	944.455151503758	27.000737479066
2	414	946.290190440223	24.757539708587
2	415	947.541869131584	19.616740591088
2	418	951.199969100831	20.932046595006
2	428	975.786584430888	25.849081469451
2	429	985.572891363182	29.900309776472
2	434	997.280370683133	39.932201959525
2	437	1010.106422358849	48.851777470691
2	438	1013.637210550842	46.086206195698
2	439	1015.382854748814	20.84997398727
2	440	1019.037857877666	23.735316216146
2	447	1030.670162190639	20.73845631195
2	448	1033.329464447208	11.59235098511
2	457	1047.490056524128	13.878377648765
2	460	1060.172025208686	22.344070071307
2	464	1074.417932593013	16.283198000106
2	473	1093.793281625996	17.514308396181
2	476	1108.394997434958	30.803548833198
2	477	1125.592663614084	25.825821094484
2	507	1221.690684880136	25.054798137781
2	510	1239.559080154229	39.332643619481
2	513	1241.180938602367	35.875920490958
2	516	1245.649776578725	37.102407525084
2	524	1260.005177380118	44.879436679338
2	528	1262.146085869148	25.092352003769
2	529	1264.015748561863	24.424915280909
2	530	1267.696751248426	24.330350310007
2	533	1270.039237848662	23.032759297518
2	534	1270.853135775834	13.902491481113
2	535	1296.064778375305	39.0471810497
2	539	1308.11746727072	38.669271593717
2	540	1311.394443224151	11.456095339464
2	543	1323.151634751227	6.257882870572
2	549	1334.279731961583	7.537194734619
2	552	1346.662873370649	0.814587111456
2	558	1348.95807613733	0.309105286461
2	566	1360.36818075398	3.84683109201
2	567	1363.007436581681	4.338551080684
2	570	1372.669936059151	6.598212346292
2	579	1413.607183929481	1.303494000129
2	588	1431.128002620023	1.394684928245
2	591	1434.880980933291	0.557844434826
2	603	1441.931809445978	5.209478918937
2	606	1456.026969105376	19.06557574212
2	607	1461.978982238072	23.964271538303
2	608	1466.016071488879	25.099371419569
2	614	1472.995595231176	4.740340799281
2	617	1482.969926507371	11.765091641326
2	620	1484.548276091608	6.869057437733
2	621	1485.186119985374	1.891049733176
2	627	1492.835597296495	1.240815844599
2	630	1508.558076246744	3.52791622272
2	633	1516.683218633944	0.232875393962
2	636	1520.854031452729	2.862823096871
2	639	1523.950264943668	0.079343875417
2	653	1547.746449477791	9.6887810449
2	654	1557.05917864822	10.810499434564
2	659	1564.639097971817	1.548076798815
2	660	1565.885465168522	1.278571733193
2	663	1569.023770825537	0.714714176024
2	668	1580.419621101432	1.85152179498
2	673	1582.89287164781	3.871189189886
2	674	1586.026990030169	3.565743048451
2	675	1590.659289674903	7.946300364669
2	685	1616.68668180361	11.467823645236
2	686	1618.137524685162	10.39266192122
2	687	1621.111049474172	8.642135403062
2	696	1648.097896689932	11.327171108276
2	699	1659.340333370002	15.588153422009
2	700	1664.866251761509	19.934667844156
2	701	1667.084597159398	21.876275396266
2	704	1681.186520842452	22.009551204488
2	717	1704.880134872352	19.475170181973
2	718	1705.046352219414	19.62579274445
2	721	1705.40945975436	15.458559540408
2	722	1706.648760511899	8.717703672326
2	729	1715.055952705244	9.692944510552
2	732	1723.462516927905	15.312686386897
2	733	1724.182596027888	13.841455968842
2	734	1725.071283650004	11.708386203999
2	750	1760.743219385746	14.957236186517
2	769	1794.853231529114	44.100981342514
2	770	1798.676274675419	36.61838939308
2	781	1828.887216268055	48.341571065704
2	782	1832.386345497094	48.761509322361
2	787	1842.463117255207	56.947479475923
2	788	1844.149400353169	57.541297824431
2	789	1857.78449193866	69.683511456862
2	790	1859.437082400093	67.308005447244
2	791	1862.36740031977	59.098886974529
2	792	1862.842106950217	53.668732410885
2	793	1865.172284894631	51.485936729133
2	794	1865.226101331717	30.829326600304
2	797	1872.595121602176	35.118971827451
2	798	1885.846069177888	15.812213754832
2	801	1895.065661552978	4.52044549377
2	810	1918.026624194165	1.26092206381
2	816	1934.635244645332	0.141279306008
2	822	1947.836497440777	6.802937270688
2	868	2045.467593790311	68.611673899836
2	871	2051.052739959564	62.22932080159
2	872	2052.349353072587	55.622339303168
2	873	2053.545592534842	54.695118642762
2	876	2068.188420631791	61.347611709673
2	883	2084.632749362277	59.887310965546
2	884	2091.544185125807	65.600163164492
2	885	2093.772938459914	65.482968448661
2	886	2096.640714985824	56.184579831054
2	889	2109.499160641441	62.156367772084
2	890	2111.057129010969	43.939223074451
2	893	2112.420163394182	32.488035015766
2	898	2138.7024080306	58.519710887051
2	931	2228.500890095969	120.89023348149
2	932	2232.384668820685	120.03928576766
2	933	2234.639753691684	104.39064854393
2	934	2242.725394686828	104.17206313437
2	937	2245.077867028286	104.82312891695
2	938	2247.380062289563	103.96019622178
2	939	2247.486332367097	76.06940838015
2	943	2270.83684052922	83.743078937861
2	955	2297.098187692643	92.25654003694
2	958	2304.142304657293	97.896319786372
2	961	2319.94694187606	75.80770411438
2	962	2326.510143907432	75.681007125693
2	963	2326.669894400295	49.132047175052
2	966	2328.585313549598	41.551786620368
2	967	2328.849458992297	39.707593480194
2	971	2338.721979531378	43.130413815608
2	972	2340.60387537281	42.656756241702
2	973	2342.63705572281	26.358609284792
2	976	2345.860412181135	17.874394606995
2	982	2356.226704336429	10.546553021892
2	983	2360.43305597399	8.850529335176
2	988	2368.125580511439	16.413690387956
2	991	2372.686783637245	11.631909370737
2	1006	2411.38701612323	45.176525095027
2	1009	2413.049428362991	42.827097677027
2	1015	2423.447012661582	34.198682180626
2	1021	2446.371042355921	53.27564756443
2	1022	2448.703205825143	52.40203221235
3	166	351.26489126287	83.301535023561
3	167	352.139499292612	83.783653759098
3	174	374.535239493951	98.836018802345
3	177	380.221209222702	102.97680581898
3	178	381.521294040891	101.16618010842
3	179	381.533837406608	100.80865951759
3	180	382.58573850454	80.137901456324
3	183	392.950751242479	85.407394132163
3	184	393.664509547355	86.093216847593
3	187	406.157799287823	84.849090547346
3	190	409.376212102275	71.894986530006
3	191	410.963822364025	54.174605660073
3	192	413.115817678288	46.708097144917
3	193	414.251149736998	42.116351449886
3	194	418.079182340672	41.038610964083
3	195	418.960514048959	36.310605285068
3	196	419.152570109974	20.669695795172
3	197	419.436539194715	12.249400577511
3	200	441.086758584803	0
3	203	449.785873906437	5.291825954773
3	209	456.17763824731	1.365022037089
3	212	465.641600051131	0
3	221	481.674672036204	2.396851940913
3	227	494.852513830573	0
3	230	512.690580686026	0
3	235	519.284327022713	5.992746240967
3	247	553.042873417174	39.691533911799
3	248	561.145040722567	35.119416345048
3	249	564.275248055245	27.904043519715
3	250	564.419692185351	20.426565494612
3	251	567.541944593548	22.807482054612
3	254	571.392162549646	1.296428672003
3	257	581.896687504052	0
3	260	583.921324485665	0
3	263	585.279116190361	0
3	269	630.168550640302	1.501155208014
3	272	639.69467870296	0
3	275	646.035768047026	0
3	280	654.397878228363	7.697384348125
3	283	655.344204080612	4.29942597396
3	286	657.308875957729	2.483275651104
3	304	692.159240681164	35.828303512529
3	305	694.675144488703	35.452308474113
3	306	696.548269234616	34.771246182194
3	313	713.768499189573	50.837920785471
3	316	722.570737270593	53.910271448088
3	319	723.104067063112	53.890361633874
3	322	726.576522555653	39.925058793144
3	331	756.076756965231	66.520675425887
3	334	757.770284961712	58.081023716084
3	335	757.811926374972	57.114694913875
3	336	760.69621322641	52.501781973321
3	341	767.911506684769	49.897846889594
3	344	784.456019327014	61.472051447016
3	347	797.136760674593	70.820890567939
3	350	799.842523342146	51.751592443966
3	353	803.179753916454	54.508002751781
3	356	813.751155768016	59.668585710651
3	357	824.077422112225	68.231887604847
3	358	825.245156506875	67.477694217878
3	359	826.059431380195	62.763104539197
3	360	826.967602890667	63.210878548045
3	361	830.199224376449	47.185561760587
3	364	834.019444745856	40.035973203307
3	369	846.089416467715	48.062642297819
3	374	855.900734103982	53.922960571334
3	375	857.137315770933	44.123327622871
3	387	874.148719567003	40.682842044476
3	388	874.875020353816	38.409928731875
3	389	881.426501172695	40.03735609443
3	392	886.17795560657	39.145675301465
3	393	888.824903767603	33.660407663677
3	394	892.950092498188	34.357602041304
3	397	906.954444506412	47.895704406163
3	398	917.294235250141	46.333706552251
3	401	918.394742905859	46.379224090721
3	402	919.005640253291	34.611633035675
3	409	934.217894298366	28.427244190866
3	412	943.381800357496	25.927386332804
3	413	944.455151503758	22.922500772122
3	414	946.290190440223	18.365061899727
3	415	947.541869131584	17.273946625759
3	418	951.199969100831	13.879758220018
3	425	967.284037360226	17.346534398789
3	428	975.786584430888	20.114002844178
3	429	985.572891363182	28.224722639574
3	434	997.280370683133	36.025725794975
3	437	1010.106422358849	42.555418003705
3	438	1013.637210550842	19.104329789298
3	439	1015.382854748814	20.080313087294
3	440	1019.037857877666	9.106151998977
3	447	1030.670162190639	8.933048728541
3	448	1033.329464447208	9.157681725538
3	451	1036.204364097618	11.733057032452
3	456	1047.076078696418	13.464399821055
3	457	1047.490056524128	9.662101386749
3	460	1060.172025208686	15.999014559166
3	463	1074.169023051987	16.03428845908
3	464	1074.417932593013	12.950860828401
3	472	1091.967830560578	15.688857330763
3	473	1093.793281625996	16.201833024236
3	476	1108.394997434958	8.628154915358
3	491	1191.130533628801	13.160130996757
3	506	1220.017098409598	23.381211667243
3	507	1221.690684880136	21.464248345388
3	510	1239.559080154229	34.25406204282
3	513	1241.180938602367	32.633569548726
3	516	1245.649776578725	32.224317399789
3	523	1257.767755177486	42.642014476706
3	524	1260.005177380118	40.737242940125
3	527	1261.182295692788	24.128561827409
3	528	1262.146085869148	22.555252588194
3	529	1264.015748561863	20.649347623444
3	530	1267.696751248426	20.690272697282
3	533	1270.039237848662	13.088593553941
3	534	1270.853135775834	13.835538450229
3	535	1296.064778375305	35.214265036076
3	538	1303.916766130551	34.468570453548
3	539	1308.11746727072	8.179119386033
3	542	1316.893751880655	0
3	548	1333.682711663034	6.94017443607
3	551	1345.848286259193	0
3	557	1348.648970850869	0
3	563	1356.52134966197	0
3	566	1360.36818075398	1.699295252983
3	569	1366.071723712859	0
3	578	1412.303689929352	0
3	587	1429.733317691778	0
3	590	1434.323136498465	0
3	593	1434.964109108602	0
3	602	1441.578704922938	4.856374395897
3	603	1441.931809445978	4.970416082722
3	606	1456.026969105376	18.012258405607
3	607	1461.978982238072	21.062282168762
3	608	1466.016071488879	13.372797827968
3	611	1468.948443568143	0.693189136248
3	614	1472.995595231176	1.790760365131
3	617	1482.969926507371	5.290707853496
3	620	1484.548276091608	1.25320583941
3	626	1491.594781451896	0
3	629	1505.030160024024	0
3	632	1516.450343239982	0
3	635	1517.991208355858	0
3	638	1523.870921068251	0
3	650	1541.845782787796	3.788114354905
3	653	1547.746449477791	1.497770264135
3	656	1563.091021173002	0
3	659	1564.639097971817	0.032204536488
3	662	1568.309056649513	0
3	665	1578.568099306452	0
3	668	1580.419621101432	1.397938643508
3	673	1582.89287164781	0.431624666092
3	674	1586.026990030169	3.314000719935
3	677	1603.358994729019	0
3	680	1605.268167425795	0.049309267421
3	685	1616.68668180361	8.941819039668
3	686	1618.137524685162	5.668610614052
3	689	1636.770725581656	0
3	696	1648.097896689932	4.345716741939
3	699	1659.340333370002	14.408749452649
3	700	1664.866251761509	19.657929998377
3	701	1667.084597159398	7.907627521434
3	704	1681.186520842452	6.841208471118
3	707	1682.805471889468	1.056922115957
3	716	1702.573350065009	17.16838537463
3	717	1704.880134872352	19.459575397388
3	718	1705.046352219414	15.095452005462
3	721	1705.40945975436	7.478402914787
3	722	1706.648760511899	1.285752317207
3	729	1715.055952705244	6.906122164236
3	732	1723.462516927905	13.121376868859
3	733	1724.182596027888	10.819698581883
3	734	1725.071283650004	8.244365435431
3	737	1733.65476793533	0.538350881993
3	749	1752.593184399368	6.807201200139
3	750	1760.743219385746	14.222247000323
3	753	1763.433220750968	13.420391833212
3	756	1780.209375904193	29.457125717593
3	769	1794.853231529114	32.795346246775
3	770	1798.676274675419	27.645043729059
3	780	1826.649589688125	46.103944485774
3	781	1828.887216268055	45.262380093322
3	782	1832.386345497094	46.87070771781
3	787	1842.463117255207	55.855014726469
3	788	1844.149400353169	56.048419871371
3	789	1857.78449193866	65.655414985811
3	790	1859.437082400093	56.168569054852
3	791	1862.36740031977	53.194025780438
3	792	1862.842106950217	49.155758784719
3	793	1865.172284894631	30.775510163218
3	794	1865.226101331717	27.749951556992
3	797	1872.595121602176	2.56126617912
3	800	1890.545216059208	0
3	809	1916.765702130355	0
3	815	1934.493965339324	0
3	818	1937.97189039777	0
3	821	1942.659753497338	1.626193327249
3	865	2037.164112127871	60.308192237396
3	868	2045.467593790311	56.644174632337
3	871	2051.052739959564	54.325726190145
3	872	2052.349353072587	53.498879180507
3	873	2053.545592534842	46.704783612724
3	876	2068.188420631791	43.44298223506
3	883	2084.632749362277	58.688727400962
3	884	2091.544185125807	63.254215114554
3	885	2093.772938459914	53.316803305144
3	886	2096.640714985824	49.297922116467
3	889	2109.499160641441	42.381254704923
3	890	2111.057129010969	31.125000632553
3	893	2112.420163394182	32.237466250633
3	898	2138.7024080306	58.202833140952
3	930	2222.551594434129	114.94093781965
3	931	2228.500890095969	116.15550704295
3	932	2232.384668820685	102.13556367293
3	933	2234.639753691684	96.086422139224
3	934	2242.725394686828	102.47065657549
3	937	2245.077867028286	101.6580009605
3	938	2247.380062289563	75.963138302616
3	939	2247.486332367097	73.297630928594
3	942	2263.005017536432	75.911255945073
3	943	2270.83684052922	78.681437910554
3	952	2293.011982120726	88.170334465023
3	955	2297.098187692643	90.852202821722
3	958	2304.142304657293	60.003066895613
3	961	2319.94694187606	69.117805094321
3	962	2326.510143907432	48.972296682189
3	963	2326.669894400295	39.636367471065
3	966	2328.585313549598	39.443448037495
3	967	2328.849458992297	37.530863049062
3	970	2333.385757112551	37.794191396781
3	971	2338.721979531378	40.77486040027
3	972	2340.60387537281	24.325428934792
3	973	2342.63705572281	14.65103814867
3	976	2345.860412181135	12.871268680361
3	981	2355.264975224424	9.584823909887
3	982	2356.226704336429	4.644177697615
3	983	2360.43305597399	8.721165850507
3	988	2368.125580511439	7.070706244931
3	991	2372.686783637245	6.476292609042
3	1006	2411.38701612323	41.164685437266
3	1009	2413.049428362991	33.903980119019
3	1014	2421.907643712117	32.659313231161
3	1015	2423.447012661582	33.604321231996
3	1018	2429.821597465188	36.726202673697
3	1021	2446.371042355921	50.069868743128
3	1022	2448.703205825143	45.876691701831
4	169	356.789216703952	11
4	171	366.407720533371	12
4	176	377.040571376589	13
4	189	407.187138617204	9
4	200	441.086758584803	1
4	202	444.494047951664	2
4	208	454.812616210221	1
4	212	465.641600051131	1
4	220	479.277820095291	1
4	227	494.852513830573	1
4	230	512.690580686026	1
4	232	513.291580781746	2
4	234	513.351339505375	3
4	241	536.37120453553	3
4	243	543.993126690739	4
4	245	544.734462538936	5
4	253	570.095733877643	2
4	257	581.896687504052	1
4	260	583.921324485665	1
4	263	585.279116190361	1
4	268	628.667395432288	1
4	272	639.69467870296	1
4	275	646.035768047026	1
4	277	646.700493880238	2
4	282	654.825600306625	3
4	285	656.330937168635	3
4	288	659.22283601459	3
4	292	662.930578404102	4
4	294	668.660465822505	5
4	296	669.213705429238	6
4	300	686.651463762509	7
4	303	689.556081539344	8
4	308	699.689261245628	7
4	310	700.697231461097	8
4	315	718.013659795175	9
4	318	722.983967879998	9
4	321	726.315870106654	9
4	324	748.09093089818	9
4	328	754.082570057365	10
4	330	755.845534507378	11
4	333	757.767462288997	12
4	338	763.296326840998	10
4	340	763.756724342622	11
4	343	783.013662615862	11
4	346	793.983471542549	11
4	349	798.026774169896	11
4	352	801.977773532648	11
4	363	833.465877522527	6
4	366	836.465091621941	6
4	368	841.389145078265	7
4	373	855.164496103926	7
4	379	859.058740100249	7
4	383	870.96052869789	8
4	386	872.015518815138	9
4	396	905.7906501075	6
4	400	917.454414024692	5
4	404	921.532650731636	4
4	406	927.925128540496	5
4	417	949.937502961437	3
4	420	955.67258158671	3
4	424	961.254644888158	4
4	427	967.551004355144	5
4	431	994.532880761544	4
4	433	995.30254166152	5
4	436	1009.931705878689	5
4	442	1021.737113462098	2
4	444	1024.17178272167	3
4	446	1024.471307065166	4
4	455	1044.17301064952	3
4	459	1058.134734592907	3
4	470	1077.59144860176	2
4	475	1099.7668425196	2
4	486	1177.970402632044	1
4	493	1196.635886742355	2
4	495	1200.226436534748	3
4	497	1205.305018111409	4
4	499	1208.547369053641	5
4	503	1215.12574070078	6
4	505	1219.267934439993	7
4	509	1237.053733865379	7
4	512	1239.590833280954	7
4	515	1243.366400938419	7
4	518	1247.006478551144	7
4	520	1256.950644294721	8
4	532	1269.448195677003	5
4	542	1316.893751880655	1
4	547	1326.742537226964	1
4	551	1345.848286259193	1
4	557	1348.648970850869	1
4	563	1356.52134966197	1
4	565	1358.668885500997	2
4	569	1366.071723712859	1
4	578	1412.303689929352	1
4	587	1429.733317691778	1
4	590	1434.323136498465	1
4	593	1434.964109108602	1
4	597	1436.961393363256	2
4	599	1438.014710699769	3
4	601	1440.91670006931	4
4	605	1452.643273660911	4
4	613	1471.204834866045	2
4	616	1477.679218653875	2
4	619	1483.295070252198	2
4	626	1491.594781451896	1
4	629	1505.030160024024	1
4	632	1516.450343239982	1
4	635	1517.991208355858	1
4	638	1523.870921068251	1
4	648	1538.057668432891	1
4	652	1546.248679213656	2
4	656	1563.091021173002	1
4	658	1564.606893435329	2
4	662	1568.309056649513	1
4	665	1578.568099306452	1
4	667	1579.021682457924	2
4	670	1582.461246981718	2
4	672	1582.712989310234	3
4	677	1603.358994729019	1
4	682	1607.744862763942	2
4	684	1612.46891407111	3
4	689	1636.770725581656	1
4	691	1643.752179947993	2
4	693	1644.931583917353	3
4	695	1645.208321763132	4
4	698	1659.176969637964	4
4	703	1674.345312371334	2
4	711	1685.420559474964	2
4	713	1689.950900213952	3
4	715	1697.931056839573	4
4	720	1705.363008194692	3
4	724	1708.149830541008	2
4	726	1710.341140059046	3
4	728	1713.362897446005	4
4	731	1716.826918214573	4
4	741	1746.520972385423	2
4	745	1750.012828917756	3
4	747	1750.7522501866	4
4	758	1780.545645202351	4
4	760	1783.624836174733	5
4	762	1785.515637779284	6
4	764	1786.608102528738	7
4	766	1788.100980481798	8
4	768	1792.129076952849	9
4	774	1809.173374539332	8
4	776	1813.686348165498	9
4	784	1834.396774731413	8
4	786	1837.476149774725	9
4	796	1870.033855423056	2
4	800	1890.545216059208	1
4	809	1916.765702130355	1
4	815	1934.493965339324	1
4	818	1937.97189039777	1
4	835	1976.855919890475	1
4	842	1988.823419157974	2
4	847	1996.727013769419	3
4	850	1998.85047389208	4
4	854	2006.840808922118	5
4	858	2024.745438396731	6
4	860	2025.944021961315	7
4	862	2028.289970011253	8
4	867	2040.45613515477	9
4	870	2047.342792869357	9
4	875	2067.117905936518	7
4	878	2079.932128378416	7
4	880	2080.182697143549	8
4	882	2080.499574889648	9
4	888	2107.610656614475	6
4	892	2112.345383053022	5
4	895	2130.249105147754	5
4	897	2138.55333155246	6
4	902	2143.419866067781	6
4	915	2171.416923986947	7
4	917	2174.188701438503	8
4	919	2187.093761591359	9
4	922	2192.155402618666	10
4	924	2204.841647655703	11
4	926	2206.245984870921	12
4	936	2244.13923776168	9
4	945	2277.537847225243	6
4	949	2289.141865512103	7
4	951	2291.318595943235	8
4	954	2295.59156571577	9
4	957	2297.947119131108	9
4	960	2316.278446438018	9
4	965	2327.98601757414	7
4	975	2345.680151314537	3
4	978	2351.582526638814	3
4	985	2361.054874266508	2
4	987	2366.210491028203	3
4	990	2370.222330685964	3
4	993	2379.145448243972	3
4	995	2389.248330480956	4
4	997	2389.842691429586	5
4	999	2393.095394791491	6
4	1001	2396.301173612793	7
4	1003	2402.826514123312	8
4	1005	2405.848596340953	9
4	1008	2413.005412113603	9
4	1013	2418.180451570403	9
4	1020	2443.112190058738	9
4	1026	2457.571520976012	8
4	1032	2492.925146764597	9
4	1035	2498.096628724313	10
4	1037	2499.167734483319	11
5	173	372.134798287112	1
5	182	382.649908763891	1
5	186	398.482874314802	1
5	206	452.623286576907	1
5	215	469.657341332736	1
5	218	476.563346583834	1
5	224	489.543105686646	1
5	237	526.025624377519	1
5	239	535.796427067984	2
5	266	626.393968682192	1
5	279	651.044778106652	1
5	290	661.777023052422	1
5	298	684.308078529856	2
5	312	708.194431253089	1
5	326	748.671751164673	1
5	355	813.013988148062	1
5	371	847.032280305105	1
5	377	858.592490456884	1
5	381	861.19589677694	2
5	391	884.394007217616	1
5	408	930.267922505825	1
5	411	937.320210880813	1
5	422	957.348168723608	1
5	450	1033.611678875363	1
5	453	1037.827955137379	1
5	462	1061.467071764612	1
5	466	1076.278973229815	1
5	468	1076.925032669892	2
5	479	1158.248829838364	1
5	481	1161.058857976693	2
5	483	1173.962877596753	3
5	489	1180.101638718088	2
5	501	1213.425459178936	1
5	522	1257.017597325605	1
5	526	1260.850513339229	1
5	537	1299.938347884687	1
5	545	1326.453008205057	1
5	554	1347.463605427665	1
5	560	1351.210648716751	1
5	572	1385.198060931911	1
5	575	1403.276454880886	1
5	581	1419.17759583594	1
5	584	1422.002012796862	1
5	595	1436.722330527041	1
5	610	1468.255254431895	1
5	623	1486.728705151374	1
5	641	1524.308443310314	1
5	643	1528.188529657151	2
5	645	1535.346246111982	3
5	679	1605.218858158374	1
5	706	1681.748549773511	1
5	709	1685.404964690379	1
5	736	1733.116417053337	1
5	739	1745.785983199229	1
5	743	1747.360294083479	2
5	752	1762.057885282339	1
5	755	1771.03123094636	1
5	772	1803.268513345241	1
5	778	1815.842102082336	2
5	803	1899.469683830687	1
5	805	1903.469048659292	2
5	812	1928.78649794723	1
5	820	1941.033560170089	1
5	824	1952.135829052273	1
5	827	1966.495807747824	1
5	829	1967.8742062205	2
5	831	1973.023659719139	3
5	833	1974.650065026567	4
5	837	1984.510906702646	5
5	839	1984.867767945828	6
5	844	1991.139207354218	6
5	852	2002.681817417297	5
5	900	2140.25473811134	1
5	904	2143.875117242388	2
5	906	2149.009102541388	3
5	908	2153.547249966718	4
5	910	2162.084817532982	5
5	912	2162.193617147174	6
5	941	2250.829136781739	1
5	947	2287.03352692923	1
5	969	2332.989143500774	1
5	980	2351.711890123483	1
5	1011	2414.616886915989	1
5	1017	2428.112985906692	1
5	1024	2455.475700995089	1
5	1028	2463.575780159213	2
5	1030	2491.203118857694	3
6	173	372.134798287112	0
6	174	374.535239493951	0
6	182	382.649908763891	0
6	183	392.950751242479	0
6	186	398.482874314802	0
6	187	406.157799287823	0
6	206	452.623286576907	0
6	209	456.17763824731	0
6	215	469.657341332736	0
6	216	474.76078650636	0
6	218	476.563346583834	0
6	221	481.674672036204	0
6	224	489.543105686646	0
6	225	492.622882527465	0
6	237	526.025624377519	0
6	239	535.796427067984	1
6	246	545.858240045104	1
6	247	553.042873417174	0
6	266	626.393968682192	0
6	269	630.168550640302	0
6	279	651.044778106652	0
6	280	654.397878228363	0
6	290	661.777023052422	0
6	298	684.308078529856	1
6	301	689.136867266752	1
6	304	692.159240681164	0
6	312	708.194431253089	0
6	313	713.768499189573	0
6	326	748.671751164673	0
6	331	756.076756965231	0
6	355	813.013988148062	0
6	356	813.751155768016	0
6	371	847.032280305105	0
6	374	855.900734103982	0
6	377	858.592490456884	0
6	381	861.19589677694	1
6	384	871.179720079897	1
6	387	874.148719567003	0
6	391	884.394007217616	0
6	392	886.17795560657	0
6	408	930.267922505825	0
6	409	934.217894298366	0
6	411	937.320210880813	0
6	412	943.381800357496	0
6	422	957.348168723608	0
6	425	967.284037360226	0
6	450	1033.611678875363	0
6	451	1036.204364097618	0
6	453	1037.827955137379	0
6	456	1047.076078696418	0
6	462	1061.467071764612	0
6	463	1074.169023051987	0
6	466	1076.278973229815	0
6	468	1076.925032669892	1
6	471	1078.764018377803	1
6	472	1091.967830560578	0
6	479	1158.248829838364	0
6	481	1161.058857976693	1
6	483	1173.962877596753	2
6	484	1177.533964985512	2
6	487	1179.412607550066	1
6	489	1180.101638718088	1
6	490	1183.366743848196	1
6	491	1191.130533628801	0
6	501	1213.425459178936	0
6	506	1220.017098409598	0
6	522	1257.017597325605	0
6	523	1257.767755177486	0
6	526	1260.850513339229	0
6	527	1261.182295692788	0
6	537	1299.938347884687	0
6	538	1303.916766130551	0
6	545	1326.453008205057	0
6	548	1333.682711663034	0
6	554	1347.463605427665	0
6	555	1348.227731842515	0
6	560	1351.210648716751	0
6	561	1353.766677651118	0
6	572	1385.198060931911	0
6	573	1386.364294110359	0
6	575	1403.276454880886	0
6	576	1403.905077889316	0
6	581	1419.17759583594	0
6	582	1420.966392101506	0
6	584	1422.002012796862	0
6	585	1427.844650126597	0
6	595	1436.722330527041	0
6	602	1441.578704922938	0
6	610	1468.255254431895	0
6	611	1468.948443568143	0
6	623	1486.728705151374	0
6	624	1487.334639954066	0
6	641	1524.308443310314	0
6	643	1528.188529657151	1
6	645	1535.346246111982	2
6	646	1536.756716870544	2
6	649	1538.766241998294	1
6	650	1541.845782787796	0
6	679	1605.218858158374	0
6	680	1605.268167425795	0
6	706	1681.748549773511	0
6	707	1682.805471889468	0
6	709	1685.404964690379	0
6	716	1702.573350065009	0
6	736	1733.116417053337	0
6	737	1733.65476793533	0
6	739	1745.785983199229	0
6	743	1747.360294083479	1
6	748	1751.81212417111	1
6	749	1752.593184399368	0
6	752	1762.057885282339	0
6	753	1763.433220750968	0
6	755	1771.03123094636	0
6	756	1780.209375904193	0
6	772	1803.268513345241	0
6	778	1815.842102082336	1
6	779	1823.093721845296	1
6	780	1826.649589688125	0
6	803	1899.469683830687	0
6	805	1903.469048659292	1
6	806	1905.327765826281	1
6	807	1908.133493113788	0
6	812	1928.78649794723	0
6	813	1929.106414033607	0
6	820	1941.033560170089	0
6	821	1942.659753497338	0
6	824	1952.135829052273	0
6	825	1957.717188123766	0
6	827	1966.495807747824	0
6	829	1967.8742062205	1
6	831	1973.023659719139	2
6	833	1974.650065026567	3
6	837	1984.510906702646	4
6	839	1984.867767945828	5
6	840	1987.536749650174	5
6	844	1991.139207354218	5
6	845	1995.202104269866	5
6	848	1998.835680856841	4
6	852	2002.681817417297	4
6	855	2010.931186886602	4
6	856	2018.373365833651	3
6	863	2031.88325177372	2
6	864	2034.980127987012	1
6	865	2037.164112127871	0
6	900	2140.25473811134	0
6	904	2143.875117242388	1
6	906	2149.009102541388	2
6	908	2153.547249966718	3
6	910	2162.084817532982	4
6	912	2162.193617147174	5
6	913	2162.817206635112	5
6	920	2188.696730450378	4
6	927	2214.344446147841	3
6	928	2219.052987299852	2
6	929	2220.251726652288	1
6	930	2222.551594434129	0
6	941	2250.829136781739	0
6	942	2263.005017536432	0
6	947	2287.03352692923	0
6	952	2293.011982120726	0
6	969	2332.989143500774	0
6	970	2333.385757112551	0
6	980	2351.711890123483	0
6	981	2355.264975224424	0
6	1011	2414.616886915989	0
6	1014	2421.907643712117	0
6	1017	2428.112985906692	0
6	1018	2429.821597465188	0
6	1024	2455.475700995089	0
6	1028	2463.575780159213	1
6	1030	2491.203118857694	2
6	1033	2495.999528876731	2
7	173	372.134798287112	7
7	182	382.649908763891	8
7	186	398.482874314802	9
7	237	526.025624377519	10
7	279	651.044778106652	11
7	290	661.777023052422	12
7	312	708.194431253089	13
7	326	748.671751164673	14
7	355	813.013988148062	15
7	371	847.032280305105	16
7	377	858.592490456884	17
7	391	884.394007217616	18
7	408	930.267922505825	19
7	411	937.320210880813	20
7	422	957.348168723608	21
7	450	1033.611678875363	22
7	453	1037.827955137379	23
7	462	1061.467071764612	24
7	466	1076.278973229815	25
7	501	1213.425459178936	26
7	522	1257.017597325605	27
7	526	1260.850513339229	28
7	537	1299.938347884687	29
7	595	1436.722330527041	30
7	610	1468.255254431895	31
7	679	1605.218858158374	32
7	706	1681.748549773511	33
7	709	1685.404964690379	34
7	736	1733.116417053337	35
7	739	1745.785983199229	36
7	752	1762.057885282339	37
7	755	1771.03123094636	38
7	772	1803.268513345241	39
7	820	1941.033560170089	40
7	900	2140.25473811134	41
7	941	2250.829136781739	42
7	947	2287.03352692923	43
7	969	2332.989143500774	44
7	980	2351.711890123483	45
7	1011	2414.616886915989	46
7	1017	2428.112985906692	47
7	1024	2455.475700995089	48
8	173	372.134798287112	0
8	182	382.649908763891	0
8	186	398.482874314802	0
8	206	452.623286576907	0
8	215	469.657341332736	0
8	218	476.563346583834	0
8	224	489.543105686646	0
8	237	526.025624377519	0
8	246	545.858240045104	10.06181297712
8	266	626.393968682192	0
8	279	651.044778106652	0
8	290	661.777023052422	0
8	301	689.136867266752	4.828788736896
8	312	708.194431253089	0
8	326	748.671751164673	0
8	355	813.013988148062	0
8	371	847.032280305105	0
8	377	858.592490456884	0
8	384	871.179720079897	9.983823302957
8	391	884.394007217616	0
8	408	930.267922505825	0
8	411	937.320210880813	0
8	422	957.348168723608	0
8	450	1033.611678875363	0
8	453	1037.827955137379	0
8	462	1061.467071764612	0
8	466	1076.278973229815	0
8	471	1078.764018377803	1.838985707911
8	479	1158.248829838364	0
8	484	1177.533964985512	16.475107008819
8	487	1179.412607550066	5.449729953313
8	490	1183.366743848196	3.265105130108
8	501	1213.425459178936	0
8	522	1257.017597325605	0
8	526	1260.850513339229	0
8	537	1299.938347884687	0
8	545	1326.453008205057	0
8	554	1347.463605427665	0
8	560	1351.210648716751	0
8	572	1385.198060931911	0
8	575	1403.276454880886	0
8	581	1419.17759583594	0
8	584	1422.002012796862	0
8	595	1436.722330527041	0
8	610	1468.255254431895	0
8	623	1486.728705151374	0
8	641	1524.308443310314	0
8	646	1536.756716870544	8.568187213393
8	649	1538.766241998294	3.419995886312
8	679	1605.218858158374	0
8	706	1681.748549773511	0
8	709	1685.404964690379	0
8	736	1733.116417053337	0
8	739	1745.785983199229	0
8	748	1751.81212417111	4.451830087631
8	752	1762.057885282339	0
8	755	1771.03123094636	0
8	772	1803.268513345241	0
8	779	1823.093721845296	7.25161976296
8	803	1899.469683830687	0
8	806	1905.327765826281	1.858717166989
8	812	1928.78649794723	0
8	820	1941.033560170089	0
8	824	1952.135829052273	0
8	827	1966.495807747824	0
8	840	1987.536749650174	19.662543429674
8	845	1995.202104269866	22.178444550727
8	848	1998.835680856841	24.185615830274
8	855	2010.931186886602	26.420280183956
8	856	2018.373365833651	33.505597887823
8	863	2031.88325177372	40.744044419502
8	864	2034.980127987012	32.298310569715
8	900	2140.25473811134	0
8	913	2162.817206635112	18.942089392724
8	920	2188.696730450378	39.68762790899
8	927	2214.344446147841	60.797196181123
8	928	2219.052987299852	56.96816976687
8	929	2220.251726652288	58.058109505114
8	941	2250.829136781739	0
8	947	2287.03352692923	0
8	969	2332.989143500774	0
8	980	2351.711890123483	0
8	1011	2414.616886915989	0
8	1017	2428.112985906692	0
8	1024	2455.475700995089	0
8	1033	2495.999528876731	32.423748717518
9	174	374.535239493951	22
9	183	392.950751242479	23
9	187	406.157799287823	24
9	209	456.17763824731	25
9	216	474.76078650636	26
9	221	481.674672036204	27
9	225	492.622882527465	28
9	246	545.858240045104	29
9	247	553.042873417174	30
9	269	630.168550640302	31
9	280	654.397878228363	32
9	301	689.136867266752	33
9	304	692.159240681164	34
9	313	713.768499189573	35
9	331	756.076756965231	36
9	356	813.751155768016	37
9	374	855.900734103982	38
9	384	871.179720079897	39
9	387	874.148719567003	40
9	392	886.17795560657	41
9	409	934.217894298366	42
9	412	943.381800357496	43
9	425	967.284037360226	44
9	451	1036.204364097618	45
9	456	1047.076078696418	46
9	463	1074.169023051987	47
9	471	1078.764018377803	48
9	472	1091.967830560578	49
9	484	1177.533964985512	50
9	487	1179.412607550066	51
9	490	1183.366743848196	52
9	491	1191.130533628801	53
9	506	1220.017098409598	54
9	523	1257.767755177486	55
9	527	1261.182295692788	56
9	538	1303.916766130551	57
9	548	1333.682711663034	58
9	555	1348.227731842515	59
9	561	1353.766677651118	60
9	573	1386.364294110359	61
9	576	1403.905077889316	62
9	582	1420.966392101506	63
9	585	1427.844650126597	64
9	602	1441.578704922938	65
9	611	1468.948443568143	66
9	624	1487.334639954066	67
9	646	1536.756716870544	68
9	649	1538.766241998294	69
9	650	1541.845782787796	70
9	680	1605.268167425795	71
9	707	1682.805471889468	72
9	716	1702.573350065009	73
9	737	1733.65476793533	74
9	748	1751.81212417111	75
9	749	1752.593184399368	76
9	753	1763.433220750968	77
9	756	1780.209375904193	78
9	779	1823.093721845296	79
9	780	1826.649589688125	80
9	806	1905.327765826281	81
9	807	1908.133493113788	82
9	813	1929.106414033607	83
9	821	1942.659753497338	84
9	825	1957.717188123766	85
9	840	1987.536749650174	86
9	845	1995.202104269866	87
9	848	1998.835680856841	88
9	855	2010.931186886602	89
9	856	2018.373365833651	90
9	863	2031.88325177372	91
9	864	2034.980127987012	92
9	865	2037.164112127871	93
9	913	2162.817206635112	94
9	920	2188.696730450378	95
9	927	2214.344446147841	96
9	928	2219.052987299852	97
9	929	2220.251726652288	98
9	930	2222.551594434129	99
9	942	2263.005017536432	100
9	952	2293.011982120726	101
9	970	2333.385757112551	102
9	981	2355.264975224424	103
9	1014	2421.907643712117	104
9	1018	2429.821597465188	105
9	1033	2495.999528876731	106
10	174	374.535239493951	2.400441206839
10	183	392.950751242479	10.300842478588
10	187	406.157799287823	7.674924973021
10	209	456.17763824731	3.554351670403
10	216	474.76078650636	5.103445173624
10	221	481.674672036204	5.11132545237
10	225	492.622882527465	3.079776840819
10	246	545.858240045104	19.832615667585
10	247	553.042873417174	17.24644634919
10	269	630.168550640302	3.77458195811
10	280	654.397878228363	3.353100121711
10	301	689.136867266752	27.35984421433
10	304	692.159240681164	7.851162151308
10	313	713.768499189573	5.574067936484
10	331	756.076756965231	7.405005800558
10	356	813.751155768016	0.737167619954
10	374	855.900734103982	8.868453798877
10	384	871.179720079897	12.587229623013
10	387	874.148719567003	12.952822790063
10	392	886.17795560657	1.783948388954
10	409	934.217894298366	3.949971792541
10	412	943.381800357496	6.061589476683
10	425	967.284037360226	9.935868636618
10	451	1036.204364097618	2.592685222255
10	456	1047.076078696418	9.248123559039
10	463	1074.169023051987	12.701951287375
10	471	1078.764018377803	2.485045147988
10	472	1091.967830560578	15.042797890686
10	484	1177.533964985512	19.285135147148
10	487	1179.412607550066	18.353749573373
10	490	1183.366743848196	9.403866251443
10	491	1191.130533628801	11.028894910713
10	506	1220.017098409598	6.591639230662
10	523	1257.767755177486	0.750157851881
10	527	1261.182295692788	0.331782353559
10	538	1303.916766130551	3.978418245864
10	548	1333.682711663034	7.229703457977
10	555	1348.227731842515	0.76412641485
10	561	1353.766677651118	2.556028934367
10	573	1386.364294110359	1.166233178448
10	576	1403.905077889316	0.62862300843
10	582	1420.966392101506	1.788796265566
10	585	1427.844650126597	5.842637329735
10	602	1441.578704922938	4.856374395897
10	611	1468.948443568143	0.693189136248
10	624	1487.334639954066	0.605934802692
10	646	1536.756716870544	12.44827356023
10	649	1538.766241998294	10.577712341143
10	650	1541.845782787796	6.499536675814
10	680	1605.268167425795	0.049309267421
10	707	1682.805471889468	1.056922115957
10	716	1702.573350065009	17.16838537463
10	737	1733.65476793533	0.538350881993
10	748	1751.81212417111	6.026140971881
10	749	1752.593184399368	5.232890315889
10	753	1763.433220750968	1.375335468629
10	756	1780.209375904193	9.178144957833
10	779	1823.093721845296	19.825208500055
10	780	1826.649589688125	10.807487605789
10	806	1905.327765826281	5.858081995594
10	807	1908.133493113788	4.664444454496
10	813	1929.106414033607	0.319916086377
10	821	1942.659753497338	1.626193327249
10	825	1957.717188123766	5.581359071493
10	840	1987.536749650174	21.04094190235
10	845	1995.202104269866	27.327898049366
10	848	1998.835680856841	25.812021137702
10	855	2010.931186886602	36.281121860035
10	856	2018.373365833651	33.862459131005
10	863	2031.88325177372	47.015483827892
10	864	2034.980127987012	43.840920632794
10	865	2037.164112127871	34.482294710574
10	913	2162.817206635112	22.562468523772
10	920	2188.696730450378	44.82161320799
10	927	2214.344446147841	65.335343606453
10	928	2219.052987299852	65.505737333134
10	929	2220.251726652288	58.166909119306
10	930	2222.551594434129	60.357977286955
10	942	2263.005017536432	12.175880754693
10	952	2293.011982120726	5.978455191496
10	970	2333.385757112551	0.396613611777
10	981	2355.264975224424	3.553085100941
10	1014	2421.907643712117	7.290756796128
10	1018	2429.821597465188	1.708611558496
10	1033	2495.999528876731	40.523827881642
11	1038	2500	0.0924
12	1038	2500	0.0424

