file 57568 1678560085                                           
version 2
run experiments_hard_game_mode1-584-20230311-19:41:25-7618
attr configname experiments_hard_game_mode1
attr datetime 20230311-19:41:25
attr experiment experiments_hard_game_mode1
attr inifile omnetpp.ini
attr iterationvars "$0=8, $1=7, $2=100"
attr iterationvarsf 8,7,100-
attr measurement "$0=8, $1=7, $2=100"
attr network Network
attr processid 7618
attr repetition 14
attr replication #14
attr resultdir results
attr runnumber 584
attr seedset 14
param *.boss.arrival_mean 20
param *.boss.service_mean 8
param *.minion.arrival_mean 10
param *.minion.service_mean 7
param *.player.recover_rate_x 100
param **.minion.arrival_distribution 0
param **.minion.service_distribution 0
param **.boss.arrival_distribution 0
param **.boss.service_distribution 0

vector 0 Network.player minion_jobs_number_stat:vector ETV
attr source signal_minion_jobs_number
vector 1 Network.player minion_jobs_queue_number_stat:vector ETV
attr source signal_minion_jobs_queue_number
vector 2 Network.player boss_defeated_stat:vector ETV
attr source signal_boss_defeated
vector 3 Network.player boss_jobs_queue_number_stat:vector ETV
attr source signal_boss_jobs_queue_number
vector 4 Network.player boss_response_time_stat:vector ETV
attr source signal_boss_response_time
vector 5 Network.player minion_waiting_time_stat:vector ETV
attr source signal_minion_waiting_time
vector 6 Network.player boss_jobs_number_stat:vector ETV
attr source signal_boss_jobs_number
vector 7 Network.player minion_recovered_stat:vector ETV
attr source signal_minion_recovered
vector 8 Network.player boss_waiting_time_stat:vector ETV
attr source signal_boss_waiting_time
vector 9 Network.player minion_defeated_stat:vector ETV
attr source signal_minion_defeated
vector 10 Network.player minion_response_time_stat:vector ETV
attr source signal_minion_response_time
vector 11 Network.player minion_throughput:vector ETV
attr source signal_minion_throughput
vector 12 Network.player boss_throughput:vector ETV
attr source signal_boss_throughput
0	2011 5459 135 1016 355.033945535691 2493.000563500548 206 1 49 5432 183160
1	7470 10006 135 1016 355.033945535691 2493.000563500548 379 0 48 9396 308220
2	17476 2676 136 1006 355.241223634241 2468.419358098661 100 15 114 6450 499350
3	20152 5096 136 1006 355.241223634241 2468.419358098661 199 0 2 74 94
4	25248 3891 136 1006 355.241223634241 2468.419358098661 100 0.290575424315 29.117546642014 1025.6174096921 15816.884448658
5	29139 9456 136 1014 355.241223634241 2492.876377022918 240 0 420.11713784899 45548.544999422 11825783.146641
6	38595 2535 138 1005 357.206506079018 2464.141668652333 99 1 3 136 220
7	41130 1760 138 1005 357.206506079018 2464.141668652333 66 10 75 2805 143165
8	42890 2955 138 1005 357.206506079018 2464.141668652333 99 0 25.584217977338 238.23590008596 2836.8652481374
9	45845 4684 144 1014 365.997526313734 2492.876377022918 173 20 192 18338 2375290
10	50529 6998 144 1014 365.997526313734 2492.876377022918 173 12.14787824812 420.79973720049 33881.704224464 8930133.4787214
11	57527 20 1017 1017 2500 2500 1 0.0768 0.0768 0.0768 0.00589824
12	57547 20 1017 1017 2500 2500 1 0.0456 0.0456 0.0456 0.00207936

