version 2
run experiments_hard_game_mode1-342-20230311-19:40:35-6380
attr configname experiments_hard_game_mode1
attr datetime 20230311-19:40:35
attr experiment experiments_hard_game_mode1
attr inifile omnetpp.ini
attr iterationvars "$0=8, $1=3, $2=100"
attr iterationvarsf 8,3,100-
attr measurement "$0=8, $1=3, $2=100"
attr network Network
attr processid 6380
attr repetition 12
attr replication #12
attr resultdir results
attr runnumber 342
attr seedset 12
param *.boss.arrival_mean 20
param *.boss.service_mean 8
param *.minion.arrival_mean 10
param *.minion.service_mean 3
param *.player.recover_rate_x 100
param **.minion.arrival_distribution 0
param **.minion.service_distribution 0
param **.boss.arrival_distribution 0
param **.boss.service_distribution 0

vector 0 Network.player minion_defeated_stat:vector ETV
attr source signal_minion_defeated
vector 1 Network.player minion_jobs_queue_number_stat:vector ETV
attr source signal_minion_jobs_queue_number
vector 2 Network.player minion_response_time_stat:vector ETV
attr source signal_minion_response_time
vector 3 Network.player boss_jobs_number_stat:vector ETV
attr source signal_boss_jobs_number
vector 4 Network.player boss_jobs_queue_number_stat:vector ETV
attr source signal_boss_jobs_queue_number
vector 5 Network.player boss_waiting_time_stat:vector ETV
attr source signal_boss_waiting_time
vector 6 Network.player minion_jobs_number_stat:vector ETV
attr source signal_minion_jobs_number
vector 7 Network.player boss_defeated_stat:vector ETV
attr source signal_boss_defeated
vector 8 Network.player boss_response_time_stat:vector ETV
attr source signal_boss_response_time
vector 9 Network.player minion_waiting_time_stat:vector ETV
attr source signal_minion_waiting_time
vector 10 Network.player minion_recovered_stat:vector ETV
attr source signal_minion_recovered
vector 11 Network.player minion_throughput:vector ETV
attr source signal_minion_throughput
vector 12 Network.player boss_throughput:vector ETV
attr source signal_boss_throughput
0	159	350.065589406582	37
0	200	398.999960708591	38
0	208	406.027290070529	39
0	209	408.080614612069	40
0	210	411.769603147996	41
0	213	413.95617854156	42
0	214	417.200545212021	43
0	221	437.284686180487	44
0	222	440.081818192201	45
0	225	449.123990704745	46
0	228	456.325552415182	47
0	229	457.642124635462	48
0	232	461.975382047054	49
0	233	463.613700403845	50
0	236	472.015628234353	51
0	237	472.869114783826	52
0	238	479.978482814037	53
0	241	480.433936345722	54
0	242	481.304708530993	55
0	243	482.518923262596	56
0	246	485.396961867021	57
0	252	511.74883590675	58
0	255	516.633825904508	59
0	262	523.820268118826	60
0	263	524.689292450424	61
0	264	525.376687920433	62
0	267	542.324547871995	63
0	274	556.331783221416	64
0	277	561.898629953095	65
0	278	562.419768938729	66
0	279	565.461433634022	67
0	292	578.29446525329	68
0	297	592.142289976445	69
0	302	602.149538885884	70
0	305	610.585750357154	71
0	306	613.363541779699	72
0	307	619.155320533825	73
0	314	637.722849707201	74
0	320	643.783243926039	75
0	323	645.616987991534	76
0	327	650.376956633555	77
0	333	669.220916107804	78
0	341	675.003611209332	79
0	344	679.205309316411	80
0	347	681.827691832765	81
0	348	689.602499984588	82
0	351	691.244199718784	83
0	360	729.611017197604	84
0	374	757.228131202389	85
0	375	761.66015166267	86
0	381	782.819344612566	87
0	384	786.743505839455	88
0	387	788.67046966195	89
0	393	813.448068441291	90
0	403	826.030192605342	91
0	404	828.379839785656	92
0	407	830.186275842279	93
0	418	857.542832264801	94
0	419	862.742758943123	95
0	422	870.105439749661	96
0	425	872.622288997534	97
0	426	875.980455260452	98
0	429	894.70989158735	99
0	438	905.740697383669	100
0	441	909.752243417437	101
0	452	931.903298140508	102
0	453	936.294314086566	103
0	458	939.116659881767	104
0	459	940.273072949986	105
0	475	965.008492566415	106
0	476	965.092022176153	107
0	477	968.023210427253	108
0	496	1023.360096697487	109
0	499	1030.564299814786	110
0	500	1031.450689845016	111
0	507	1043.802189653155	112
0	512	1048.599552539494	113
0	513	1048.734956016577	114
0	519	1059.945352904828	115
0	522	1071.626057852467	116
0	525	1080.178024941134	117
0	528	1088.705156424228	118
0	533	1093.955841346225	119
0	534	1096.169353399195	120
0	543	1141.85629193485	121
0	546	1161.787273641383	122
0	549	1173.520176459837	123
0	565	1214.561378274622	124
0	566	1215.475567993058	125
0	567	1222.96052547042	126
0	581	1241.745202658937	127
0	582	1242.694843568796	128
0	585	1255.947321790798	129
0	586	1260.246883466764	130
0	589	1262.953344435562	131
0	612	1301.21539000994	132
0	617	1307.544821846783	133
0	618	1307.991465409248	134
0	619	1311.967866066736	135
0	620	1316.004882951436	136
0	623	1318.969240644105	137
0	624	1319.583229238883	138
0	625	1322.337277514733	139
0	626	1327.269976968585	140
0	634	1340.293530136428	141
0	645	1370.572786656903	142
0	646	1374.820789091307	143
0	654	1389.942291875715	144
0	655	1392.350746522426	145
0	661	1402.753560179665	146
0	683	1446.764484758757	147
0	684	1446.968628049891	148
0	694	1456.378629431058	149
0	695	1456.581229713615	150
0	696	1458.910039274901	151
0	697	1462.637312790194	152
0	698	1464.233218272271	153
0	699	1470.202750581806	154
0	702	1477.10607104554	155
0	703	1477.149354498656	156
0	704	1479.416281018038	157
0	705	1481.758504177642	158
0	708	1489.062962008951	159
0	728	1526.628487150678	160
0	729	1531.522266182994	161
0	732	1533.926606455728	162
0	735	1536.433188851958	163
0	736	1538.188271651788	164
0	739	1545.968951169447	165
0	743	1547.742399982448	166
0	744	1549.358288331099	167
0	747	1554.385662178194	168
0	750	1558.259243737277	169
0	755	1563.977264270292	170
0	758	1568.039560407617	171
0	759	1568.168523514728	172
0	775	1629.389083428374	173
0	778	1634.796282026508	174
0	779	1638.086205002752	175
0	780	1640.257506491378	176
0	788	1654.014145726827	177
0	793	1655.830287634237	178
0	794	1656.678921145172	179
0	795	1657.910921540308	180
0	796	1660.045647651249	181
0	799	1664.890195091333	182
0	800	1673.48381237438	183
0	803	1676.626911516477	184
0	804	1679.057084456966	185
0	807	1692.63767591318	186
0	810	1714.006821324287	187
0	813	1728.131795427332	188
0	816	1732.618720211198	189
0	826	1743.203202772595	190
0	829	1745.224071946387	191
0	830	1745.514820381156	192
0	831	1748.314159473321	193
0	834	1753.660335850599	194
0	840	1797.242148652643	195
0	843	1804.691989888969	196
0	846	1818.46426885481	197
0	860	1853.150084091844	198
0	861	1854.486226861904	199
0	864	1865.250617316723	200
0	875	1896.930799917885	201
0	878	1899.829448039146	202
0	883	1904.813892773825	203
0	884	1908.736099616098	204
0	885	1910.185094153565	205
0	893	1942.433552277042	206
0	894	1943.883263267287	207
0	897	1945.83504113085	208
0	900	1957.676715686436	209
0	908	1979.497637302267	210
0	917	1984.918054138865	211
0	918	1986.945486994657	212
0	921	1991.405528989855	213
0	925	2002.936161596645	214
0	926	2004.456080967238	215
0	935	2014.345497085138	216
0	945	2025.127209731786	217
0	948	2034.120402091084	218
0	949	2036.560358671463	219
0	950	2039.312913496853	220
0	953	2047.301961527174	221
0	956	2052.033288190612	222
0	957	2053.686175226678	223
0	973	2088.100367149694	224
0	974	2089.635906189313	225
0	975	2091.440466079257	226
0	981	2105.193635436618	227
0	998	2158.023199621077	228
0	999	2162.809240424767	229
0	1015	2185.658509893472	230
0	1016	2185.837220884575	231
0	1017	2189.019496813106	232
0	1022	2191.51063828702	233
0	1023	2191.586392079022	234
0	1026	2192.841495656998	235
0	1027	2195.55152802318	236
0	1028	2196.695554436703	237
0	1029	2197.358044099798	238
0	1044	2234.405436877399	239
0	1045	2235.843007868016	240
0	1046	2237.427552810677	241
0	1047	2239.493407605668	242
0	1055	2293.988018585707	243
0	1060	2301.403388793643	244
0	1061	2302.028495915067	245
0	1064	2305.210360639039	246
0	1067	2313.241622060351	247
0	1071	2319.370178212144	248
0	1076	2336.317204634224	249
0	1077	2338.038413339938	250
0	1082	2360.921614053451	251
0	1083	2361.255166182121	252
0	1116	2445.929566397249	253
0	1117	2447.768479394844	254
0	1118	2452.793560344179	255
0	1119	2453.0974699504	256
0	1120	2456.092168960102	257
0	1121	2462.197133247883	258
0	1122	2462.617809243096	259
0	1125	2463.171430239951	260
0	1128	2463.369712764867	261
0	1129	2464.889690617596	262
0	1130	2467.447614305226	263
0	1131	2471.755203043132	264
0	1134	2488.876585000253	265
0	1137	2495.276229437172	266
0	1140	2499.376756902016	267
1	159	350.065589406582	0
1	163	356.275138873474	0
1	168	361.531743559315	1
1	170	367.553763951342	2
1	174	368.970575265093	3
1	178	379.927922828233	4
1	180	380.306087155442	5
1	184	382.080972587445	6
1	186	382.936418932786	7
1	188	387.510257431181	8
1	192	389.911119545815	9
1	196	393.455530514951	10
1	200	398.999960708591	10
1	204	401.335149171264	10
1	206	401.485334148296	11
1	208	406.027290070529	11
1	209	408.080614612069	10
1	210	411.769603147996	9
1	212	412.129365972685	9
1	213	413.95617854156	9
1	214	417.200545212021	8
1	221	437.284686180487	7
1	222	440.081818192201	6
1	224	446.532072824088	6
1	225	449.123990704745	6
1	227	455.418534664674	6
1	228	456.325552415182	6
1	229	457.642124635462	5
1	231	459.485586021208	5
1	232	461.975382047054	5
1	233	463.613700403845	4
1	235	468.041860974414	4
1	236	472.015628234353	4
1	237	472.869114783826	3
1	238	479.978482814037	2
1	240	480.239443259427	2
1	241	480.433936345722	2
1	242	481.304708530993	1
1	243	482.518923262596	0
1	245	484.314394665896	0
1	246	485.396961867021	0
1	251	511.606946428544	0
1	252	511.74883590675	0
1	254	516.396541660431	0
1	255	516.633825904508	0
1	257	517.029377089414	0
1	259	522.165015742967	1
1	261	523.706183755885	2
1	262	523.820268118826	2
1	263	524.689292450424	1
1	264	525.376687920433	0
1	266	535.079449780043	0
1	267	542.324547871995	0
1	269	542.924549707891	0
1	271	544.504856593887	1
1	273	545.10126394541	2
1	274	556.331783221416	2
1	276	560.650013804625	2
1	277	561.898629953095	2
1	278	562.419768938729	1
1	279	565.461433634022	0
1	283	571.503968412171	0
1	285	571.885422676681	1
1	291	576.531670043592	2
1	292	578.29446525329	2
1	294	586.041278199781	2
1	296	591.842793986612	3
1	297	592.142289976445	3
1	299	593.492340352836	3
1	301	593.822627101554	4
1	302	602.149538885884	4
1	304	608.601332355442	4
1	305	610.585750357154	4
1	306	613.363541779699	3
1	307	619.155320533825	2
1	314	637.722849707201	1
1	316	642.500478591344	1
1	320	643.783243926039	1
1	322	645.553767806205	1
1	323	645.616987991534	1
1	327	650.376956633555	0
1	331	658.72291101783	0
1	333	669.220916107804	0
1	338	673.50565802358	0
1	340	674.664452820824	1
1	341	675.003611209332	1
1	343	678.053537741583	1
1	344	679.205309316411	1
1	346	679.276270559373	1
1	347	681.827691832765	1
1	348	689.602499984588	0
1	350	689.822589290019	0
1	351	691.244199718784	0
1	359	722.812043553386	0
1	360	729.611017197604	0
1	367	752.887833589075	0
1	372	754.865825694057	1
1	374	757.228131202389	1
1	375	761.66015166267	0
1	379	779.934200981398	0
1	381	782.819344612566	0
1	383	786.323076486688	0
1	384	786.743505839455	0
1	386	788.123718112885	0
1	387	788.67046966195	0
1	392	811.826066980366	0
1	393	813.448068441291	0
1	395	815.947848581462	0
1	397	820.44480297725	1
1	399	821.388645718781	2
1	403	826.030192605342	2
1	404	828.379839785656	1
1	406	828.891794095329	1
1	407	830.186275842279	1
1	411	840.695604552115	1
1	417	857.256330799712	2
1	418	857.542832264801	2
1	419	862.742758943123	1
1	421	868.648008226734	1
1	422	870.105439749661	1
1	424	870.702630473908	1
1	425	872.622288997534	1
1	426	875.980455260452	0
1	428	894.689810098196	0
1	429	894.70989158735	0
1	435	903.133171413273	0
1	438	905.740697383669	0
1	440	906.787099258618	0
1	441	909.752243417437	0
1	447	924.958018129097	0
1	449	926.96826182913	1
1	452	931.903298140508	1
1	453	936.294314086566	0
1	455	938.47093182519	0
1	457	938.824901339621	1
1	458	939.116659881767	1
1	459	940.273072949986	0
1	467	946.970759347724	0
1	471	951.594273986105	1
1	473	958.366921324126	2
1	475	965.008492566415	2
1	476	965.092022176153	1
1	477	968.023210427253	0
1	486	991.294130417434	0
1	492	1007.904452093689	1
1	494	1016.561505806223	2
1	496	1023.360096697487	2
1	498	1023.68614644825	2
1	499	1030.564299814786	2
1	500	1031.450689845016	1
1	507	1043.802189653155	0
1	509	1045.719007057478	0
1	511	1046.141772985728	1
1	512	1048.599552539494	1
1	513	1048.734956016577	0
1	517	1053.433658907636	0
1	519	1059.945352904828	0
1	521	1067.124123066431	0
1	522	1071.626057852467	0
1	524	1080.147366110922	0
1	525	1080.178024941134	0
1	527	1085.663846851348	0
1	528	1088.705156424228	0
1	530	1090.489287960552	0
1	532	1092.101482329185	1
1	533	1093.955841346225	1
1	534	1096.169353399195	0
1	541	1140.083382758178	0
1	543	1141.85629193485	0
1	545	1160.613482617548	0
1	546	1161.787273641383	0
1	548	1165.599748141268	0
1	549	1173.520176459837	0
1	555	1184.832306587143	0
1	557	1186.37157715356	1
1	563	1211.343419140701	2
1	565	1214.561378274622	2
1	566	1215.475567993058	1
1	567	1222.96052547042	0
1	569	1235.09717362252	0
1	571	1236.164658714414	1
1	573	1236.791656967319	2
1	578	1240.13416520579	3
1	580	1241.095342600622	4
1	581	1241.745202658937	4
1	582	1242.694843568796	3
1	584	1255.132693136419	3
1	585	1255.947321790798	3
1	586	1260.246883466764	2
1	588	1261.420735924344	2
1	589	1262.953344435562	2
1	593	1265.523657481921	2
1	595	1265.53163369834	3
1	599	1269.672344984342	4
1	606	1281.365090834462	5
1	611	1299.931884046393	6
1	612	1301.21539000994	6
1	614	1304.724605843547	6
1	616	1305.322714708422	7
1	617	1307.544821846783	7
1	618	1307.991465409248	6
1	619	1311.967866066736	5
1	620	1316.004882951436	4
1	622	1317.789257898108	4
1	623	1318.969240644105	4
1	624	1319.583229238883	3
1	625	1322.337277514733	2
1	626	1327.269976968585	1
1	628	1330.070538396107	1
1	633	1339.403950450485	2
1	634	1340.293530136428	2
1	636	1341.489957657103	2
1	643	1367.584745697833	3
1	645	1370.572786656903	3
1	646	1374.820789091307	2
1	650	1380.920423930158	2
1	652	1381.753183424919	3
1	654	1389.942291875715	3
1	655	1392.350746522426	2
1	660	1402.299300518417	2
1	661	1402.753560179665	2
1	665	1411.883606823326	2
1	667	1412.663953516089	3
1	669	1421.810878278908	4
1	671	1422.579160929986	5
1	676	1426.932312804626	6
1	682	1446.708472722902	7
1	683	1446.764484758757	7
1	684	1446.968628049891	6
1	689	1450.82885761971	6
1	691	1455.574463608922	7
1	693	1455.730999947189	8
1	694	1456.378629431058	8
1	695	1456.581229713615	7
1	696	1458.910039274901	6
1	697	1462.637312790194	5
1	698	1464.233218272271	4
1	699	1470.202750581806	3
1	701	1471.269624064226	3
1	702	1477.10607104554	3
1	703	1477.149354498656	2
1	704	1479.416281018038	1
1	705	1481.758504177642	0
1	707	1489.047028911997	0
1	708	1489.062962008951	0
1	714	1501.003251163954	0
1	717	1514.643396132198	1
1	719	1515.115288514532	2
1	721	1519.425740557147	3
1	725	1524.898422388147	4
1	728	1526.628487150678	4
1	729	1531.522266182994	3
1	731	1531.528094648684	3
1	732	1533.926606455728	3
1	734	1535.210731051848	3
1	735	1536.433188851958	3
1	736	1538.188271651788	2
1	738	1543.742296043003	2
1	739	1545.968951169447	2
1	743	1547.742399982448	1
1	744	1549.358288331099	0
1	746	1554.127229392814	0
1	747	1554.385662178194	0
1	749	1557.389591053862	0
1	750	1558.259243737277	0
1	752	1559.510693161534	0
1	754	1562.792788404847	1
1	755	1563.977264270292	1
1	757	1567.742571124257	1
1	758	1568.039560407617	1
1	759	1568.168523514728	0
1	763	1609.196141096314	0
1	765	1610.986066775387	1
1	767	1616.904226737302	2
1	769	1623.299458895717	3
1	771	1623.989388436137	4
1	773	1626.095454983176	5
1	775	1629.389083428374	5
1	777	1630.575454856278	5
1	778	1634.796282026508	5
1	779	1638.086205002752	4
1	780	1640.257506491378	3
1	784	1649.186861691882	3
1	786	1649.593474439688	4
1	788	1654.014145726827	4
1	790	1654.678995133334	4
1	792	1654.924764420721	5
1	793	1655.830287634237	5
1	794	1656.678921145172	4
1	795	1657.910921540308	3
1	796	1660.045647651249	2
1	798	1660.428087577648	2
1	799	1664.890195091333	2
1	800	1673.48381237438	1
1	802	1676.477283815076	1
1	803	1676.626911516477	1
1	804	1679.057084456966	0
1	806	1690.768281401143	0
1	807	1692.63767591318	0
1	809	1707.193064526369	0
1	810	1714.006821324287	0
1	812	1726.215648249001	0
1	813	1728.131795427332	0
1	815	1729.345563490037	0
1	816	1732.618720211198	0
1	821	1737.490455389247	0
1	823	1740.254922656132	1
1	825	1741.252134770375	2
1	826	1743.203202772595	2
1	828	1744.241500984743	2
1	829	1745.224071946387	2
1	830	1745.514820381156	1
1	831	1748.314159473321	0
1	833	1752.815041703053	0
1	834	1753.660335850599	0
1	839	1797.208591200755	0
1	840	1797.242148652643	0
1	842	1804.485709461222	0
1	843	1804.691989888969	0
1	845	1817.024796108276	0
1	846	1818.46426885481	0
1	850	1822.667217348664	0
1	852	1832.014805444614	1
1	860	1853.150084091844	1
1	861	1854.486226861904	0
1	863	1863.728023762385	0
1	864	1865.250617316723	0
1	868	1890.325002330053	0
1	873	1892.911421496219	1
1	875	1896.930799917885	1
1	877	1897.909856720685	1
1	878	1899.829448039146	1
1	880	1900.228729364245	1
1	882	1902.394972575954	2
1	883	1904.813892773825	2
1	884	1908.736099616098	1
1	885	1910.185094153565	0
1	889	1923.105917349807	0
1	891	1936.930188235271	1
1	893	1942.433552277042	1
1	894	1943.883263267287	0
1	896	1945.527027404059	0
1	897	1945.83504113085	0
1	899	1951.529515973467	0
1	900	1957.676715686436	0
1	905	1978.121877551877	0
1	907	1979.34124746618	1
1	908	1979.497637302267	1
1	910	1979.762433639967	1
1	912	1980.054325816748	2
1	914	1980.804055573983	3
1	916	1984.075517845662	4
1	917	1984.918054138865	4
1	918	1986.945486994657	3
1	920	1987.134381859309	3
1	921	1991.405528989855	3
1	925	2002.936161596645	2
1	926	2004.456080967238	1
1	928	2004.51657132158	1
1	935	2014.345497085138	1
1	939	2016.414489280249	1
1	941	2019.355225779663	2
1	944	2021.296189842671	3
1	945	2025.127209731786	3
1	947	2027.04262790873	3
1	948	2034.120402091084	3
1	949	2036.560358671463	2
1	950	2039.312913496853	1
1	952	2046.560566042738	1
1	953	2047.301961527174	1
1	955	2049.309392990112	1
1	956	2052.033288190612	1
1	957	2053.686175226678	0
1	959	2061.485768394387	0
1	963	2066.837198190048	1
1	968	2079.137475032824	2
1	973	2088.100367149694	2
1	974	2089.635906189313	1
1	975	2091.440466079257	0
1	979	2104.013738594891	0
1	981	2105.193635436618	0
1	994	2153.081210459794	0
1	997	2156.356740043825	1
1	998	2158.023199621077	1
1	999	2162.809240424767	0
1	1003	2173.045091011533	0
1	1005	2173.616005250678	1
1	1007	2175.034293339372	2
1	1009	2177.084121156678	3
1	1012	2180.5173811797	4
1	1014	2181.868862810189	5
1	1015	2185.658509893472	5
1	1016	2185.837220884575	4
1	1017	2189.019496813106	3
1	1019	2189.076723022662	3
1	1021	2190.77130714992	4
1	1022	2191.51063828702	4
1	1023	2191.586392079022	3
1	1025	2192.37424995934	3
1	1026	2192.841495656998	3
1	1027	2195.55152802318	2
1	1028	2196.695554436703	1
1	1029	2197.358044099798	0
1	1035	2219.717478738328	0
1	1037	2221.871233968395	1
1	1040	2230.071724645932	2
1	1042	2230.935555957897	3
1	1044	2234.405436877399	3
1	1045	2235.843007868016	2
1	1046	2237.427552810677	1
1	1047	2239.493407605668	0
1	1051	2282.93439780404	0
1	1053	2285.416402302551	1
1	1055	2293.988018585707	1
1	1057	2298.293892914577	1
1	1059	2299.2747170942	2
1	1060	2301.403388793643	2
1	1061	2302.028495915067	1
1	1063	2303.439979488083	1
1	1064	2305.210360639039	1
1	1066	2305.47910729848	1
1	1067	2313.241622060351	1
1	1071	2319.370178212144	0
1	1073	2332.303734596903	0
1	1075	2334.907025363425	1
1	1076	2336.317204634224	1
1	1077	2338.038413339938	0
1	1079	2357.875581853046	0
1	1081	2359.875021229818	1
1	1082	2360.921614053451	1
1	1083	2361.255166182121	0
1	1085	2395.018293745815	0
1	1089	2396.55827791462	1
1	1093	2404.75453472669	2
1	1101	2426.276812347666	3
1	1103	2430.731895255457	4
1	1106	2436.181161132906	5
1	1109	2441.666214032224	6
1	1111	2442.032794299837	7
1	1113	2443.172972015987	8
1	1115	2444.959135336682	9
1	1116	2445.929566397249	9
1	1117	2447.768479394844	8
1	1118	2452.793560344179	7
1	1119	2453.0974699504	6
1	1120	2456.092168960102	5
1	1121	2462.197133247883	4
1	1122	2462.617809243096	3
1	1124	2462.964472082763	3
1	1125	2463.171430239951	3
1	1127	2463.231614912147	3
1	1128	2463.369712764867	3
1	1129	2464.889690617596	2
1	1130	2467.447614305226	1
1	1131	2471.755203043132	0
1	1133	2487.671983780769	0
1	1134	2488.876585000253	0
1	1136	2494.931331030283	0
1	1137	2495.276229437172	0
1	1139	2498.796688845567	0
1	1140	2499.376756902016	0
2	159	350.065589406582	1.026786010876
2	200	398.999960708591	37.468217149276
2	208	406.027290070529	37.056714805436
2	209	408.080614612069	28.152691783836
2	210	411.769603147996	31.463515992554
2	213	413.95617854156	33.604178126679
2	214	417.200545212021	35.119572624576
2	221	437.284686180487	49.774428749306
2	222	440.081818192201	50.170698646386
2	225	449.123990704745	55.668460189794
2	228	456.325552415182	55.898376414135
2	229	457.642124635462	56.306975464198
2	232	461.975382047054	60.490047898758
2	233	463.613700403845	51.48433443116
2	236	472.015628234353	53.524749477185
2	237	472.869114783826	26.337041959738
2	238	479.978482814037	24.559948149363
2	241	480.433936345722	20.948350324514
2	242	481.304708530993	13.262847556579
2	243	482.518923262596	2.279480003169
2	246	485.396961867021	1.082567201125
2	252	511.74883590675	0.141889478206
2	255	516.633825904508	0.237284244077
2	262	523.820268118826	6.790891029412
2	263	524.689292450424	2.524276707457
2	264	525.376687920433	1.670504164548
2	267	542.324547871995	7.245098091952
2	274	556.331783221416	13.407233513525
2	277	561.898629953095	17.393773359208
2	278	562.419768938729	17.318504993319
2	279	565.461433634022	4.811419829397
2	292	578.29446525329	6.790496841119
2	297	592.142289976445	20.256867299764
2	302	602.149538885884	25.617868842292
2	305	610.585750357154	24.544472157373
2	306	613.363541779699	21.520747793087
2	307	619.155320533825	25.662980180989
2	314	637.722849707201	17.731979879537
2	320	643.783243926039	1.282765334695
2	323	645.616987991534	2.247329665167
2	327	650.376956633555	1.543704116441
2	333	669.220916107804	10.498005089974
2	341	675.003611209332	1.497953185752
2	344	679.205309316411	4.540856495587
2	347	681.827691832765	3.774154091182
2	348	689.602499984588	10.326229425215
2	351	691.244199718784	1.421610428765
2	360	729.611017197604	6.798973644218
2	374	757.228131202389	4.340297613314
2	375	761.66015166267	6.794325968613
2	381	782.819344612566	2.885143631168
2	384	786.743505839455	0.420429352767
2	387	788.67046966195	0.546751549065
2	393	813.448068441291	1.622001460925
2	403	826.030192605342	5.585389628092
2	404	828.379839785656	6.991194066875
2	407	830.186275842279	8.452005299857
2	418	857.542832264801	20.957463987801
2	419	862.742758943123	22.047154391008
2	422	870.105439749661	12.849108949949
2	425	872.622288997534	3.9742807708
2	426	875.980455260452	5.277824786544
2	429	894.70989158735	0.020081489154
2	438	905.740697383669	2.607525970396
2	441	909.752243417437	2.965144158819
2	452	931.903298140508	6.945280011411
2	453	936.294314086566	9.326052257436
2	458	939.116659881767	0.645728056577
2	459	940.273072949986	1.448171610365
2	475	965.008492566415	18.037733218691
2	476	965.092022176153	13.497748190048
2	477	968.023210427253	9.656289103127
2	496	1023.360096697487	32.065966280053
2	499	1030.564299814786	22.659847721097
2	500	1031.450689845016	14.889184038793
2	507	1043.802189653155	12.303585318636
2	512	1048.599552539494	2.880545482016
2	513	1048.734956016577	2.593183030849
2	519	1059.945352904828	6.511693997192
2	522	1071.626057852467	4.501934786036
2	525	1080.178024941134	0.030658830212
2	528	1088.705156424228	3.04130957288
2	533	1093.955841346225	3.466553385673
2	534	1096.169353399195	4.06787107001
2	543	1141.85629193485	1.772909176672
2	546	1161.787273641383	1.173791023835
2	549	1173.520176459837	7.920428318569
2	565	1214.561378274622	28.189801121062
2	566	1215.475567993058	7.554496684407
2	567	1222.96052547042	11.617106329719
2	581	1241.745202658937	5.580543944523
2	582	1242.694843568796	5.903186601477
2	585	1255.947321790798	18.354917251561
2	586	1260.246883466764	20.112718260974
2	589	1262.953344435562	21.85800183494
2	612	1301.21539000994	39.794654085596
2	617	1307.544821846783	43.565671289598
2	618	1307.991465409248	42.467807927327
2	619	1311.967866066736	46.436232368396
2	620	1316.004882951436	46.332537967094
2	623	1318.969240644105	37.604149809643
2	624	1319.583229238883	19.65134519249
2	625	1322.337277514733	17.612671671186
2	626	1327.269976968585	21.947262260163
2	634	1340.293530136428	10.222991740321
2	645	1370.572786656903	29.0828289998
2	646	1374.820789091307	32.385224052708
2	654	1389.942291875715	22.357546177882
2	655	1392.350746522426	17.041161018021
2	661	1402.753560179665	21.000376754746
2	683	1446.764484758757	41.987058242667
2	684	1446.968628049891	35.085021226565
2	694	1456.378629431058	34.56775115215
2	695	1456.581229713615	34.002068783629
2	696	1458.910039274901	33.140977263391
2	697	1462.637312790194	35.704999985568
2	698	1464.233218272271	17.524745549369
2	699	1470.202750581806	21.554531079325
2	702	1477.10607104554	26.27721342583
2	703	1477.149354498656	21.574890889734
2	704	1479.416281018038	23.685281070849
2	705	1481.758504177642	10.488880113416
2	708	1489.062962008951	0.015933096954
2	728	1526.628487150678	25.625235986724
2	729	1531.522266182994	16.878870050796
2	732	1533.926606455728	18.811317941196
2	735	1536.433188851958	17.007448294811
2	736	1538.188271651788	13.289849263641
2	739	1545.968951169447	14.440856520763
2	743	1547.742399982448	4.000103939445
2	744	1549.358288331099	3.091856970105
2	747	1554.385662178194	0.25843278538
2	750	1558.259243737277	0.869652683415
2	755	1563.977264270292	4.466571108758
2	758	1568.039560407617	5.24677200277
2	759	1568.168523514728	0.425952390471
2	775	1629.389083428374	20.19294233206
2	778	1634.796282026508	23.810215251121
2	779	1638.086205002752	21.18197826545
2	780	1640.257506491378	16.958047595661
2	788	1654.014145726827	27.918690743651
2	793	1655.830287634237	25.254832777959
2	794	1656.678921145172	16.255717071372
2	795	1657.910921540308	8.724059848426
2	796	1660.045647651249	10.452173211561
2	799	1664.890195091333	10.211199957999
2	800	1673.48381237438	18.559047953659
2	803	1676.626911516477	16.198823938829
2	804	1679.057084456966	2.57980064189
2	807	1692.63767591318	1.869394512037
2	810	1714.006821324287	6.813756797918
2	813	1728.131795427332	1.916147178331
2	816	1732.618720211198	3.273156721161
2	826	1743.203202772595	5.712747383348
2	829	1745.224071946387	4.969149290255
2	830	1745.514820381156	4.262685610781
2	831	1748.314159473321	4.072658488578
2	834	1753.660335850599	0.845294147546
2	840	1797.242148652643	0.033557451888
2	843	1804.691989888969	0.206280427747
2	846	1818.46426885481	1.439472746534
2	860	1853.150084091844	30.48286674318
2	861	1854.486226861904	22.47142141729
2	864	1865.250617316723	1.522593554338
2	875	1896.930799917885	5.712527101471
2	878	1899.829448039146	6.918026542927
2	883	1904.813892773825	6.90403605314
2	884	1908.736099616098	8.507370251853
2	885	1910.185094153565	7.790121577611
2	893	1942.433552277042	19.327634927235
2	894	1943.883263267287	6.953075032016
2	897	1945.83504113085	0.308013726791
2	900	1957.676715686436	6.147199712969
2	908	1979.497637302267	1.37575975039
2	917	1984.918054138865	5.576806672685
2	918	1986.945486994657	7.18305335469
2	921	1991.405528989855	11.351203173107
2	925	2002.936161596645	18.860643750983
2	926	2004.456080967238	17.321699107929
2	935	2014.345497085138	8.920413791711
2	945	2025.127209731786	10.176291838168
2	948	2034.120402091084	17.705912810835
2	949	2036.560358671463	17.2051328918
2	950	2039.312913496853	18.016723654182
2	953	2047.301961527174	20.259333618444
2	956	2052.033288190612	5.472722147874
2	957	2053.686175226678	4.376782236566
2	973	2088.100367149694	21.263168959646
2	974	2089.635906189313	20.120054431035
2	975	2091.440466079257	12.302991046433
2	981	2105.193635436618	1.179896841727
2	998	2158.023199621077	4.941989161283
2	999	2162.809240424767	6.452500380942
2	1015	2185.658509893472	12.613418881939
2	1016	2185.837220884575	12.221215633897
2	1017	2189.019496813106	13.985203473734
2	1022	2191.51063828702	14.426517130342
2	1023	2191.586392079022	11.069010899322
2	1026	2192.841495656998	10.972632846809
2	1027	2195.55152802318	6.474805000518
2	1028	2196.695554436703	5.924247286783
2	1029	2197.358044099798	4.983794140458
2	1044	2234.405436877399	14.687958139071
2	1045	2235.843007868016	13.971773899621
2	1046	2237.427552810677	7.355828164745
2	1047	2239.493407605668	8.557851647771
2	1055	2293.988018585707	11.053620781667
2	1060	2301.403388793643	15.986986491092
2	1061	2302.028495915067	3.73460300049
2	1064	2305.210360639039	5.935643544839
2	1067	2313.241622060351	9.801642572268
2	1071	2319.370178212144	4.963576373842
2	1076	2336.317204634224	4.013470037321
2	1077	2338.038413339938	3.131387976513
2	1082	2360.921614053451	3.046032200405
2	1083	2361.255166182121	1.380144952303
2	1116	2445.929566397249	49.776815567392
2	1117	2447.768479394844	51.210201480224
2	1118	2452.793560344179	48.039025617489
2	1119	2453.0974699504	26.820657602734
2	1120	2456.092168960102	25.360273704645
2	1121	2462.197133247883	26.015972114977
2	1122	2462.617809243096	20.951595210872
2	1125	2463.171430239951	21.138635940114
2	1128	2463.369712764867	20.19674074888
2	1129	2464.889690617596	19.930555280914
2	1130	2467.447614305226	4.483142222463
2	1131	2471.755203043132	8.523588130985
2	1134	2488.876585000253	1.204601219484
2	1137	2495.276229437172	0.344898406889
2	1140	2499.376756902016	0.580068056449
3	161	353.492191333855	1
3	166	361.358890033519	1
3	172	368.78043457168	2
3	182	380.352000414881	1
3	190	388.861516406107	2
3	194	391.757141693541	3
3	202	400.427176001047	1
3	216	418.490878757168	1
3	218	421.634878531556	2
3	248	498.166435993675	1
3	281	570.157955171208	1
3	287	572.013697630046	2
3	309	619.990869827664	1
3	312	626.951996879465	1
3	318	643.369658326367	1
3	325	648.833252517114	1
3	329	656.358877459783	1
3	335	670.89757570658	1
3	353	714.718457972752	1
3	355	715.659682895607	2
3	362	738.112029162346	1
3	365	744.260440483758	1
3	369	754.18205261004	2
3	377	776.438308007573	1
3	389	790.590701076314	1
3	401	821.734270542422	1
3	409	836.585368277	1
3	413	845.649693670463	2
3	431	898.271736045084	1
3	433	900.679632703256	2
3	443	917.623000115617	1
3	445	921.272436396995	2
3	461	943.345188572361	1
3	463	943.713555040912	2
3	465	944.787028829265	3
3	479	975.864205792521	1
3	481	983.786107803526	2
3	484	990.276985011205	2
3	488	991.438078315617	3
3	502	1031.498604334519	1
3	504	1035.463420870607	2
3	515	1050.509505621411	1
3	536	1102.565256430476	1
3	539	1126.178327443082	1
3	551	1181.795656424566	1
3	553	1182.879317771439	2
3	561	1207.921071308651	1
3	575	1237.592404539237	1
3	591	1263.979150557185	1
3	597	1268.471674512885	2
3	602	1280.860231261121	2
3	604	1281.213159268324	3
3	630	1334.781804229055	1
3	638	1342.435565038599	1
3	641	1352.867238912116	1
3	648	1375.309585504405	1
3	657	1398.299642162285	1
3	663	1404.77742651609	1
3	674	1425.76906201151	1
3	678	1430.384050855711	2
3	686	1448.648219502481	1
3	710	1492.015021764522	1
3	712	1497.036609395997	2
3	723	1523.329877500482	2
3	741	1546.266431360994	1
3	761	1598.33928803856	1
3	782	1640.4232040738	1
3	818	1735.467369980249	1
3	836	1767.330518862194	1
3	848	1822.296353712127	1
3	854	1833.60911008917	2
3	856	1837.832209965198	3
3	866	1887.823250840407	1
3	871	1891.218272816414	1
3	887	1921.668223527153	1
3	902	1967.396434143435	1
3	923	1993.270757791483	1
3	930	2005.425083293427	1
3	933	2008.092390160378	1
3	937	2014.950917893618	1
3	961	2064.563262874183	1
3	966	2069.515851758278	1
3	970	2079.326869143163	2
3	977	2103.346587578668	1
3	983	2110.335738409846	1
3	986	2125.044740041305	1
3	989	2144.225125355446	1
3	992	2150.527057442777	1
3	1001	2163.143513135241	1
3	1031	2210.697394252604	1
3	1033	2216.593915740708	2
3	1049	2277.88009486364	1
3	1069	2314.406601838302	1
3	1087	2396.152750829857	1
3	1091	2400.088119842539	2
3	1095	2414.679708258506	3
3	1097	2419.832186906069	4
4	161	353.492191333855	0
4	164	360.624852924544	0
4	166	361.358890033519	0
4	172	368.78043457168	1
4	175	373.862420552585	1
4	176	379.214675634746	0
4	182	380.352000414881	0
4	190	388.861516406107	1
4	194	391.757141693541	2
4	197	394.911869929315	2
4	198	396.444480432054	1
4	199	397.877345565474	0
4	202	400.427176001047	0
4	207	402.396248124813	0
4	216	418.490878757168	0
4	218	421.634878531556	1
4	219	426.917654738831	1
4	220	435.24218785115	0
4	248	498.166435993675	0
4	249	504.332305973129	0
4	281	570.157955171208	0
4	287	572.013697630046	1
4	288	572.457613665873	1
4	289	573.46323135519	0
4	309	619.990869827664	0
4	310	624.215295011786	0
4	312	626.951996879465	0
4	313	634.508144074484	0
4	318	643.369658326367	0
4	319	643.7608762825	0
4	325	648.833252517114	0
4	326	650.235719122732	0
4	329	656.358877459783	0
4	332	659.486031261768	0
4	335	670.89757570658	0
4	336	672.605286247089	0
4	353	714.718457972752	0
4	355	715.659682895607	1
4	356	717.48322758809	1
4	357	718.990019404957	0
4	362	738.112029162346	0
4	363	742.828245828329	0
4	365	744.260440483758	0
4	369	754.18205261004	1
4	370	754.766979233062	1
4	373	755.264321586061	0
4	377	776.438308007573	0
4	380	781.473735864113	0
4	389	790.590701076314	0
4	390	801.830878652898	0
4	401	821.734270542422	0
4	402	826.015614375819	0
4	409	836.585368277	0
4	413	845.649693670463	1
4	414	847.021928239011	1
4	415	847.272264793066	0
4	431	898.271736045084	0
4	433	900.679632703256	1
4	436	904.926614745706	1
4	437	905.411025915921	0
4	443	917.623000115617	0
4	445	921.272436396995	1
4	450	927.640504396629	1
4	451	929.509849680839	0
4	461	943.345188572361	0
4	463	943.713555040912	1
4	465	944.787028829265	2
4	468	950.330197287088	2
4	469	950.479022316336	1
4	474	958.63312435906	0
4	479	975.864205792521	0
4	481	983.786107803526	1
4	482	985.581756591086	1
4	484	990.276985011205	1
4	488	991.438078315617	2
4	489	998.267478066846	2
4	490	1006.784098751368	1
4	495	1023.07457661575	0
4	502	1031.498604334519	0
4	504	1035.463420870607	1
4	505	1036.544623844487	1
4	506	1039.99078748336	0
4	515	1050.509505621411	0
4	518	1054.607755671615	0
4	536	1102.565256430476	0
4	537	1105.5094518681	0
4	539	1126.178327443082	0
4	542	1141.414021339516	0
4	551	1181.795656424566	0
4	553	1182.879317771439	1
4	558	1189.200809718254	1
4	559	1206.936309058869	0
4	561	1207.921071308651	0
4	564	1211.644680094491	0
4	575	1237.592404539237	0
4	576	1237.813931555112	0
4	591	1263.979150557185	0
4	597	1268.471674512885	1
4	600	1279.926708246016	1
4	602	1280.860231261121	1
4	604	1281.213159268324	2
4	607	1288.385528609449	2
4	608	1298.332601140745	1
4	609	1298.9962018288	0
4	630	1334.781804229055	0
4	631	1339.18148019762	0
4	638	1342.435565038599	0
4	639	1351.917564620554	0
4	641	1352.867238912116	0
4	644	1369.642150308832	0
4	648	1375.309585504405	0
4	653	1386.655064532836	0
4	657	1398.299642162285	0
4	658	1398.453946347833	0
4	663	1404.77742651609	0
4	672	1425.478378329917	0
4	674	1425.76906201151	0
4	678	1430.384050855711	1
4	679	1430.662678727821	1
4	680	1446.474390224532	0
4	686	1448.648219502481	0
4	687	1450.130318914426	0
4	710	1492.015021764522	0
4	712	1497.036609395997	1
4	715	1511.570516921471	1
4	723	1523.329877500482	1
4	726	1526.376212000211	1
4	727	1526.431130373061	0
4	741	1546.266431360994	0
4	742	1547.329708587016	0
4	761	1598.33928803856	0
4	774	1629.165114337312	0
4	782	1640.4232040738	0
4	787	1651.290164619468	0
4	818	1735.467369980249	0
4	819	1736.362235162108	0
4	836	1767.330518862194	0
4	837	1782.38054728871	0
4	848	1822.296353712127	0
4	854	1833.60911008917	1
4	856	1837.832209965198	2
4	857	1845.674501905315	2
4	858	1847.207519573388	1
4	859	1848.174950593309	0
4	866	1887.823250840407	0
4	869	1890.356436195204	0
4	871	1891.218272816414	0
4	874	1893.555839550042	0
4	887	1921.668223527153	0
4	892	1942.017647132113	0
4	902	1967.396434143435	0
4	903	1976.486341635816	0
4	923	1993.270757791483	0
4	924	2001.658991288065	0
4	930	2005.425083293427	0
4	931	2007.620153458192	0
4	933	2008.092390160378	0
4	934	2011.140656097265	0
4	937	2014.950917893618	0
4	942	2019.435531370298	0
4	961	2064.563262874183	0
4	964	2068.85292595096	0
4	966	2069.515851758278	0
4	970	2079.326869143163	1
4	971	2085.064408227709	1
4	972	2086.501429227379	0
4	977	2103.346587578668	0
4	980	2104.117960445639	0
4	983	2110.335738409846	0
4	984	2112.08505744984	0
4	986	2125.044740041305	0
4	987	2133.889693276935	0
4	989	2144.225125355446	0
4	990	2145.982223395524	0
4	992	2150.527057442777	0
4	995	2154.813709287955	0
4	1001	2163.143513135241	0
4	1010	2178.459427702901	0
4	1031	2210.697394252604	0
4	1033	2216.593915740708	1
4	1038	2222.850698971621	1
4	1043	2232.193743306225	0
4	1049	2277.88009486364	0
4	1054	2293.387274223699	0
4	1069	2314.406601838302	0
4	1070	2315.269008475146	0
4	1087	2396.152750829857	0
4	1091	2400.088119842539	1
4	1095	2414.679708258506	2
4	1097	2419.832186906069	3
4	1098	2421.530067762105	3
4	1099	2424.694894370774	2
4	1104	2433.981851414118	1
4	1107	2440.932922353714	0
5	161	353.492191333855	0
5	166	361.358890033519	0
5	175	373.862420552585	5.081985980905
5	182	380.352000414881	0
5	197	394.911869929315	6.050353523208
5	198	396.444480432054	4.687338738513
5	202	400.427176001047	0
5	216	418.490878757168	0
5	219	426.917654738831	5.282776207275
5	248	498.166435993675	0
5	281	570.157955171208	0
5	288	572.457613665873	0.443916035827
5	309	619.990869827664	0
5	312	626.951996879465	0
5	318	643.369658326367	0
5	325	648.833252517114	0
5	329	656.358877459783	0
5	335	670.89757570658	0
5	353	714.718457972752	0
5	356	717.48322758809	1.823544692483
5	362	738.112029162346	0
5	365	744.260440483758	0
5	370	754.766979233062	0.584926623022
5	377	776.438308007573	0
5	389	790.590701076314	0
5	401	821.734270542422	0
5	409	836.585368277	0
5	414	847.021928239011	1.372234568548
5	431	898.271736045084	0
5	436	904.926614745706	4.24698204245
5	443	917.623000115617	0
5	450	927.640504396629	6.368067999634
5	461	943.345188572361	0
5	468	950.330197287088	6.616642246176
5	469	950.479022316336	5.691993487071
5	479	975.864205792521	0
5	482	985.581756591086	1.79564878756
5	489	998.267478066846	7.990493055641
5	490	1006.784098751368	15.346020435751
5	502	1031.498604334519	0
5	505	1036.544623844487	1.08120297388
5	515	1050.509505621411	0
5	536	1102.565256430476	0
5	539	1126.178327443082	0
5	551	1181.795656424566	0
5	558	1189.200809718254	6.321491946815
5	561	1207.921071308651	0
5	575	1237.592404539237	0
5	591	1263.979150557185	0
5	600	1279.926708246016	11.455033733131
5	607	1288.385528609449	7.525297348328
5	608	1298.332601140745	17.119441872421
5	630	1334.781804229055	0
5	638	1342.435565038599	0
5	641	1352.867238912116	0
5	648	1375.309585504405	0
5	657	1398.299642162285	0
5	663	1404.77742651609	0
5	674	1425.76906201151	0
5	679	1430.662678727821	0.27862787211
5	686	1448.648219502481	0
5	710	1492.015021764522	0
5	715	1511.570516921471	14.533907525474
5	726	1526.376212000211	3.046334499729
5	741	1546.266431360994	0
5	761	1598.33928803856	0
5	782	1640.4232040738	0
5	818	1735.467369980249	0
5	836	1767.330518862194	0
5	848	1822.296353712127	0
5	857	1845.674501905315	12.065391816145
5	858	1847.207519573388	9.37530960819
5	866	1887.823250840407	0
5	871	1891.218272816414	0
5	887	1921.668223527153	0
5	902	1967.396434143435	0
5	923	1993.270757791483	0
5	930	2005.425083293427	0
5	933	2008.092390160378	0
5	937	2014.950917893618	0
5	961	2064.563262874183	0
5	966	2069.515851758278	0
5	971	2085.064408227709	5.737539084546
5	977	2103.346587578668	0
5	983	2110.335738409846	0
5	986	2125.044740041305	0
5	989	2144.225125355446	0
5	992	2150.527057442777	0
5	1001	2163.143513135241	0
5	1031	2210.697394252604	0
5	1038	2222.850698971621	6.256783230913
5	1049	2277.88009486364	0
5	1069	2314.406601838302	0
5	1087	2396.152750829857	0
5	1098	2421.530067762105	21.441947919566
5	1099	2424.694894370774	10.015186112268
5	1104	2433.981851414118	14.149664508049
6	163	356.275138873474	1
6	168	361.531743559315	2
6	170	367.553763951342	3
6	174	368.970575265093	4
6	178	379.927922828233	5
6	180	380.306087155442	6
6	184	382.080972587445	7
6	186	382.936418932786	8
6	188	387.510257431181	9
6	192	389.911119545815	10
6	196	393.455530514951	11
6	204	401.335149171264	11
6	206	401.485334148296	12
6	212	412.129365972685	10
6	224	446.532072824088	7
6	227	455.418534664674	7
6	231	459.485586021208	6
6	235	468.041860974414	5
6	240	480.239443259427	3
6	245	484.314394665896	1
6	251	511.606946428544	1
6	254	516.396541660431	1
6	257	517.029377089414	1
6	259	522.165015742967	2
6	261	523.706183755885	3
6	266	535.079449780043	1
6	269	542.924549707891	1
6	271	544.504856593887	2
6	273	545.10126394541	3
6	276	560.650013804625	3
6	283	571.503968412171	1
6	285	571.885422676681	2
6	291	576.531670043592	3
6	294	586.041278199781	3
6	296	591.842793986612	4
6	299	593.492340352836	4
6	301	593.822627101554	5
6	304	608.601332355442	5
6	316	642.500478591344	2
6	322	645.553767806205	2
6	331	658.72291101783	1
6	338	673.50565802358	1
6	340	674.664452820824	2
6	343	678.053537741583	2
6	346	679.276270559373	2
6	350	689.822589290019	1
6	359	722.812043553386	1
6	367	752.887833589075	1
6	372	754.865825694057	2
6	379	779.934200981398	1
6	383	786.323076486688	1
6	386	788.123718112885	1
6	392	811.826066980366	1
6	395	815.947848581462	1
6	397	820.44480297725	2
6	399	821.388645718781	3
6	406	828.891794095329	2
6	411	840.695604552115	2
6	417	857.256330799712	3
6	421	868.648008226734	2
6	424	870.702630473908	2
6	428	894.689810098196	1
6	435	903.133171413273	1
6	440	906.787099258618	1
6	447	924.958018129097	1
6	449	926.96826182913	2
6	455	938.47093182519	1
6	457	938.824901339621	2
6	467	946.970759347724	1
6	471	951.594273986105	2
6	473	958.366921324126	3
6	486	991.294130417434	1
6	492	1007.904452093689	2
6	494	1016.561505806223	3
6	498	1023.68614644825	3
6	509	1045.719007057478	1
6	511	1046.141772985728	2
6	517	1053.433658907636	1
6	521	1067.124123066431	1
6	524	1080.147366110922	1
6	527	1085.663846851348	1
6	530	1090.489287960552	1
6	532	1092.101482329185	2
6	541	1140.083382758178	1
6	545	1160.613482617548	1
6	548	1165.599748141268	1
6	555	1184.832306587143	1
6	557	1186.37157715356	2
6	563	1211.343419140701	3
6	569	1235.09717362252	1
6	571	1236.164658714414	2
6	573	1236.791656967319	3
6	578	1240.13416520579	4
6	580	1241.095342600622	5
6	584	1255.132693136419	4
6	588	1261.420735924344	3
6	593	1265.523657481921	3
6	595	1265.53163369834	4
6	599	1269.672344984342	5
6	606	1281.365090834462	6
6	611	1299.931884046393	7
6	614	1304.724605843547	7
6	616	1305.322714708422	8
6	622	1317.789257898108	5
6	628	1330.070538396107	2
6	633	1339.403950450485	3
6	636	1341.489957657103	3
6	643	1367.584745697833	4
6	650	1380.920423930158	3
6	652	1381.753183424919	4
6	660	1402.299300518417	3
6	665	1411.883606823326	3
6	667	1412.663953516089	4
6	669	1421.810878278908	5
6	671	1422.579160929986	6
6	676	1426.932312804626	7
6	682	1446.708472722902	8
6	689	1450.82885761971	7
6	691	1455.574463608922	8
6	693	1455.730999947189	9
6	701	1471.269624064226	4
6	707	1489.047028911997	1
6	714	1501.003251163954	1
6	717	1514.643396132198	2
6	719	1515.115288514532	3
6	721	1519.425740557147	4
6	725	1524.898422388147	5
6	731	1531.528094648684	4
6	734	1535.210731051848	4
6	738	1543.742296043003	3
6	746	1554.127229392814	1
6	749	1557.389591053862	1
6	752	1559.510693161534	1
6	754	1562.792788404847	2
6	757	1567.742571124257	2
6	763	1609.196141096314	1
6	765	1610.986066775387	2
6	767	1616.904226737302	3
6	769	1623.299458895717	4
6	771	1623.989388436137	5
6	773	1626.095454983176	6
6	777	1630.575454856278	6
6	784	1649.186861691882	4
6	786	1649.593474439688	5
6	790	1654.678995133334	5
6	792	1654.924764420721	6
6	798	1660.428087577648	3
6	802	1676.477283815076	2
6	806	1690.768281401143	1
6	809	1707.193064526369	1
6	812	1726.215648249001	1
6	815	1729.345563490037	1
6	821	1737.490455389247	1
6	823	1740.254922656132	2
6	825	1741.252134770375	3
6	828	1744.241500984743	3
6	833	1752.815041703053	1
6	839	1797.208591200755	1
6	842	1804.485709461222	1
6	845	1817.024796108276	1
6	850	1822.667217348664	1
6	852	1832.014805444614	2
6	863	1863.728023762385	1
6	868	1890.325002330053	1
6	873	1892.911421496219	2
6	877	1897.909856720685	2
6	880	1900.228729364245	2
6	882	1902.394972575954	3
6	889	1923.105917349807	1
6	891	1936.930188235271	2
6	896	1945.527027404059	1
6	899	1951.529515973467	1
6	905	1978.121877551877	1
6	907	1979.34124746618	2
6	910	1979.762433639967	2
6	912	1980.054325816748	3
6	914	1980.804055573983	4
6	916	1984.075517845662	5
6	920	1987.134381859309	4
6	928	2004.51657132158	2
6	939	2016.414489280249	2
6	941	2019.355225779663	3
6	944	2021.296189842671	4
6	947	2027.04262790873	4
6	952	2046.560566042738	2
6	955	2049.309392990112	2
6	959	2061.485768394387	1
6	963	2066.837198190048	2
6	968	2079.137475032824	3
6	979	2104.013738594891	1
6	994	2153.081210459794	1
6	997	2156.356740043825	2
6	1003	2173.045091011533	1
6	1005	2173.616005250678	2
6	1007	2175.034293339372	3
6	1009	2177.084121156678	4
6	1012	2180.5173811797	5
6	1014	2181.868862810189	6
6	1019	2189.076723022662	4
6	1021	2190.77130714992	5
6	1025	2192.37424995934	4
6	1035	2219.717478738328	1
6	1037	2221.871233968395	2
6	1040	2230.071724645932	3
6	1042	2230.935555957897	4
6	1051	2282.93439780404	1
6	1053	2285.416402302551	2
6	1057	2298.293892914577	2
6	1059	2299.2747170942	3
6	1063	2303.439979488083	2
6	1066	2305.47910729848	2
6	1073	2332.303734596903	1
6	1075	2334.907025363425	2
6	1079	2357.875581853046	1
6	1081	2359.875021229818	2
6	1085	2395.018293745815	1
6	1089	2396.55827791462	2
6	1093	2404.75453472669	3
6	1101	2426.276812347666	4
6	1103	2430.731895255457	5
6	1106	2436.181161132906	6
6	1109	2441.666214032224	7
6	1111	2442.032794299837	8
6	1113	2443.172972015987	9
6	1115	2444.959135336682	10
6	1124	2462.964472082763	4
6	1127	2463.231614912147	4
6	1133	2487.671983780769	1
6	1136	2494.931331030283	1
6	1139	2498.796688845567	1
7	164	360.624852924544	17
7	175	373.862420552585	18
7	176	379.214675634746	19
7	197	394.911869929315	20
7	198	396.444480432054	21
7	199	397.877345565474	22
7	207	402.396248124813	23
7	219	426.917654738831	24
7	220	435.24218785115	25
7	249	504.332305973129	26
7	288	572.457613665873	27
7	289	573.46323135519	28
7	310	624.215295011786	29
7	313	634.508144074484	30
7	319	643.7608762825	31
7	326	650.235719122732	32
7	332	659.486031261768	33
7	336	672.605286247089	34
7	356	717.48322758809	35
7	357	718.990019404957	36
7	363	742.828245828329	37
7	370	754.766979233062	38
7	373	755.264321586061	39
7	380	781.473735864113	40
7	390	801.830878652898	41
7	402	826.015614375819	42
7	414	847.021928239011	43
7	415	847.272264793066	44
7	436	904.926614745706	45
7	437	905.411025915921	46
7	450	927.640504396629	47
7	451	929.509849680839	48
7	468	950.330197287088	49
7	469	950.479022316336	50
7	474	958.63312435906	51
7	482	985.581756591086	52
7	489	998.267478066846	53
7	490	1006.784098751368	54
7	495	1023.07457661575	55
7	505	1036.544623844487	56
7	506	1039.99078748336	57
7	518	1054.607755671615	58
7	537	1105.5094518681	59
7	542	1141.414021339516	60
7	558	1189.200809718254	61
7	559	1206.936309058869	62
7	564	1211.644680094491	63
7	576	1237.813931555112	64
7	600	1279.926708246016	65
7	607	1288.385528609449	66
7	608	1298.332601140745	67
7	609	1298.9962018288	68
7	631	1339.18148019762	69
7	639	1351.917564620554	70
7	644	1369.642150308832	71
7	653	1386.655064532836	72
7	658	1398.453946347833	73
7	672	1425.478378329917	74
7	679	1430.662678727821	75
7	680	1446.474390224532	76
7	687	1450.130318914426	77
7	715	1511.570516921471	78
7	726	1526.376212000211	79
7	727	1526.431130373061	80
7	742	1547.329708587016	81
7	774	1629.165114337312	82
7	787	1651.290164619468	83
7	819	1736.362235162108	84
7	837	1782.38054728871	85
7	857	1845.674501905315	86
7	858	1847.207519573388	87
7	859	1848.174950593309	88
7	869	1890.356436195204	89
7	874	1893.555839550042	90
7	892	1942.017647132113	91
7	903	1976.486341635816	92
7	924	2001.658991288065	93
7	931	2007.620153458192	94
7	934	2011.140656097265	95
7	942	2019.435531370298	96
7	964	2068.85292595096	97
7	971	2085.064408227709	98
7	972	2086.501429227379	99
7	980	2104.117960445639	100
7	984	2112.08505744984	101
7	987	2133.889693276935	102
7	990	2145.982223395524	103
7	995	2154.813709287955	104
7	1010	2178.459427702901	105
7	1038	2222.850698971621	106
7	1043	2232.193743306225	107
7	1054	2293.387274223699	108
7	1070	2315.269008475146	109
7	1098	2421.530067762105	110
7	1099	2424.694894370774	111
7	1104	2433.981851414118	112
7	1107	2440.932922353714	113
8	164	360.624852924544	7.132661590689
8	175	373.862420552585	12.503530519066
8	176	379.214675634746	10.434241063066
8	197	394.911869929315	14.559869514434
8	198	396.444480432054	7.582964025947
8	199	397.877345565474	6.120203871933
8	207	402.396248124813	1.969072123766
8	219	426.917654738831	8.426775981663
8	220	435.24218785115	13.607309319594
8	249	504.332305973129	6.165869979454
8	288	572.457613665873	2.299658494665
8	289	573.46323135519	1.449533725144
8	310	624.215295011786	4.224425184122
8	313	634.508144074484	7.556147195019
8	319	643.7608762825	0.391217956133
8	326	650.235719122732	1.402466605618
8	332	659.486031261768	3.127153801985
8	336	672.605286247089	1.707710540509
8	356	717.48322758809	2.764769615338
8	357	718.990019404957	3.33033650935
8	363	742.828245828329	4.716216665983
8	370	754.766979233062	10.506538749304
8	373	755.264321586061	1.082268976021
8	380	781.473735864113	5.03542785654
8	390	801.830878652898	11.240177576584
8	402	826.015614375819	4.281343833397
8	414	847.021928239011	10.436559962011
8	415	847.272264793066	1.622571122603
8	436	904.926614745706	6.654878700622
8	437	905.411025915921	4.731393212665
8	450	927.640504396629	10.017504281012
8	451	929.509849680839	8.237413283844
8	468	950.330197287088	6.985008714727
8	469	950.479022316336	6.765467275424
8	474	958.63312435906	13.846095529795
8	482	985.581756591086	9.717550798565
8	489	998.267478066846	14.48137026332
8	490	1006.784098751368	16.507113740163
8	495	1023.07457661575	31.636498300133
8	505	1036.544623844487	5.046019509968
8	506	1039.99078748336	4.527366612753
8	518	1054.607755671615	4.098250050204
8	537	1105.5094518681	2.944195437624
8	542	1141.414021339516	15.235693896434
8	558	1189.200809718254	7.405153293688
8	559	1206.936309058869	24.05699128743
8	564	1211.644680094491	3.72360878584
8	576	1237.813931555112	0.221527015875
8	600	1279.926708246016	15.947557688831
8	607	1288.385528609449	19.913854096564
8	608	1298.332601140745	17.472369879624
8	609	1298.9962018288	17.783042560476
8	631	1339.18148019762	4.399675968565
8	639	1351.917564620554	9.481999581955
8	644	1369.642150308832	16.774911396716
8	653	1386.655064532836	11.345479028431
8	658	1398.453946347833	0.154304185548
8	672	1425.478378329917	20.700951813827
8	679	1430.662678727821	4.893616716311
8	680	1446.474390224532	16.090339368821
8	687	1450.130318914426	1.482099411945
8	715	1511.570516921471	19.555495156949
8	726	1526.376212000211	29.339602604214
8	727	1526.431130373061	3.101252872579
8	742	1547.329708587016	1.063277226022
8	774	1629.165114337312	30.825826298752
8	787	1651.290164619468	10.866960545668
8	819	1736.362235162108	0.894865181859
8	837	1782.38054728871	15.050028426516
8	857	1845.674501905315	23.378148193188
8	858	1847.207519573388	13.598409484218
8	859	1848.174950593309	10.342740628111
8	869	1890.356436195204	2.533185354797
8	874	1893.555839550042	2.337566733628
8	892	1942.017647132113	20.34942360496
8	903	1976.486341635816	9.089907492381
8	924	2001.658991288065	8.388233496582
8	931	2007.620153458192	2.195070164765
8	934	2011.140656097265	3.048265936887
8	942	2019.435531370298	4.48461347668
8	964	2068.85292595096	4.289663076777
8	971	2085.064408227709	15.548556469431
8	972	2086.501429227379	7.174560084216
8	980	2104.117960445639	0.771372866971
8	984	2112.08505744984	1.749319039994
8	987	2133.889693276935	8.84495323563
8	990	2145.982223395524	1.757098040078
8	995	2154.813709287955	4.286651845178
8	1010	2178.459427702901	15.31591456766
8	1038	2222.850698971621	12.153304719017
8	1043	2232.193743306225	15.599827565517
8	1054	2293.387274223699	15.507179360059
8	1070	2315.269008475146	0.862406636844
8	1098	2421.530067762105	25.377316932248
8	1099	2424.694894370774	24.606774528235
8	1104	2433.981851414118	19.302143155612
8	1107	2440.932922353714	21.100735447645
9	164	360.624852924544	4.34971405107
9	176	379.214675634746	17.855785601227
9	199	397.877345565474	36.345602006159
9	200	398.999960708591	31.446196757249
9	207	402.396248124813	33.42567285972
9	208	406.027290070529	26.099367242296
9	209	408.080614612069	27.774527456627
9	210	411.769603147996	31.417602733115
9	213	413.95617854156	31.875205954115
9	214	417.200545212021	34.264126279235
9	220	435.24218785115	47.731930419969
9	221	437.284686180487	47.373566634672
9	222	440.081818192201	46.62628767725
9	225	449.123990704745	48.696814703698
9	228	456.325552415182	54.990403243918
9	229	457.642124635462	56.156790487166
9	232	461.975382047054	49.846016074369
9	233	463.613700403845	45.122821646677
9	236	472.015628234353	25.483555410265
9	237	472.869114783826	17.450580119152
9	238	479.978482814037	20.492896792829
9	241	480.433936345722	12.392075371308
9	242	481.304708530993	1.065265271566
9	245	484.314394665896	0
9	251	511.606946428544	0
9	254	516.396541660431	0
9	257	517.029377089414	0
9	262	523.820268118826	1.655252375859
9	263	524.689292450424	0.983108694539
9	266	535.079449780043	0
9	269	542.924549707891	0
9	274	556.331783221416	11.826926627529
9	277	561.898629953095	16.797366007685
9	278	562.419768938729	1.769755134104
9	289	573.46323135519	1.959262943019
9	292	578.29446525329	6.409042576609
9	297	592.142289976445	15.610619932853
9	302	602.149538885884	16.108260686103
9	305	610.585750357154	18.742956370542
9	306	613.363541779699	19.871201426863
9	307	619.155320533825	25.332693432271
9	310	624.215295011786	15.613962656344
9	313	634.508144074484	14.51727424682
9	314	637.722849707201	10.770852827736
9	319	643.7608762825	1.260397691156
9	320	643.783243926039	0.413585599672
9	323	645.616987991534	0.063220185329
9	326	650.235719122732	1.402466605618
9	332	659.486031261768	0.763120243938
9	338	673.50565802358	0
9	341	675.003611209332	0.339158388508
9	344	679.205309316411	1.151771574828
9	347	681.827691832765	2.551421273392
9	350	689.822589290019	0
9	359	722.812043553386	0
9	373	755.264321586061	2.376487996986
9	374	757.228131202389	2.362305508332
9	380	781.473735864113	1.539534882715
9	383	786.323076486688	0
9	386	788.123718112885	0
9	392	811.826066980366	0
9	395	815.947848581462	0
9	402	826.015614375819	5.570811398569
9	403	826.030192605342	4.641546886561
9	404	828.379839785656	6.645569243234
9	407	830.186275842279	1.29448174695
9	415	847.272264793066	10.686896516066
9	418	857.542832264801	16.847227712686
9	419	862.742758943123	5.486428143411
9	422	870.105439749661	1.457431522927
9	425	872.622288997534	1.919658523626
9	428	894.689810098196	0
9	437	905.411025915921	2.277854502648
9	440	906.787099258618	0
9	451	929.509849680839	4.551831551742
9	452	931.903298140508	4.935036311378
9	455	938.47093182519	0
9	458	939.116659881767	0.291758542146
9	474	958.63312435906	11.662365011336
9	475	965.008492566415	13.41421858031
9	476	965.092022176153	6.725100852027
9	495	1023.07457661575	31.780446198316
9	496	1023.360096697487	15.455644603798
9	499	1030.564299814786	14.002794008563
9	500	1031.450689845016	7.764543396766
9	506	1039.99078748336	8.492183148841
9	509	1045.719007057478	0
9	512	1048.599552539494	2.457779553766
9	518	1054.607755671615	1.174096763979
9	521	1067.124123066431	0
9	524	1080.147366110922	0
9	527	1085.663846851348	0
9	530	1090.489287960552	0
9	533	1093.955841346225	1.85435901704
9	542	1141.414021339516	1.330638581338
9	545	1160.613482617548	0
9	548	1165.599748141268	0
9	559	1206.936309058869	22.104002471726
9	564	1211.644680094491	25.273102940931
9	565	1214.561378274622	6.640306965971
9	566	1215.475567993058	4.132148852357
9	569	1235.09717362252	0
9	576	1237.813931555112	1.649272840698
9	581	1241.745202658937	4.953545691618
9	582	1242.694843568796	5.102439029559
9	585	1255.947321790798	15.813156585008
9	586	1260.246883466764	19.151540866142
9	589	1262.953344435562	7.820651299143
9	609	1298.9962018288	37.575465904456
9	612	1301.21539000994	37.236239452755
9	617	1307.544821846783	42.021164364862
9	618	1307.991465409248	42.459831710908
9	619	1311.967866066736	42.295521082394
9	620	1316.004882951436	34.639792116974
9	623	1318.969240644105	19.037356597712
9	624	1319.583229238883	14.858623395336
9	625	1322.337277514733	17.014562806311
9	626	1327.269976968585	9.480719070477
9	631	1339.18148019762	9.110941801513
9	634	1340.293530136428	5.511725907373
9	639	1351.917564620554	12.513614170069
9	644	1369.642150308832	28.152192651729
9	645	1370.572786656903	28.137221618304
9	646	1374.820789091307	21.953550179191
9	653	1386.655064532836	19.070318835003
9	654	1389.942291875715	14.63270637131
9	655	1392.350746522426	11.430322592268
9	658	1398.453946347833	16.700762922914
9	661	1402.753560179665	4.45391801738
9	672	1425.478378329917	23.1790778115
9	680	1446.474390224532	41.696963708442
9	683	1446.764484758757	34.880877935431
9	684	1446.968628049891	34.304674533802
9	687	1450.130318914426	28.319440635518
9	694	1456.378629431058	33.799468501072
9	695	1456.581229713615	30.812167702105
9	696	1458.910039274901	31.977726470275
9	697	1462.637312790194	15.928840067292
9	698	1464.233218272271	15.58499876979
9	699	1470.202750581806	19.373892962096
9	702	1477.10607104554	21.531607436618
9	703	1477.149354498656	21.418354551467
9	704	1479.416281018038	8.146656953812
9	707	1489.047028911997	0
9	727	1526.431130373061	25.427879209107
9	728	1526.628487150678	11.98509101848
9	729	1531.522266182994	16.406977668462
9	732	1533.926606455728	14.500865898581
9	735	1536.433188851958	11.534766463811
9	736	1538.188271651788	6.660177003104
9	739	1545.968951169447	10.758220117599
9	742	1547.329708587016	3.587412544013
9	743	1547.742399982448	1.475968621454
9	746	1554.127229392814	0
9	749	1557.389591053862	0
9	752	1559.510693161534	0
9	755	1563.977264270292	1.184475865445
9	758	1568.039560407617	0.29698928336
9	774	1629.165114337312	19.968973240998
9	775	1629.389083428374	18.403016652987
9	778	1634.796282026508	17.892055289206
9	779	1638.086205002752	14.786746107035
9	780	1640.257506491378	16.268118055241
9	787	1651.290164619468	25.194709636292
9	788	1654.014145726827	23.438690870549
9	793	1655.830287634237	15.407083560437
9	794	1656.678921145172	7.49205945329
9	795	1657.910921540308	8.31744710062
9	796	1660.045647651249	5.366652517915
9	799	1664.890195091333	9.965430670612
9	800	1673.48381237438	13.055724796732
9	803	1676.626911516477	0.149627701401
9	806	1690.768281401143	0
9	809	1707.193064526369	0
9	812	1726.215648249001	0
9	815	1729.345563490037	0
9	821	1737.490455389247	0
9	826	1743.203202772595	2.948280116463
9	829	1745.224071946387	3.971937176012
9	830	1745.514820381156	1.273319396413
9	833	1752.815041703053	0
9	839	1797.208591200755	0
9	842	1804.485709461222	0
9	845	1817.024796108276	0
9	859	1848.174950593309	25.507733244645
9	860	1853.150084091844	21.13527864723
9	863	1863.728023762385	0
9	869	1890.356436195204	0.031433865151
9	874	1893.555839550042	2.337566733628
9	875	1896.930799917885	4.019378421666
9	878	1899.829448039146	1.919591318461
9	883	1904.813892773825	4.58516340958
9	884	1908.736099616098	6.341127040144
9	892	1942.017647132113	18.911729782306
9	893	1942.433552277042	5.503364041771
9	896	1945.527027404059	0
9	899	1951.529515973467	0
9	905	1978.121877551877	0
9	908	1979.497637302267	0.156389836087
9	917	1984.918054138865	5.155620498898
9	918	1986.945486994657	6.891161177909
9	921	1991.405528989855	10.601473415872
9	924	2001.658991288065	17.583473442403
9	925	2002.936161596645	15.801779737336
9	926	2004.456080967238	11.185323175755
9	931	2007.620153458192	3.103582136612
9	934	2011.140656097265	5.715572803838
9	935	2014.345497085138	6.25310692476
9	942	2019.435531370298	4.48461347668
9	945	2025.127209731786	8.712720451537
9	948	2034.120402091084	14.765176311421
9	949	2036.560358671463	15.264168828792
9	950	2039.312913496853	12.270285588123
9	953	2047.301961527174	0.741395484436
9	956	2052.033288190612	2.7238952005
9	959	2061.485768394387	0
9	964	2068.85292595096	4.289663076777
9	972	2086.501429227379	19.664231037331
9	973	2088.100367149694	18.584515391416
9	974	2089.635906189313	10.498431156489
9	980	2104.117960445639	0.104221850748
9	995	2154.813709287955	1.732498828161
9	998	2158.023199621077	1.666459577252
9	1010	2178.459427702901	5.414336691368
9	1015	2185.658509893472	12.042504642794
9	1016	2185.837220884575	10.802927545203
9	1017	2189.019496813106	11.935375656428
9	1022	2191.51063828702	10.99325710732
9	1023	2191.586392079022	9.717529268833
9	1026	2192.841495656998	3.764772634336
9	1027	2195.55152802318	4.78022087326
9	1028	2196.695554436703	4.321304477363
9	1043	2232.193743306225	12.476264567897
9	1044	2234.405436877399	12.534202909004
9	1045	2235.843007868016	5.771283222084
9	1046	2237.427552810677	6.49199685278
9	1054	2293.387274223699	10.452876419659
9	1055	2293.988018585707	8.571616283156
9	1060	2301.403388793643	3.109495879066
9	1061	2302.028495915067	2.753778820867
9	1064	2305.210360639039	1.770381150956
9	1067	2313.241622060351	7.762514761871
9	1070	2315.269008475146	0.862406636844
9	1073	2332.303734596903	0
9	1076	2336.317204634224	1.410179270799
9	1079	2357.875581853046	0
9	1082	2360.921614053451	1.046592823633
9	1085	2395.018293745815	0
9	1107	2440.932922353714	44.780171523857
9	1116	2445.929566397249	49.371288482629
9	1117	2447.768479394844	43.013944668154
9	1118	2452.793560344179	26.516747996513
9	1119	2453.0974699504	22.365574694943
9	1120	2456.092168960102	19.911007827196
9	1121	2462.197133247883	20.530919215659
9	1122	2462.617809243096	20.585014943259
9	1125	2463.171430239951	19.998458223964
9	1128	2463.369712764867	18.410577428185
9	1129	2464.889690617596	1.925218534833
9	1130	2467.447614305226	4.215999393079
9	1133	2487.671983780769	0
9	1136	2494.931331030283	0
9	1139	2498.796688845567	0
10	166	361.358890033519	4
10	182	380.352000414881	5
10	202	400.427176001047	6
10	216	418.490878757168	7
10	309	619.990869827664	8
10	312	626.951996879465	9
10	318	643.369658326367	10
10	325	648.833252517114	11
10	401	821.734270542422	12
10	409	836.585368277	13
10	502	1031.498604334519	14
10	561	1207.921071308651	15
10	575	1237.592404539237	16
10	591	1263.979150557185	17
10	630	1334.781804229055	18
10	638	1342.435565038599	19
10	641	1352.867238912116	20
10	648	1375.309585504405	21
10	657	1398.299642162285	22
10	663	1404.77742651609	23
10	674	1425.76906201151	24
10	686	1448.648219502481	25
10	741	1546.266431360994	26
10	782	1640.4232040738	27
10	871	1891.218272816414	28
10	923	1993.270757791483	29
10	930	2005.425083293427	30
10	933	2008.092390160378	31
10	937	2014.950917893618	32
10	961	2064.563262874183	33
10	966	2069.515851758278	34
10	1069	2314.406601838302	35
10	1087	2396.152750829857	36
11	1141	2500	0.1068
12	1141	2500	0.0452

