file 58373 1678560208                                           
version 2
run experiments_hard_game_mode1-1150-20230311-19:43:28-10728
attr configname experiments_hard_game_mode1
attr datetime 20230311-19:43:28
attr experiment experiments_hard_game_mode1
attr inifile omnetpp.ini
attr iterationvars "$0=9, $1=7, $2=0"
attr iterationvarsf 9,7,0-
attr measurement "$0=9, $1=7, $2=0"
attr network Network
attr processid 10728
attr repetition 10
attr replication #10
attr resultdir results
attr runnumber 1150
attr seedset 10
param *.boss.arrival_mean 20
param *.boss.service_mean 9
param *.minion.arrival_mean 10
param *.minion.service_mean 7
param *.player.recover_rate_x 0
param **.minion.arrival_distribution 0
param **.minion.service_distribution 0
param **.boss.arrival_distribution 0
param **.boss.service_distribution 0

vector 0 Network.player boss_defeated_stat:vector ETV
attr source signal_boss_defeated
vector 1 Network.player boss_jobs_queue_number_stat:vector ETV
attr source signal_boss_jobs_queue_number
vector 2 Network.player boss_response_time_stat:vector ETV
attr source signal_boss_response_time
vector 3 Network.player boss_waiting_time_stat:vector ETV
attr source signal_boss_waiting_time
vector 4 Network.player minion_waiting_time_stat:vector ETV
attr source signal_minion_waiting_time
vector 5 Network.player minion_defeated_stat:vector ETV
attr source signal_minion_defeated
vector 6 Network.player minion_jobs_queue_number_stat:vector ETV
attr source signal_minion_jobs_queue_number
vector 7 Network.player minion_response_time_stat:vector ETV
attr source signal_minion_response_time
vector 8 Network.player minion_jobs_number_stat:vector ETV
attr source signal_minion_jobs_number
vector 9 Network.player boss_jobs_number_stat:vector ETV
attr source signal_boss_jobs_number
vector 10 Network.player minion_recovered_stat:vector ETV
attr source signal_minion_recovered
vector 11 Network.player minion_throughput:vector ETV
attr source signal_minion_throughput
vector 12 Network.player boss_throughput:vector ETV
attr source signal_boss_throughput
0	2007 2908 171 1083 350.772319122648 2449.966543958889 108 20 127 7938 688410
1	4915 5466 171 1083 350.772319122648 2449.966543958889 213 0 7 233 775
2	10381 4222 171 1083 350.772319122648 2449.966543958889 108 0.003255246009 88.008578593722 2198.9257300967 90741.938786601
3	14603 3479 171 1082 350.772319122648 2446.879911890008 107 0 73.740762733651 1157.8830721848 48894.81069198
4	18082 8516 173 1110 356.729159443342 2496.650548467624 218 0 612.2151869749 66298.316014316 29320941.769173
5	26598 4545 174 1110 357.726073797816 2496.650548467624 166 36 201 19671 2712191
6	31143 10461 174 1110 357.726073797816 2496.650548467624 394 0 68 14803 801433
7	41604 6561 174 1110 357.726073797816 2496.650548467624 166 1.84978779109 619.07471047018 50950.100459402 22796413.368796
8	48165 6053 176 1107 367.376450425266 2487.898238471302 228 1 69 8606 458388
9	54218 2694 198 1082 419.824288542282 2446.879911890008 105 1 8 220 720
10	56912 1420 198 1082 419.824288542282 2446.879911890008 51 10 60 1785 73525
11	58332 20 1111 1111 2500 2500 1 0.0804 0.0804 0.0804 0.00646416
12	58352 20 1111 1111 2500 2500 1 0.0508 0.0508 0.0508 0.00258064

