version 2
run experiments_hard_game_mode1-1226-20230311-19:43:46-11179
attr configname experiments_hard_game_mode1
attr datetime 20230311-19:43:46
attr experiment experiments_hard_game_mode1
attr inifile omnetpp.ini
attr iterationvars "$0=9.5, $1=3, $2=0"
attr iterationvarsf 9.5,3,0-
attr measurement "$0=9.5, $1=3, $2=0"
attr network Network
attr processid 11179
attr repetition 26
attr replication #26
attr resultdir results
attr runnumber 1226
attr seedset 26
param *.boss.arrival_mean 20
param *.boss.service_mean 9.5
param *.minion.arrival_mean 10
param *.minion.service_mean 3
param *.player.recover_rate_x 0
param **.minion.arrival_distribution 0
param **.minion.service_distribution 0
param **.boss.arrival_distribution 0
param **.boss.service_distribution 0

vector 0 Network.player minion_jobs_number_stat:vector ETV
attr source signal_minion_jobs_number
vector 1 Network.player minion_jobs_queue_number_stat:vector ETV
attr source signal_minion_jobs_queue_number
vector 2 Network.player minion_waiting_time_stat:vector ETV
attr source signal_minion_waiting_time
vector 3 Network.player minion_defeated_stat:vector ETV
attr source signal_minion_defeated
vector 4 Network.player minion_response_time_stat:vector ETV
attr source signal_minion_response_time
vector 5 Network.player boss_jobs_number_stat:vector ETV
attr source signal_boss_jobs_number
vector 6 Network.player boss_jobs_queue_number_stat:vector ETV
attr source signal_boss_jobs_queue_number
vector 7 Network.player boss_waiting_time_stat:vector ETV
attr source signal_boss_waiting_time
vector 8 Network.player boss_defeated_stat:vector ETV
attr source signal_boss_defeated
vector 9 Network.player boss_response_time_stat:vector ETV
attr source signal_boss_response_time
vector 10 Network.player minion_recovered_stat:vector ETV
attr source signal_minion_recovered
vector 11 Network.player minion_throughput:vector ETV
attr source signal_minion_throughput
vector 12 Network.player boss_throughput:vector ETV
attr source signal_boss_throughput
0	131	353.474320604805	1
0	137	362.221650059944	1
0	140	388.918922681755	1
0	142	391.684997140054	2
0	145	393.513447054423	2
0	148	396.818932124983	2
0	152	411.073237962121	1
0	155	418.275100492741	1
0	157	419.589888907062	2
0	159	420.361511980791	3
0	164	431.413467444418	1
0	167	433.346302192891	1
0	174	445.432556060841	2
0	176	446.898056891252	3
0	182	457.624761079718	1
0	185	462.992411790454	1
0	191	477.732048514976	1
0	194	479.565660162456	1
0	200	506.907177080105	1
0	202	508.184710933496	2
0	205	513.794651262729	2
0	207	522.6230811356	3
0	210	525.703729907631	3
0	212	526.760700204932	4
0	215	529.153394214765	4
0	222	536.576731663828	3
0	227	538.986210414381	3
0	229	542.139596743865	4
0	234	549.542459884891	3
0	237	551.855074966976	3
0	239	552.96415021486	4
0	242	555.292798021475	4
0	244	555.530199892277	5
0	246	557.386578317167	6
0	249	558.581549090794	6
0	251	564.674090514164	7
0	254	566.996941240385	7
0	256	567.198732359307	8
0	259	567.806075160641	8
0	272	599.368227092208	3
0	278	609.617173713877	3
0	280	618.765200043476	4
0	282	628.111450699737	5
0	289	643.978860644792	6
0	301	670.76103880654	2
0	303	673.781192419499	3
0	306	677.024116712335	3
0	311	680.55874114572	3
0	315	690.106648260074	4
0	318	695.833009998525	5
0	322	706.460375203675	5
0	324	710.189187192976	6
0	328	714.031277994825	5
0	338	746.56073465194	1
0	340	747.335346081218	2
0	344	752.507465201618	1
0	347	764.711850508577	1
0	356	779.392366829766	1
0	367	798.727175529999	1
0	375	805.745986193468	2
0	378	809.376814129608	3
0	380	814.345620529679	4
0	382	816.943428381458	5
0	384	820.20186011876	6
0	387	823.652287563037	7
0	389	823.852341833642	8
0	391	838.965598310374	9
0	396	849.665848546355	10
0	398	855.20014544701	11
0	407	874.938272861615	12
0	409	875.642170742283	13
0	411	878.916392601563	14
0	413	880.194743129377	15
0	424	908.302664689417	10
0	426	912.880118731235	11
0	428	914.154013521909	12
0	430	918.221453502094	13
0	432	920.466740367527	14
0	434	921.269617257342	15
0	439	928.270388860147	14
0	446	940.769429665337	10
0	451	946.937388544451	8
0	454	948.378059082212	8
0	460	961.276425471982	5
0	466	968.857171976466	2
0	473	985.637922849169	1
0	479	990.293399767415	1
0	482	994.830844296818	1
0	487	1006.809630873742	1
0	489	1008.576925158246	2
0	496	1025.702611347249	2
0	499	1025.859092540039	2
0	503	1032.037129145877	3
0	509	1039.660424487586	4
0	513	1044.334527619919	3
0	523	1069.794077147459	1
0	527	1092.429440543177	1
0	529	1099.606014265835	2
0	531	1106.988560342246	3
0	533	1108.012979850404	4
0	545	1136.140998633732	3
0	555	1157.550368266195	2
0	557	1157.611214525958	3
0	561	1162.88480480778	3
0	563	1166.784023230992	4
0	572	1201.198363559256	1
0	575	1233.994475151404	1
0	577	1234.638255782988	2
0	581	1245.207501304281	1
0	584	1252.287471471351	1
0	586	1252.958309372731	2
0	590	1255.544300550687	1
0	592	1257.702205050436	2
0	596	1273.575107147716	1
0	599	1282.000157476293	1
0	605	1308.042757533478	1
0	608	1322.442427890273	1
0	611	1354.450041299215	1
0	614	1359.808667138904	1
0	617	1365.567060418044	1
0	620	1379.527834508314	1
0	623	1388.343387569061	1
0	625	1391.530722183322	2
0	628	1395.987648763864	2
0	635	1405.73259010185	3
0	638	1407.59546398581	4
0	643	1421.052419772988	2
0	653	1465.665298626496	3
0	662	1483.14063802135	4
0	666	1486.981162243963	5
0	668	1490.211591955959	6
0	670	1492.475700231023	7
0	672	1493.600893495466	8
0	674	1496.620248682547	9
0	676	1499.251009617682	10
0	678	1501.190745310615	11
0	682	1503.555027487292	12
0	684	1503.84271439289	13
0	687	1507.41017972299	14
0	692	1530.291608934717	15
0	694	1530.384925280363	16
0	699	1537.457528739665	17
0	705	1553.162040759077	18
0	711	1570.137080280809	19
0	713	1573.274776966163	20
0	715	1580.777479436213	21
0	729	1617.45004086707	22
0	731	1618.19945656825	23
0	734	1639.564752723533	24
0	741	1659.579680344184	25
0	743	1661.084268464403	26
0	745	1661.820909129658	27
0	747	1664.226597667918	28
0	749	1670.65600116995	29
0	756	1692.733021911401	30
0	758	1693.122160938568	31
0	761	1696.792034829513	32
0	764	1706.576033597084	33
0	776	1737.584751462818	30
0	790	1762.88645240741	28
0	792	1764.52628129551	29
0	794	1771.345773685681	30
0	798	1782.840199138905	31
0	800	1787.099373712175	32
0	803	1790.474069399335	33
0	805	1798.639424257225	34
0	811	1811.071683779677	35
0	813	1815.698051184562	36
0	815	1818.193629922128	37
0	817	1819.927956121786	38
0	824	1841.53335381805	39
0	826	1848.825722193123	40
0	828	1851.803641447519	41
0	832	1871.596090993364	41
0	834	1873.039811236144	42
0	841	1888.636690117927	38
0	844	1889.72021430197	38
0	855	1908.068432641432	36
0	859	1917.112298752113	37
0	868	1928.548868381647	38
0	871	1943.202172054068	39
0	873	1943.853450068646	40
0	875	1947.491857768771	41
0	877	1952.257540051665	42
0	879	1953.894543985779	43
0	884	1967.391884018465	44
0	886	1968.953078841886	45
0	891	1975.753052079742	46
0	895	1980.675212583733	47
0	897	1984.434920620764	48
0	899	1988.17588147654	49
0	905	1997.039189549181	50
0	907	2006.675050578551	51
0	910	2013.603734137001	52
0	912	2013.712213650688	53
0	917	2016.571851117598	54
0	919	2017.433573627472	55
0	921	2021.377678270243	56
0	926	2031.751956071526	57
0	931	2052.242150349561	58
0	935	2060.513224836688	59
0	937	2061.071047269637	60
0	940	2085.179997703273	61
0	942	2087.200259857916	62
0	958	2124.846046838009	55
0	964	2147.294971925394	56
0	974	2181.080498134622	55
0	976	2182.839138302258	56
0	979	2191.644797750578	56
0	991	2213.834378504324	50
0	994	2216.879486632086	50
0	999	2221.076484284912	50
0	1001	2225.648999783634	51
0	1010	2236.923596929798	46
0	1012	2243.644770406919	47
0	1022	2265.943846688117	40
0	1027	2278.84125004028	40
0	1052	2325.20156429716	28
0	1055	2335.233532933645	28
0	1061	2345.440787043552	25
0	1068	2357.58083537246	24
0	1073	2362.672863402485	22
0	1081	2380.495826501538	17
0	1085	2387.22080609807	16
0	1093	2408.542308582601	11
0	1096	2410.226325649505	11
0	1101	2413.640233561452	12
0	1109	2421.961824707125	7
0	1118	2439.826725366544	1
0	1121	2448.966925486014	1
0	1126	2457.299839417518	1
0	1128	2461.289238194113	2
0	1135	2473.170198392813	3
0	1138	2481.059061575314	4
1	131	353.474320604805	0
1	132	358.59872662122	0
1	137	362.221650059944	0
1	138	363.24826542092	0
1	140	388.918922681755	0
1	142	391.684997140054	1
1	143	392.397169629383	1
1	145	393.513447054423	1
1	146	395.019802484376	1
1	148	396.818932124983	1
1	149	398.010411121416	1
1	150	400.464007824233	0
1	152	411.073237962121	0
1	153	412.461197917693	0
1	155	418.275100492741	0
1	157	419.589888907062	1
1	159	420.361511980791	2
1	160	428.108025612129	2
1	161	430.412339561315	1
1	162	431.11062332323	0
1	164	431.413467444418	0
1	165	431.983906825584	0
1	167	433.346302192891	0
1	174	445.432556060841	1
1	176	446.898056891252	2
1	178	451.134861011681	2
1	179	451.679202098085	1
1	180	455.880932148793	0
1	182	457.624761079718	0
1	183	457.975945442616	0
1	185	462.992411790454	0
1	186	465.718241534729	0
1	191	477.732048514976	0
1	192	478.914969266378	0
1	194	479.565660162456	0
1	195	480.490321954772	0
1	200	506.907177080105	0
1	202	508.184710933496	1
1	203	513.738339388835	1
1	205	513.794651262729	1
1	207	522.6230811356	2
1	208	525.433455236245	2
1	210	525.703729907631	2
1	212	526.760700204932	3
1	213	527.818576656184	3
1	215	529.153394214765	3
1	216	531.992365649541	3
1	217	532.821090230016	2
1	222	536.576731663828	2
1	223	537.562424437577	2
1	227	538.986210414381	2
1	229	542.139596743865	3
1	231	549.069142518712	3
1	232	549.07181676058	2
1	234	549.542459884891	2
1	235	551.738780382548	2
1	237	551.855074966976	2
1	239	552.96415021486	3
1	240	553.501810846022	3
1	242	555.292798021475	3
1	244	555.530199892277	4
1	246	557.386578317167	5
1	247	558.258544384844	5
1	249	558.581549090794	5
1	251	564.674090514164	6
1	252	565.676896141105	6
1	254	566.996941240385	6
1	256	567.198732359307	7
1	257	567.645443820735	7
1	259	567.806075160641	7
1	260	574.366849700753	7
1	264	586.448807095774	6
1	265	589.124435605338	5
1	266	592.171509557333	4
1	267	596.968454958998	3
1	268	597.439295957865	2
1	272	599.368227092208	2
1	274	606.853407175089	2
1	278	609.617173713877	2
1	280	618.765200043476	3
1	282	628.111450699737	4
1	289	643.978860644792	5
1	295	662.080209396808	5
1	296	663.634177240131	4
1	297	666.92984098781	3
1	298	667.052246354642	2
1	299	669.199808397254	1
1	301	670.76103880654	1
1	303	673.781192419499	2
1	304	674.861485307996	2
1	306	677.024116712335	2
1	307	677.167392239297	2
1	311	680.55874114572	2
1	315	690.106648260074	3
1	318	695.833009998525	4
1	320	704.322240789918	4
1	322	706.460375203675	4
1	324	710.189187192976	5
1	325	710.459423992077	5
1	326	712.409773736513	4
1	328	714.031277994825	4
1	329	715.788448939623	4
1	330	719.909125921649	3
1	331	727.072182717278	2
1	332	727.609068564655	1
1	336	732.000987672849	0
1	338	746.56073465194	0
1	340	747.335346081218	1
1	341	748.358234046267	1
1	342	748.969069001764	0
1	344	752.507465201618	0
1	345	760.840283693428	0
1	347	764.711850508577	0
1	348	764.999268028699	0
1	356	779.392366829766	0
1	357	779.772463205868	0
1	367	798.727175529999	0
1	375	805.745986193468	1
1	378	809.376814129608	2
1	380	814.345620529679	3
1	382	816.943428381458	4
1	384	820.20186011876	5
1	387	823.652287563037	6
1	389	823.852341833642	7
1	391	838.965598310374	8
1	396	849.665848546355	9
1	398	855.20014544701	10
1	407	874.938272861615	11
1	409	875.642170742283	12
1	411	878.916392601563	13
1	413	880.194743129377	14
1	415	885.473171291903	14
1	416	890.696090685668	13
1	417	892.634867826567	12
1	418	893.148017928835	11
1	419	896.627561962148	10
1	420	899.852359067774	9
1	424	908.302664689417	9
1	426	912.880118731235	10
1	428	914.154013521909	11
1	430	918.221453502094	12
1	432	920.466740367527	13
1	434	921.269617257342	14
1	436	926.429765602003	14
1	437	926.965780355705	13
1	439	928.270388860147	13
1	440	935.863911711049	13
1	441	936.179790877262	12
1	442	937.33969160723	11
1	443	937.641723970458	10
1	444	940.323246667443	9
1	446	940.769429665337	9
1	447	942.006495866329	9
1	448	942.714238926064	8
1	449	945.15621102678	7
1	451	946.937388544451	7
1	452	948.114739708583	7
1	454	948.378059082212	7
1	455	950.238380396013	7
1	456	954.652775469716	6
1	457	957.796634410199	5
1	458	959.719707878171	4
1	460	961.276425471982	4
1	461	961.680882730615	4
1	462	962.665046838598	3
1	463	967.462618014094	2
1	464	968.319263127365	1
1	466	968.857171976466	1
1	467	970.700450852022	1
1	468	971.009062601221	0
1	473	985.637922849169	0
1	477	989.437392452922	0
1	479	990.293399767415	0
1	480	994.507461790829	0
1	482	994.830844296818	0
1	483	995.128205022835	0
1	487	1006.809630873742	0
1	489	1008.576925158246	1
1	494	1025.477181269589	1
1	496	1025.702611347249	1
1	497	1025.703032955695	1
1	499	1025.859092540039	1
1	503	1032.037129145877	2
1	509	1039.660424487586	3
1	510	1042.210682021809	3
1	511	1043.311221620269	2
1	513	1044.334527619919	2
1	517	1055.422112769883	2
1	518	1058.318125890942	1
1	519	1059.228726738221	0
1	523	1069.794077147459	0
1	525	1075.132437067406	0
1	527	1092.429440543177	0
1	529	1099.606014265835	1
1	531	1106.988560342246	2
1	533	1108.012979850404	3
1	534	1113.939278001326	3
1	538	1122.996371205429	2
1	545	1136.140998633732	2
1	547	1145.037668187703	2
1	551	1154.689540640181	1
1	555	1157.550368266195	1
1	557	1157.611214525958	2
1	559	1162.841316732592	2
1	561	1162.88480480778	2
1	563	1166.784023230992	3
1	564	1167.444912049629	3
1	565	1169.096204384102	2
1	566	1170.335399946368	1
1	567	1170.394782446899	0
1	572	1201.198363559256	0
1	573	1201.71905101122	0
1	575	1233.994475151404	0
1	577	1234.638255782988	1
1	578	1239.060307058043	1
1	579	1239.07448644431	0
1	581	1245.207501304281	0
1	582	1245.510269657147	0
1	584	1252.287471471351	0
1	586	1252.958309372731	1
1	587	1254.206290955415	1
1	588	1254.51961703042	0
1	590	1255.544300550687	0
1	592	1257.702205050436	1
1	593	1259.029977286866	1
1	594	1259.824647330626	0
1	596	1273.575107147716	0
1	597	1274.843626114822	0
1	599	1282.000157476293	0
1	600	1283.399761557116	0
1	605	1308.042757533478	0
1	606	1313.051367723481	0
1	608	1322.442427890273	0
1	609	1322.774739083963	0
1	611	1354.450041299215	0
1	612	1356.640306556218	0
1	614	1359.808667138904	0
1	615	1362.732944373754	0
1	617	1365.567060418044	0
1	618	1366.688760132084	0
1	620	1379.527834508314	0
1	621	1380.78193073095	0
1	623	1388.343387569061	0
1	625	1391.530722183322	1
1	626	1394.653075402698	1
1	628	1395.987648763864	1
1	635	1405.73259010185	2
1	638	1407.59546398581	3
1	639	1416.692034113567	3
1	640	1417.681386795792	2
1	641	1419.470764615243	1
1	643	1421.052419772988	1
1	653	1465.665298626496	2
1	662	1483.14063802135	3
1	666	1486.981162243963	4
1	668	1490.211591955959	5
1	670	1492.475700231023	6
1	672	1493.600893495466	7
1	674	1496.620248682547	8
1	676	1499.251009617682	9
1	678	1501.190745310615	10
1	682	1503.555027487292	11
1	684	1503.84271439289	12
1	687	1507.41017972299	13
1	692	1530.291608934717	14
1	694	1530.384925280363	15
1	699	1537.457528739665	16
1	705	1553.162040759077	17
1	711	1570.137080280809	18
1	713	1573.274776966163	19
1	715	1580.777479436213	20
1	729	1617.45004086707	21
1	731	1618.19945656825	22
1	734	1639.564752723533	23
1	741	1659.579680344184	24
1	743	1661.084268464403	25
1	745	1661.820909129658	26
1	747	1664.226597667918	27
1	749	1670.65600116995	28
1	756	1692.733021911401	29
1	758	1693.122160938568	30
1	761	1696.792034829513	31
1	764	1706.576033597084	32
1	766	1710.550802427666	32
1	767	1717.655266982285	31
1	768	1720.143979800123	30
1	769	1721.281884638154	29
1	776	1737.584751462818	29
1	778	1740.178362834784	29
1	779	1740.272348799888	28
1	780	1742.659587877497	27
1	790	1762.88645240741	27
1	792	1764.52628129551	28
1	794	1771.345773685681	29
1	798	1782.840199138905	30
1	800	1787.099373712175	31
1	803	1790.474069399335	32
1	805	1798.639424257225	33
1	811	1811.071683779677	34
1	813	1815.698051184562	35
1	815	1818.193629922128	36
1	817	1819.927956121786	37
1	824	1841.53335381805	38
1	826	1848.825722193123	39
1	828	1851.803641447519	40
1	830	1870.136981764179	40
1	832	1871.596090993364	40
1	834	1873.039811236144	41
1	835	1879.364948243035	41
1	836	1881.126251836606	40
1	837	1883.07741261371	39
1	838	1883.13422342372	38
1	839	1884.182585995098	37
1	841	1888.636690117927	37
1	842	1888.974103239369	37
1	844	1889.72021430197	37
1	845	1891.844120911297	37
1	846	1891.868852599971	36
1	847	1894.04443127184	35
1	855	1908.068432641432	35
1	859	1917.112298752113	36
1	868	1928.548868381647	37
1	871	1943.202172054068	38
1	873	1943.853450068646	39
1	875	1947.491857768771	40
1	877	1952.257540051665	41
1	879	1953.894543985779	42
1	884	1967.391884018465	43
1	886	1968.953078841886	44
1	891	1975.753052079742	45
1	895	1980.675212583733	46
1	897	1984.434920620764	47
1	899	1988.17588147654	48
1	905	1997.039189549181	49
1	907	2006.675050578551	50
1	910	2013.603734137001	51
1	912	2013.712213650688	52
1	917	2016.571851117598	53
1	919	2017.433573627472	54
1	921	2021.377678270243	55
1	926	2031.751956071526	56
1	931	2052.242150349561	57
1	935	2060.513224836688	58
1	937	2061.071047269637	59
1	940	2085.179997703273	60
1	942	2087.200259857916	61
1	944	2096.341755515323	61
1	945	2098.776813586951	60
1	946	2101.156211578959	59
1	947	2106.370303764746	58
1	948	2108.242965425276	57
1	949	2114.768646529915	56
1	950	2115.574598971601	55
1	951	2115.710638490341	54
1	958	2124.846046838009	54
1	964	2147.294971925394	55
1	971	2177.816263260765	55
1	972	2179.756887594547	54
1	974	2181.080498134622	54
1	976	2182.839138302258	55
1	977	2189.705293569658	55
1	979	2191.644797750578	55
1	980	2192.951346329108	55
1	984	2195.95231590076	54
1	985	2197.883706349449	53
1	986	2203.979000208876	52
1	987	2204.567573212919	51
1	988	2209.406780152316	50
1	989	2209.594080784589	49
1	991	2213.834378504324	49
1	992	2215.041914371458	49
1	994	2216.879486632086	49
1	995	2219.17430959839	49
1	999	2221.076484284912	49
1	1001	2225.648999783634	50
1	1003	2228.624171299574	50
1	1004	2228.764698626412	49
1	1005	2229.203384997854	48
1	1006	2231.984023057192	47
1	1007	2233.676220883055	46
1	1008	2236.429874493902	45
1	1010	2236.923596929798	45
1	1012	2243.644770406919	46
1	1013	2244.01330382049	46
1	1014	2248.269920939739	45
1	1015	2256.671752522558	44
1	1016	2257.369433575369	43
1	1017	2259.725938104887	42
1	1018	2264.269209633831	41
1	1019	2264.638210743454	40
1	1020	2265.275198640673	39
1	1022	2265.943846688117	39
1	1023	2271.89025340236	39
1	1027	2278.84125004028	39
1	1029	2292.820461838195	39
1	1030	2293.070085264323	38
1	1031	2295.246755109673	37
1	1035	2303.091160509962	36
1	1036	2304.409252543473	35
1	1037	2305.890367560051	34
1	1038	2306.125573303012	33
1	1039	2307.411488808312	32
1	1040	2312.667645026192	31
1	1044	2320.663942450987	30
1	1045	2321.558379413511	29
1	1046	2322.554064288255	28
1	1047	2323.424561080502	27
1	1052	2325.20156429716	27
1	1053	2332.861253328433	27
1	1055	2335.233532933645	27
1	1056	2337.176908736097	27
1	1057	2338.605654078325	26
1	1058	2339.0134237002	25
1	1059	2339.597384188453	24
1	1061	2345.440787043552	24
1	1062	2349.696396940941	24
1	1066	2354.384217584996	23
1	1068	2357.58083537246	23
1	1069	2358.12614448751	23
1	1070	2359.973814468405	22
1	1071	2360.964175976642	21
1	1073	2362.672863402485	21
1	1074	2363.582584310576	21
1	1075	2367.386919010552	20
1	1076	2368.870952258428	19
1	1077	2371.611155119028	18
1	1078	2373.170918929115	17
1	1079	2380.321516722221	16
1	1081	2380.495826501538	16
1	1082	2381.07803175235	16
1	1083	2387.146404258458	15
1	1085	2387.22080609807	15
1	1086	2392.92252861023	15
1	1087	2395.814002362999	14
1	1088	2396.907055625199	13
1	1089	2403.702849802197	12
1	1090	2406.066156629264	11
1	1091	2406.546128938688	10
1	1093	2408.542308582601	10
1	1094	2409.452640774688	10
1	1096	2410.226325649505	10
1	1101	2413.640233561452	11
1	1102	2414.03938512363	11
1	1103	2415.016763130363	10
1	1104	2418.41990350864	9
1	1105	2420.488806657395	8
1	1106	2421.158369405007	7
1	1107	2421.904570572608	6
1	1109	2421.961824707125	6
1	1110	2423.067699737967	6
1	1111	2427.468808022781	5
1	1112	2428.082033979172	4
1	1113	2428.097488677907	3
1	1114	2428.198979476245	2
1	1115	2428.822785045352	1
1	1116	2431.234042718978	0
1	1118	2439.826725366544	0
1	1119	2446.614411896092	0
1	1121	2448.966925486014	0
1	1122	2450.067141109586	0
1	1126	2457.299839417518	0
1	1128	2461.289238194113	1
1	1135	2473.170198392813	2
1	1138	2481.059061575314	3
1	1140	2492.023801018808	3
1	1141	2493.276354795643	2
1	1145	2499.499774204514	1
2	131	353.474320604805	0
2	137	362.221650059944	0
2	140	388.918922681755	0
2	143	392.397169629383	0.712172489329
2	146	395.019802484376	1.506355429953
2	149	398.010411121416	1.191478996433
2	152	411.073237962121	0
2	155	418.275100492741	0
2	160	428.108025612129	8.518136705067
2	161	430.412339561315	10.050827580524
2	164	431.413467444418	0
2	167	433.346302192891	0
2	177	449.463854336735	15.271362343102
2	178	451.134861011681	5.70230495084
2	179	451.679202098085	4.781145206833
2	182	457.624761079718	0
2	185	462.992411790454	0
2	191	477.732048514976	0
2	194	479.565660162456	0
2	200	506.907177080105	0
2	203	513.738339388835	5.553628455339
2	208	525.433455236245	11.638803973516
2	213	527.818576656184	5.195495520584
2	216	531.992365649541	6.28863574191
2	217	532.821090230016	6.060390025084
2	220	536.369917543422	7.216523328657
2	223	537.562424437577	3.899433717281
2	230	548.831151786182	12.254420122354
2	231	549.069142518712	11.438243665006
2	232	549.07181676058	10.085606346199
2	235	551.738780382548	9.599183638683
2	240	553.501810846022	3.959350961131
2	247	558.258544384844	6.403469417868
2	252	565.676896141105	12.712745926245
2	257	567.645443820735	12.35264579926
2	260	574.366849700753	18.836649808476
2	263	585.584887843239	28.198309526072
2	264	586.448807095774	27.86725800498
2	265	589.124435605338	24.450345091174
2	266	592.171509557333	25.174568316948
2	267	596.968454958998	29.769722599691
2	268	597.439295957865	29.633220797224
2	273	606.796695733799	29.911175568511
2	274	606.853407175089	7.568537391907
2	294	658.079826473469	58.711599381261
2	295	662.080209396808	54.109437742375
2	296	663.634177240131	54.017003526254
2	297	666.92984098781	48.164640944334
2	298	667.052246354642	38.940795654905
2	299	669.199808397254	25.220947752462
2	304	674.861485307996	4.100446501456
2	307	677.167392239297	3.386199819798
2	319	703.75158360354	26.727466891205
2	320	704.322240789918	24.582087132115
2	325	710.459423992077	29.900682846357
2	326	712.409773736513	22.303125476439
2	329	715.788448939623	19.955438941098
2	330	719.909125921649	13.448750717974
2	331	727.072182717278	16.882995524302
2	332	727.609068564655	13.57779056983
2	335	731.775873033881	2.091621869142
2	338	746.56073465194	0
2	341	748.358234046267	1.022887965049
2	344	752.507465201618	0
2	347	764.711850508577	0
2	356	779.392366829766	0
2	403	870.047381797286	71.320206267287
2	414	884.893081550636	79.147095357168
2	415	885.473171291903	76.096357162295
2	416	890.696090685668	76.350470155989
2	417	892.634867826567	75.691439445109
2	418	893.148017928835	72.946157810075
2	419	896.627561962148	72.975274399111
2	420	899.852359067774	76.000017234132
2	435	926.140443930491	87.174845620117
2	436	926.429765602003	76.763917055648
2	437	926.965780355705	71.765634908695
2	440	935.863911711049	63.593105342831
2	441	936.179790877262	61.241518015647
2	442	937.33969160723	61.697520864947
2	443	937.641723970458	58.725331368895
2	444	940.323246667443	60.128503538066
2	447	942.006495866329	40.594515814256
2	448	942.714238926064	34.411574236647
2	449	945.15621102678	32.276092295545
2	452	948.114739708583	33.960726186674
2	455	950.238380396013	32.016926893919
2	456	954.652775469716	34.186035102189
2	457	957.796634410199	36.527017152857
2	458	959.719707878171	31.449319018024
2	461	961.680882730615	20.911453065278
2	462	962.665046838598	15.727658294147
2	463	967.462618014094	19.084558931882
2	464	968.319263127365	7.042837655383
2	467	970.700450852022	1.843278875556
2	473	985.637922849169	0
2	476	988.927725265876	0.890439894487
2	479	990.293399767415	0
2	482	994.830844296818	0
2	493	1023.242580810454	16.432949936712
2	494	1025.477181269589	16.900256111343
2	497	1025.703032955695	0.000421608446
2	504	1037.17584078757	11.316748247531
2	507	1039.045367586291	11.664426890314
2	510	1042.210682021809	10.173552875932
2	511	1043.311221620269	5.075384150926
2	516	1052.846074345197	13.185649857611
2	517	1055.422112769883	11.087585149964
2	518	1058.318125890942	6.463471294335
2	524	1074.31977533199	4.525698184531
2	527	1092.429440543177	0
2	534	1113.939278001326	14.333263735491
2	537	1118.861125740923	11.872565398677
2	538	1122.996371205429	14.983391355025
2	541	1129.668706790483	14.55412576808
2	546	1137.009941526243	11.95971736138
2	547	1145.037668187703	13.449211431186
2	550	1152.369269375183	16.228270741451
2	551	1154.689540640181	8.692250447352
2	558	1159.016908227381	3.361042810405
2	559	1162.841316732592	5.290948466397
2	564	1167.444912049629	9.833697523671
2	565	1169.096204384102	6.211399576322
2	566	1170.335399946368	3.551376715376
2	572	1201.198363559256	0
2	575	1233.994475151404	0
2	578	1239.060307058043	4.422051275055
2	581	1245.207501304281	0
2	584	1252.287471471351	0
2	587	1254.206290955415	1.247981582684
2	590	1255.544300550687	0
2	593	1259.029977286866	1.32777223643
2	596	1273.575107147716	0
2	599	1282.000157476293	0
2	605	1308.042757533478	0
2	608	1322.442427890273	0
2	611	1354.450041299215	0
2	614	1359.808667138904	0
2	617	1365.567060418044	0
2	620	1379.527834508314	0
2	623	1388.343387569061	0
2	626	1394.653075402698	3.122353219376
2	631	1400.038311045673	4.050662281809
2	636	1407.183490584233	9.979675821659
2	639	1416.692034113567	13.220246692651
2	640	1417.681386795792	11.948796693942
2	641	1419.470764615243	11.875300629433
2	765	1708.815510207196	287.76309043421
2	766	1710.550802427666	288.37613469649
2	767	1717.655266982285	251.98996835579
2	768	1720.143979800123	237.00334177877
2	769	1721.281884638154	234.30072239419
2	777	1738.302867094639	248.09127513868
2	778	1740.178362834784	247.70266260376
2	779	1740.272348799888	246.67145530442
2	780	1742.659587877497	246.03933919495
2	820	1838.745429108842	339.49441949116
2	829	1866.308845756779	365.11810044616
2	830	1870.136981764179	366.58195427689
2	835	1879.364948243035	375.52223385014
2	836	1881.126251836606	373.71607211362
2	837	1883.07741261371	352.78580367899
2	838	1883.13422342372	352.74929814336
2	839	1884.182585995098	346.72505725543
2	842	1888.974103239369	335.81206248029
2	845	1891.844120911297	321.70704063049
2	846	1891.868852599971	318.59407563381
2	847	1894.04443127184	313.26695183563
2	943	2095.210209406016	477.76016853895
2	944	2096.341755515323	478.14229894707
2	945	2098.776813586951	459.21206086342
2	946	2101.156211578959	441.57653123478
2	947	2106.370303764746	445.28603530034
2	948	2108.242965425276	446.42205629562
2	949	2114.768646529915	450.542048862
2	950	2115.574598971601	444.91859780165
2	951	2115.710638490341	422.97761657894
2	962	2135.032313548892	441.91015261032
2	970	2175.873643761024	479.08160893151
2	971	2177.816263260765	471.24022966368
2	972	2179.756887594547	454.58331804503
2	977	2189.705293569658	452.12054210684
2	980	2192.951346329108	446.05662769507
2	983	2194.57309053505	431.68663812764
2	984	2195.95231590076	431.42603460525
2	985	2197.883706349449	426.53793266377
2	986	2203.979000208876	421.13880106997
2	987	2204.567573212919	417.46819950074
2	988	2209.406780152316	418.93271075298
2	989	2209.594080784589	410.95465652736
2	992	2215.041914371458	403.97023059178
2	995	2219.17430959839	403.47625841383
2	1002	2225.904941252976	407.71131133085
2	1003	2228.624171299574	408.69621517779
2	1004	2228.764698626412	388.53622671737
2	1005	2229.203384997854	387.6700311798
2	1006	2231.984023057192	383.15830086407
2	1007	2233.676220883055	381.87257943554
2	1008	2236.429874493902	364.83378350054
2	1013	2244.01330382049	370.97349258435
2	1014	2248.269920939739	359.63323082181
2	1015	2256.671752522558	366.95153822059
2	1016	2257.369433575369	360.98156229689
2	1017	2259.725938104887	351.65750546345
2	1018	2264.269209633831	347.15691088172
2	1019	2264.638210743454	336.08934236181
2	1020	2265.275198640673	322.07302658661
2	1023	2271.89025340236	328.03680333371
2	1028	2284.406220342328	336.91436257356
2	1029	2292.820461838195	340.56292178653
2	1030	2293.070085264323	339.17554127854
2	1031	2295.246755109673	327.85487109121
2	1034	2302.742741220915	333.78966237903
2	1035	2303.091160509962	327.33810843022
2	1036	2304.409252543473	323.73403995974
2	1037	2305.890367560051	321.45544693929
2	1038	2306.125573303012	317.94969182647
2	1039	2307.411488808312	310.37229925913
2	1040	2312.667645026192	305.99259444764
2	1043	2318.378577295934	304.77484315893
2	1044	2320.663942450987	306.9517288003
2	1045	2321.558379413511	304.98652829591
2	1046	2322.554064288255	305.12049066078
2	1047	2323.424561080502	302.04688281026
2	1050	2324.864532489092	293.11257641757
2	1053	2332.861253328433	280.61910297887
2	1056	2337.176908736097	276.66368389941
2	1057	2338.605654078325	277.53460680869
2	1058	2339.0134237002	253.83342599693
2	1059	2339.597384188453	252.39712433054
2	1062	2349.696396940941	230.61861704697
2	1065	2353.601516447837	228.75546960983
2	1066	2354.384217584996	207.0892456596
2	1069	2358.12614448751	210.04568879061
2	1070	2359.973814468405	178.89331633378
2	1071	2360.964175976642	178.12503767438
2	1074	2363.582584310576	171.93778656
2	1075	2367.386919010552	173.69775433563
2	1076	2368.870952258428	155.0365737541
2	1077	2371.611155119028	154.73166848694
2	1078	2373.170918929115	153.29264158755
2	1079	2380.321516722221	159.24503243731
2	1082	2381.07803175235	155.42903196872
2	1083	2387.146404258458	150.22280732866
2	1086	2392.92252861023	149.27775820331
2	1087	2395.814002362999	129.87015567488
2	1088	2396.907055625199	124.53166767923
2	1089	2403.702849802197	124.86159976192
2	1090	2406.066156629264	106.99395027186
2	1091	2406.546128938688	92.366343996585
2	1094	2409.452640774688	85.599362692658
2	1099	2411.890068091212	86.688503794052
2	1102	2414.03938512363	78.805852189985
2	1103	2415.016763130363	69.575976086811
2	1104	2418.41990350864	65.945941688056
2	1105	2420.488806657395	62.907971284935
2	1106	2421.158369405007	58.485506002522
2	1107	2421.904570572608	41.40874407107
2	1110	2423.067699737967	35.846893639897
2	1111	2427.468808022781	18.92649944018
2	1112	2428.082033979172	17.855708329667
2	1113	2428.097488677907	17.805698186709
2	1114	2428.198979476245	14.558745914793
2	1115	2428.822785045352	6.860960338227
2	1118	2439.826725366544	0
2	1121	2448.966925486014	0
2	1129	2462.541676939389	5.241837521871
2	1139	2491.708461688808	30.419223494695
2	1140	2492.023801018808	27.997512759816
2	1141	2493.276354795643	20.10615640283
2	1144	2498.3952084096	17.336146834286
2	1145	2499.499774204514	2.214566754277
3	132	358.59872662122	33
3	138	363.24826542092	34
3	143	392.397169629383	35
3	146	395.019802484376	36
3	149	398.010411121416	37
3	150	400.464007824233	38
3	153	412.461197917693	39
3	160	428.108025612129	40
3	161	430.412339561315	41
3	162	431.11062332323	42
3	165	431.983906825584	43
3	178	451.134861011681	44
3	179	451.679202098085	45
3	180	455.880932148793	46
3	183	457.975945442616	47
3	186	465.718241534729	48
3	192	478.914969266378	49
3	195	480.490321954772	50
3	203	513.738339388835	51
3	208	525.433455236245	52
3	213	527.818576656184	53
3	216	531.992365649541	54
3	217	532.821090230016	55
3	223	537.562424437577	56
3	231	549.069142518712	57
3	232	549.07181676058	58
3	235	551.738780382548	59
3	240	553.501810846022	60
3	247	558.258544384844	61
3	252	565.676896141105	62
3	257	567.645443820735	63
3	260	574.366849700753	64
3	264	586.448807095774	65
3	265	589.124435605338	66
3	266	592.171509557333	67
3	267	596.968454958998	68
3	268	597.439295957865	69
3	274	606.853407175089	70
3	295	662.080209396808	71
3	296	663.634177240131	72
3	297	666.92984098781	73
3	298	667.052246354642	74
3	299	669.199808397254	75
3	304	674.861485307996	76
3	307	677.167392239297	77
3	320	704.322240789918	78
3	325	710.459423992077	79
3	326	712.409773736513	80
3	329	715.788448939623	81
3	330	719.909125921649	82
3	331	727.072182717278	83
3	332	727.609068564655	84
3	336	732.000987672849	85
3	341	748.358234046267	86
3	342	748.969069001764	87
3	345	760.840283693428	88
3	348	764.999268028699	89
3	357	779.772463205868	90
3	415	885.473171291903	91
3	416	890.696090685668	92
3	417	892.634867826567	93
3	418	893.148017928835	94
3	419	896.627561962148	95
3	420	899.852359067774	96
3	436	926.429765602003	97
3	437	926.965780355705	98
3	440	935.863911711049	99
3	441	936.179790877262	100
3	442	937.33969160723	101
3	443	937.641723970458	102
3	444	940.323246667443	103
3	447	942.006495866329	104
3	448	942.714238926064	105
3	449	945.15621102678	106
3	452	948.114739708583	107
3	455	950.238380396013	108
3	456	954.652775469716	109
3	457	957.796634410199	110
3	458	959.719707878171	111
3	461	961.680882730615	112
3	462	962.665046838598	113
3	463	967.462618014094	114
3	464	968.319263127365	115
3	467	970.700450852022	116
3	468	971.009062601221	117
3	477	989.437392452922	118
3	480	994.507461790829	119
3	483	995.128205022835	120
3	494	1025.477181269589	121
3	497	1025.703032955695	122
3	510	1042.210682021809	123
3	511	1043.311221620269	124
3	517	1055.422112769883	125
3	518	1058.318125890942	126
3	519	1059.228726738221	127
3	525	1075.132437067406	128
3	534	1113.939278001326	129
3	538	1122.996371205429	130
3	547	1145.037668187703	131
3	551	1154.689540640181	132
3	559	1162.841316732592	133
3	564	1167.444912049629	134
3	565	1169.096204384102	135
3	566	1170.335399946368	136
3	567	1170.394782446899	137
3	573	1201.71905101122	138
3	578	1239.060307058043	139
3	579	1239.07448644431	140
3	582	1245.510269657147	141
3	587	1254.206290955415	142
3	588	1254.51961703042	143
3	593	1259.029977286866	144
3	594	1259.824647330626	145
3	597	1274.843626114822	146
3	600	1283.399761557116	147
3	606	1313.051367723481	148
3	609	1322.774739083963	149
3	612	1356.640306556218	150
3	615	1362.732944373754	151
3	618	1366.688760132084	152
3	621	1380.78193073095	153
3	626	1394.653075402698	154
3	639	1416.692034113567	155
3	640	1417.681386795792	156
3	641	1419.470764615243	157
3	766	1710.550802427666	158
3	767	1717.655266982285	159
3	768	1720.143979800123	160
3	769	1721.281884638154	161
3	778	1740.178362834784	162
3	779	1740.272348799888	163
3	780	1742.659587877497	164
3	830	1870.136981764179	165
3	835	1879.364948243035	166
3	836	1881.126251836606	167
3	837	1883.07741261371	168
3	838	1883.13422342372	169
3	839	1884.182585995098	170
3	842	1888.974103239369	171
3	845	1891.844120911297	172
3	846	1891.868852599971	173
3	847	1894.04443127184	174
3	944	2096.341755515323	175
3	945	2098.776813586951	176
3	946	2101.156211578959	177
3	947	2106.370303764746	178
3	948	2108.242965425276	179
3	949	2114.768646529915	180
3	950	2115.574598971601	181
3	951	2115.710638490341	182
3	971	2177.816263260765	183
3	972	2179.756887594547	184
3	977	2189.705293569658	185
3	980	2192.951346329108	186
3	984	2195.95231590076	187
3	985	2197.883706349449	188
3	986	2203.979000208876	189
3	987	2204.567573212919	190
3	988	2209.406780152316	191
3	989	2209.594080784589	192
3	992	2215.041914371458	193
3	995	2219.17430959839	194
3	1003	2228.624171299574	195
3	1004	2228.764698626412	196
3	1005	2229.203384997854	197
3	1006	2231.984023057192	198
3	1007	2233.676220883055	199
3	1008	2236.429874493902	200
3	1013	2244.01330382049	201
3	1014	2248.269920939739	202
3	1015	2256.671752522558	203
3	1016	2257.369433575369	204
3	1017	2259.725938104887	205
3	1018	2264.269209633831	206
3	1019	2264.638210743454	207
3	1020	2265.275198640673	208
3	1023	2271.89025340236	209
3	1029	2292.820461838195	210
3	1030	2293.070085264323	211
3	1031	2295.246755109673	212
3	1035	2303.091160509962	213
3	1036	2304.409252543473	214
3	1037	2305.890367560051	215
3	1038	2306.125573303012	216
3	1039	2307.411488808312	217
3	1040	2312.667645026192	218
3	1044	2320.663942450987	219
3	1045	2321.558379413511	220
3	1046	2322.554064288255	221
3	1047	2323.424561080502	222
3	1053	2332.861253328433	223
3	1056	2337.176908736097	224
3	1057	2338.605654078325	225
3	1058	2339.0134237002	226
3	1059	2339.597384188453	227
3	1062	2349.696396940941	228
3	1066	2354.384217584996	229
3	1069	2358.12614448751	230
3	1070	2359.973814468405	231
3	1071	2360.964175976642	232
3	1074	2363.582584310576	233
3	1075	2367.386919010552	234
3	1076	2368.870952258428	235
3	1077	2371.611155119028	236
3	1078	2373.170918929115	237
3	1079	2380.321516722221	238
3	1082	2381.07803175235	239
3	1083	2387.146404258458	240
3	1086	2392.92252861023	241
3	1087	2395.814002362999	242
3	1088	2396.907055625199	243
3	1089	2403.702849802197	244
3	1090	2406.066156629264	245
3	1091	2406.546128938688	246
3	1094	2409.452640774688	247
3	1102	2414.03938512363	248
3	1103	2415.016763130363	249
3	1104	2418.41990350864	250
3	1105	2420.488806657395	251
3	1106	2421.158369405007	252
3	1107	2421.904570572608	253
3	1110	2423.067699737967	254
3	1111	2427.468808022781	255
3	1112	2428.082033979172	256
3	1113	2428.097488677907	257
3	1114	2428.198979476245	258
3	1115	2428.822785045352	259
3	1116	2431.234042718978	260
3	1119	2446.614411896092	261
3	1122	2450.067141109586	262
3	1140	2492.023801018808	263
3	1141	2493.276354795643	264
3	1145	2499.499774204514	265
4	132	358.59872662122	5.124406016415
4	138	363.24826542092	1.026615360976
4	143	392.397169629383	3.478246947628
4	146	395.019802484376	3.334805344322
4	149	398.010411121416	4.496964066993
4	150	400.464007824233	3.64507569925
4	153	412.461197917693	1.387959955572
4	160	428.108025612129	9.832925119388
4	161	430.412339561315	10.822450654253
4	162	431.11062332323	10.749111342439
4	165	431.983906825584	0.570439381166
4	178	451.134861011681	16.942369018048
4	179	451.679202098085	6.246646037244
4	180	455.880932148793	8.982875257541
4	183	457.975945442616	0.351184362898
4	186	465.718241534729	2.725829744275
4	192	478.914969266378	1.182920751402
4	195	480.490321954772	0.924661792316
4	203	513.738339388835	6.83116230873
4	208	525.433455236245	17.248744302749
4	213	527.818576656184	14.023925393455
4	216	531.992365649541	9.369284513941
4	217	532.821090230016	7.117360322385
4	223	537.562424437577	8.409030222812
4	231	549.069142518712	12.492410854884
4	232	549.07181676058	11.440917906874
4	235	551.738780382548	12.752569968167
4	240	553.501810846022	11.362214102157
4	247	558.258544384844	8.716084499953
4	252	565.676896141105	13.821821174129
4	257	567.645443820735	14.681293605875
4	260	574.366849700753	19.074051679278
4	264	586.448807095774	29.062228778607
4	265	589.124435605338	30.542886514544
4	266	592.171509557333	27.497419043169
4	267	596.968454958998	29.971513718613
4	268	597.439295957865	30.240563598558
4	274	606.853407175089	29.967887009801
4	295	662.080209396808	62.7119823046
4	296	663.634177240131	55.663405585698
4	297	666.92984098781	57.312667273933
4	298	667.052246354642	48.287046311166
4	299	669.199808397254	41.088357697517
4	304	674.861485307996	30.882624663204
4	307	677.167392239297	6.406353432757
4	320	704.322240789918	27.298124077583
4	325	710.459423992077	30.719270334274
4	326	712.409773736513	31.851032590793
4	329	715.788448939623	25.681800679549
4	330	719.909125921649	24.076115923124
4	331	727.072182717278	20.611807513603
4	332	727.609068564655	17.419881371679
4	336	732.000987672849	2.31673650811
4	341	748.358234046267	1.797499394327
4	342	748.969069001764	1.633722920546
4	345	760.840283693428	8.33281849181
4	348	764.999268028699	0.287417520122
4	357	779.772463205868	0.380096376102
4	415	885.473171291903	79.727185098435
4	416	890.696090685668	81.31927655606
4	417	892.634867826567	78.289247296888
4	418	893.148017928835	76.204589547377
4	419	896.627561962148	76.425701843388
4	420	899.852359067774	76.200071504737
4	436	926.429765602003	87.464167291629
4	437	926.965780355705	77.29993180935
4	440	935.863911711049	80.663766264039
4	441	936.179790877262	63.908984509044
4	442	937.33969160723	62.401418745615
4	443	937.641723970458	61.999553228175
4	444	940.323246667443	61.40685406588
4	447	942.006495866329	61.811752736952
4	448	942.714238926064	41.302258873991
4	449	945.15621102678	36.853546337363
4	452	948.114739708583	35.234620977348
4	455	950.238380396013	36.084366874104
4	456	954.652775469716	36.431321967622
4	457	957.796634410199	37.329894042672
4	458	959.719707878171	38.450090620829
4	461	961.680882730615	33.410493870468
4	462	962.665046838598	21.895617173261
4	463	967.462618014094	20.525229469643
4	464	968.319263127365	19.941204045153
4	467	970.700450852022	9.42402538004
4	468	971.009062601221	2.151890624755
4	477	989.437392452922	1.400107081533
4	480	994.507461790829	4.214062023414
4	483	995.128205022835	0.297360726017
4	494	1025.477181269589	18.667550395847
4	497	1025.703032955695	17.126107797449
4	510	1042.210682021809	14.829741325832
4	511	1043.311221620269	11.274092474392
4	517	1055.422112769883	15.761688282297
4	518	1058.318125890942	13.983598271023
4	519	1059.228726738221	7.374072141614
4	525	1075.132437067406	5.338359919947
4	534	1113.939278001326	21.509837458149
4	538	1122.996371205429	16.007810863183
4	547	1145.037668187703	19.98744402284
4	551	1154.689540640181	18.548542006449
4	559	1162.841316732592	7.185451315616
4	564	1167.444912049629	9.894543783434
4	565	1169.096204384102	11.484989858144
4	566	1170.335399946368	7.450595138588
4	567	1170.394782446899	3.610759215907
4	573	1201.71905101122	0.520687451964
4	578	1239.060307058043	5.065831906639
4	579	1239.07448644431	4.436230661322
4	582	1245.510269657147	0.302768352866
4	587	1254.206290955415	1.918819484064
4	588	1254.51961703042	1.561307657689
4	593	1259.029977286866	3.485676736179
4	594	1259.824647330626	2.12244228019
4	597	1274.843626114822	1.268518967106
4	600	1283.399761557116	1.399604080823
4	606	1313.051367723481	5.008610190003
4	609	1322.774739083963	0.33231119369
4	612	1356.640306556218	2.190265257003
4	615	1362.732944373754	2.92427723485
4	618	1366.688760132084	1.12169971404
4	621	1380.78193073095	1.254096222636
4	626	1394.653075402698	6.309687833637
4	639	1416.692034113567	19.488219350993
4	640	1417.681386795792	14.209599374876
4	641	1419.470764615243	13.738174513393
4	766	1710.550802427666	289.49838265468
4	767	1717.655266982285	295.48059925111
4	768	1720.143979800123	254.47868117363
4	769	1721.281884638154	238.1412466168
4	778	1740.178362834784	249.96677087883
4	779	1740.272348799888	247.79664856886
4	780	1742.659587877497	249.05869438203
4	830	1870.136981764179	368.94623645356
4	835	1879.364948243035	375.80992075574
4	836	1881.126251836606	377.28353744372
4	837	1883.07741261371	375.66723289072
4	838	1883.13422342372	352.842614489
4	839	1884.182585995098	353.79766071474
4	842	1888.974103239369	351.5165744997
4	845	1891.844120911297	338.68208015222
4	846	1891.868852599971	321.73177231916
4	847	1894.04443127184	320.76965430568
4	944	2096.341755515323	478.89171464825
4	945	2098.776813586951	480.5773570187
4	946	2101.156211578959	461.59145885543
4	947	2106.370303764746	446.79062342056
4	948	2108.242965425276	447.15869696087
4	949	2114.768646529915	452.94773740026
4	950	2115.574598971601	451.34800130368
4	951	2115.710638490341	445.05463732039
4	971	2177.816263260765	481.02422843125
4	972	2179.756887594547	473.18085399746
4	977	2189.705293569658	464.53172402014
4	980	2192.951346329108	455.36659486629
4	984	2195.95231590076	433.06586349335
4	985	2197.883706349449	433.35742505394
4	986	2203.979000208876	432.63322652319
4	987	2204.567573212919	421.72737407401
4	988	2209.406780152316	422.30740644014
4	989	2209.594080784589	419.12001138525
4	992	2215.041914371458	416.40249011423
4	995	2219.17430959839	408.10262581871
4	1003	2228.624171299574	410.43054137745
4	1004	2228.764698626412	408.83674250463
4	1005	2229.203384997854	388.97491308881
4	1006	2231.984023057192	390.45066923914
4	1007	2233.676220883055	384.85049868993
4	1008	2236.429874493902	384.62623304638
4	1013	2244.01330382049	372.41721282713
4	1014	2248.269920939739	375.2301097036
4	1015	2256.671752522558	368.03506240463
4	1016	2257.369433575369	367.6492192734
4	1017	2259.725938104887	363.33806682641
4	1018	2264.269209633831	356.2007769924
4	1019	2264.638210743454	347.52591199134
4	1020	2265.275198640673	336.72633025903
4	1023	2271.89025340236	328.68808134829
4	1029	2292.820461838195	345.32860406942
4	1030	2293.070085264323	340.81254521266
4	1031	2295.246755109673	341.35221112389
4	1035	2303.091160509962	334.13808166808
4	1036	2304.409252543473	328.65620046373
4	1037	2305.890367560051	325.21515497632
4	1038	2306.125573303012	321.69065268225
4	1039	2307.411488808312	319.23560733177
4	1040	2312.667645026192	315.62845547701
4	1044	2320.663942450987	307.06020831399
4	1045	2321.558379413511	307.84616576282
4	1046	2322.554064288255	305.98221317066
4	1047	2323.424561080502	305.99098745303
4	1053	2332.861253328433	301.10929725691
4	1056	2337.176908736097	284.93475838654
4	1057	2338.605654078325	278.09242924164
4	1058	2339.0134237002	277.94237643056
4	1059	2339.597384188453	254.41738648518
4	1062	2349.696396940941	262.49613708303
4	1066	2354.384217584996	229.53817074699
4	1069	2358.12614448751	210.83117256212
4	1070	2359.973814468405	211.8933587715
4	1071	2360.964175976642	179.88367784202
4	1074	2363.582584310576	180.74344600832
4	1075	2367.386919010552	175.74212125997
4	1076	2368.870952258428	175.1817875835
4	1077	2371.611155119028	157.7767766147
4	1078	2373.170918929115	156.29143229703
4	1079	2380.321516722221	160.44323938066
4	1082	2381.07803175235	160.00154746744
4	1083	2387.146404258458	161.49740447482
4	1086	2392.92252861023	155.99893168043
4	1087	2395.814002362999	152.16923195608
4	1088	2396.907055625199	130.96320893708
4	1089	2403.702849802197	131.32746185623
4	1090	2406.066156629264	127.22490658898
4	1091	2406.546128938688	107.47392258128
4	1094	2409.452640774688	95.272855832585
4	1102	2414.03938512363	88.83782082647
4	1103	2415.016763130363	79.783230196718
4	1104	2418.41990350864	72.979116465088
4	1105	2420.488806657395	68.014844836811
4	1106	2421.158369405007	63.577534032547
4	1107	2421.904570572608	59.231707170123
4	1110	2423.067699737967	42.571873236429
4	1111	2427.468808022781	40.248001924711
4	1112	2428.082033979172	19.539725396571
4	1113	2428.097488677907	17.871163028402
4	1114	2428.198979476245	17.907188985047
4	1115	2428.822785045352	15.1825514839
4	1116	2431.234042718978	9.272218011853
4	1119	2446.614411896092	6.787686529548
4	1122	2450.067141109586	1.100215623572
4	1140	2492.023801018808	30.734562824695
4	1141	2493.276354795643	29.250066536651
4	1145	2499.499774204514	18.4407126292
5	134	360.864535828211	1
5	169	434.192491993633	1
5	171	434.455210291892	2
5	188	473.418125660566	1
5	197	494.985859456131	1
5	219	533.662990720296	1
5	225	537.630898853706	1
5	262	576.885520165288	1
5	270	599.284869783182	1
5	276	607.970771654433	1
5	284	634.887930512541	2
5	286	639.653880988209	3
5	292	649.417160232028	2
5	309	679.740153657803	1
5	313	683.74995469966	2
5	334	729.684251164739	1
5	350	765.453022773889	1
5	352	766.43135895336	2
5	359	788.973306370394	1
5	362	791.930488403228	1
5	365	795.155632926391	1
5	369	799.035351057598	2
5	371	800.178837360028	3
5	373	800.927631421423	4
5	394	849.464980582621	2
5	401	863.752104327907	2
5	405	872.270806368218	1
5	422	901.411980052073	1
5	470	974.77567001264	1
5	475	988.037285371389	1
5	485	1006.593199994784	1
5	491	1011.297870756273	2
5	501	1027.380940695977	1
5	506	1038.235837469343	1
5	515	1051.854654596607	1
5	521	1068.457324359042	1
5	536	1115.114581022403	1
5	540	1125.050224164863	1
5	543	1131.588456756517	1
5	549	1145.997290192829	1
5	553	1155.655865416976	1
5	569	1179.480158523593	1
5	602	1287.669619001015	1
5	630	1397.203814762574	1
5	633	1403.471787420916	1
5	645	1422.174667731178	1
5	647	1425.541955577038	2
5	649	1459.809802668981	3
5	651	1463.472783701677	4
5	655	1468.258265090104	5
5	658	1477.030327765908	5
5	664	1483.733119445775	4
5	680	1502.192571971784	5
5	690	1513.824900073327	4
5	697	1535.615523159129	4
5	701	1544.835433568439	5
5	703	1552.405657681915	6
5	707	1554.423249520396	7
5	717	1584.168946148526	6
5	720	1590.380435773746	6
5	723	1596.202799076679	6
5	725	1601.028906960768	7
5	727	1612.419185454763	8
5	737	1646.052593848569	7
5	752	1672.645983898138	5
5	771	1725.173569549517	1
5	773	1734.285532893839	2
5	782	1746.894718634036	1
5	784	1752.682965373174	2
5	786	1753.420297938543	3
5	788	1756.356175216809	4
5	796	1776.492643095432	5
5	807	1805.713256286704	5
5	822	1840.228471909046	1
5	849	1896.387871278477	1
5	851	1902.845844547256	2
5	853	1905.171414237391	3
5	861	1920.059414409871	2
5	863	1923.446138582809	3
5	866	1927.44617853084	3
5	882	1965.473024415792	2
5	889	1974.610237799757	2
5	893	1978.257315432963	3
5	901	1992.92582265826	4
5	903	1995.832788322231	5
5	914	2013.962719486096	5
5	923	2021.902296801776	5
5	933	2056.852604836569	2
5	953	2119.077779893969	1
5	955	2119.880416731758	2
5	960	2127.915740897932	2
5	966	2148.080455696903	1
5	968	2150.521770546261	2
5	982	2193.689164674927	1
5	997	2219.878277341564	1
5	1025	2272.375387945966	1
5	1033	2299.072206357407	1
5	1042	2314.179784942103	1
5	1049	2323.85327808203	1
5	1064	2352.473961820584	1
5	1098	2410.291790491198	1
5	1124	2457.099948359269	1
5	1131	2464.026288258992	1
5	1133	2465.224727782946	2
5	1143	2497.285207450237	1
6	134	360.864535828211	0
6	135	361.030127711124	0
6	169	434.192491993633	0
6	171	434.455210291892	1
6	172	438.214906153286	1
6	177	449.463854336735	0
6	188	473.418125660566	0
6	189	473.82252348704	0
6	197	494.985859456131	0
6	198	499.275050248278	0
6	219	533.662990720296	0
6	220	536.369917543422	0
6	225	537.630898853706	0
6	230	548.831151786182	0
6	262	576.885520165288	0
6	263	585.584887843239	0
6	270	599.284869783182	0
6	273	606.796695733799	0
6	276	607.970771654433	0
6	284	634.887930512541	1
6	286	639.653880988209	2
6	287	641.595781873851	2
6	290	646.038715778123	1
6	292	649.417160232028	1
6	293	657.542041188035	1
6	294	658.079826473469	0
6	309	679.740153657803	0
6	313	683.74995469966	1
6	316	691.831594900099	1
6	319	703.75158360354	0
6	334	729.684251164739	0
6	335	731.775873033881	0
6	350	765.453022773889	0
6	352	766.43135895336	1
6	353	766.764307014922	1
6	354	773.269767784407	0
6	359	788.973306370394	0
6	360	791.132496790525	0
6	362	791.930488403228	0
6	363	794.162546943151	0
6	365	795.155632926391	0
6	369	799.035351057598	1
6	371	800.178837360028	2
6	373	800.927631421423	3
6	376	808.702963114073	3
6	385	823.514556255038	2
6	392	839.975956334151	1
6	394	849.464980582621	1
6	399	856.181873789121	1
6	401	863.752104327907	1
6	402	868.69699206264	1
6	403	870.047381797286	0
6	405	872.270806368218	0
6	414	884.893081550636	0
6	422	901.411980052073	0
6	435	926.140443930491	0
6	470	974.77567001264	0
6	471	975.160956134167	0
6	475	988.037285371389	0
6	476	988.927725265876	0
6	485	1006.593199994784	0
6	491	1011.297870756273	1
6	492	1015.671144428133	1
6	493	1023.242580810454	0
6	501	1027.380940695977	0
6	504	1037.17584078757	0
6	506	1038.235837469343	0
6	507	1039.045367586291	0
6	515	1051.854654596607	0
6	516	1052.846074345197	0
6	521	1068.457324359042	0
6	524	1074.31977533199	0
6	536	1115.114581022403	0
6	537	1118.861125740923	0
6	540	1125.050224164863	0
6	541	1129.668706790483	0
6	543	1131.588456756517	0
6	546	1137.009941526243	0
6	549	1145.997290192829	0
6	550	1152.369269375183	0
6	553	1155.655865416976	0
6	558	1159.016908227381	0
6	569	1179.480158523593	0
6	570	1185.582043230267	0
6	602	1287.669619001015	0
6	603	1291.364360877876	0
6	630	1397.203814762574	0
6	631	1400.038311045673	0
6	633	1403.471787420916	0
6	636	1407.183490584233	0
6	645	1422.174667731178	0
6	647	1425.541955577038	1
6	649	1459.809802668981	2
6	651	1463.472783701677	3
6	655	1468.258265090104	4
6	656	1474.286757064176	4
6	658	1477.030327765908	4
6	659	1477.400259893238	4
6	660	1482.010730841313	3
6	664	1483.733119445775	3
6	680	1502.192571971784	4
6	685	1506.303861197613	4
6	688	1511.65321931172	3
6	690	1513.824900073327	3
6	695	1535.436614497794	3
6	697	1535.615523159129	3
6	701	1544.835433568439	4
6	703	1552.405657681915	5
6	707	1554.423249520396	6
6	708	1559.022782015382	6
6	709	1563.649427494268	5
6	717	1584.168946148526	5
6	718	1589.353955682926	5
6	720	1590.380435773746	5
6	721	1595.7838280525	5
6	723	1596.202799076679	5
6	725	1601.028906960768	6
6	727	1612.419185454763	7
6	732	1627.726721641361	7
6	735	1642.736843166749	6
6	737	1646.052593848569	6
6	738	1649.814017979935	6
6	739	1650.555775579625	5
6	750	1672.237251220243	4
6	752	1672.645983898138	4
6	753	1678.071261811984	4
6	754	1685.256922215798	3
6	759	1694.910487802017	2
6	762	1703.67581084552	1
6	765	1708.815510207196	0
6	771	1725.173569549517	0
6	773	1734.285532893839	1
6	774	1736.96437123042	1
6	777	1738.302867094639	0
6	782	1746.894718634036	0
6	784	1752.682965373174	1
6	786	1753.420297938543	2
6	788	1756.356175216809	3
6	796	1776.492643095432	4
6	801	1788.131650312039	4
6	807	1805.713256286704	4
6	808	1805.992472553597	4
6	809	1809.759169818585	3
6	818	1823.226220789591	2
6	819	1834.277064025699	1
6	820	1838.745429108842	0
6	822	1840.228471909046	0
6	829	1866.308845756779	0
6	849	1896.387871278477	0
6	851	1902.845844547256	1
6	853	1905.171414237391	2
6	856	1912.905064842528	2
6	857	1913.362694214513	1
6	861	1920.059414409871	1
6	863	1923.446138582809	2
6	864	1924.648422502538	2
6	866	1927.44617853084	2
6	869	1932.127883205202	2
6	880	1957.998389893091	1
6	882	1965.473024415792	1
6	887	1969.379097016846	1
6	889	1974.610237799757	1
6	893	1978.257315432963	2
6	901	1992.92582265826	3
6	903	1995.832788322231	4
6	908	2012.643591267135	4
6	914	2013.962719486096	4
6	915	2015.65835402988	4
6	923	2021.902296801776	4
6	924	2024.023071589833	4
6	927	2045.925790747653	3
6	928	2046.324740134234	2
6	929	2050.569980492677	1
6	933	2056.852604836569	1
6	938	2068.423899893756	1
6	943	2095.210209406016	0
6	953	2119.077779893969	0
6	955	2119.880416731758	1
6	956	2123.007447820192	1
6	960	2127.915740897932	1
6	961	2132.161714157252	1
6	962	2135.032313548892	0
6	966	2148.080455696903	0
6	968	2150.521770546261	1
6	969	2158.746541619292	1
6	970	2175.873643761024	0
6	982	2193.689164674927	0
6	983	2194.57309053505	0
6	997	2219.878277341564	0
6	1002	2225.904941252976	0
6	1025	2272.375387945966	0
6	1028	2284.406220342328	0
6	1033	2299.072206357407	0
6	1034	2302.742741220915	0
6	1042	2314.179784942103	0
6	1043	2318.378577295934	0
6	1049	2323.85327808203	0
6	1050	2324.864532489092	0
6	1064	2352.473961820584	0
6	1065	2353.601516447837	0
6	1098	2410.291790491198	0
6	1099	2411.890068091212	0
6	1124	2457.099948359269	0
6	1129	2462.541676939389	0
6	1131	2464.026288258992	0
6	1133	2465.224727782946	1
6	1136	2476.612271416372	1
6	1139	2491.708461688808	0
6	1143	2497.285207450237	0
6	1144	2498.3952084096	0
7	134	360.864535828211	0
7	169	434.192491993633	0
7	172	438.214906153286	3.759695861394
7	188	473.418125660566	0
7	197	494.985859456131	0
7	219	533.662990720296	0
7	225	537.630898853706	0
7	262	576.885520165288	0
7	270	599.284869783182	0
7	276	607.970771654433	0
7	287	641.595781873851	6.70785136131
7	290	646.038715778123	6.384834789914
7	293	657.542041188035	8.124880956007
7	309	679.740153657803	0
7	316	691.831594900099	8.081640200439
7	334	729.684251164739	0
7	350	765.453022773889	0
7	353	766.764307014922	0.332948061562
7	359	788.973306370394	0
7	362	791.930488403228	0
7	365	795.155632926391	0
7	376	808.702963114073	9.667612056475
7	385	823.514556255038	23.33571889501
7	392	839.975956334151	39.048324912728
7	399	856.181873789121	6.7168932065
7	402	868.69699206264	4.944887734733
7	405	872.270806368218	0
7	422	901.411980052073	0
7	470	974.77567001264	0
7	475	988.037285371389	0
7	485	1006.593199994784	0
7	492	1015.671144428133	4.37327367186
7	501	1027.380940695977	0
7	506	1038.235837469343	0
7	515	1051.854654596607	0
7	521	1068.457324359042	0
7	536	1115.114581022403	0
7	540	1125.050224164863	0
7	543	1131.588456756517	0
7	549	1145.997290192829	0
7	553	1155.655865416976	0
7	569	1179.480158523593	0
7	602	1287.669619001015	0
7	630	1397.203814762574	0
7	633	1403.471787420916	0
7	645	1422.174667731178	0
7	656	1474.286757064176	48.744801487138
7	659	1477.400259893238	17.590457224257
7	660	1482.010730841313	18.537947139636
7	685	1506.303861197613	38.045596107509
7	688	1511.65321931172	34.622891545812
7	695	1535.436614497794	51.703495052019
7	708	1559.022782015382	56.830210043598
7	709	1563.649427494268	49.824527420941
7	718	1589.353955682926	53.738432523797
7	721	1595.7838280525	50.948394484061
7	732	1627.726721641361	75.321063959446
7	735	1642.736843166749	88.313593646353
7	738	1649.814017979935	65.645071831409
7	739	1650.555775579625	60.175339805879
7	750	1672.237251220243	76.034452143564
7	753	1678.071261811984	77.042354851216
7	754	1685.256922215798	72.837736761035
7	759	1694.910487802017	48.857893953448
7	762	1703.67581084552	31.029826947382
7	771	1725.173569549517	0
7	774	1736.96437123042	2.678838336581
7	782	1746.894718634036	0
7	801	1788.131650312039	35.448684938865
7	808	1805.992472553597	52.572174615054
7	809	1809.759169818585	53.402994601776
7	818	1823.226220789591	46.733577694159
7	819	1834.277064025699	28.563807738995
7	822	1840.228471909046	0
7	849	1896.387871278477	0
7	856	1912.905064842528	10.059220295272
7	857	1913.362694214513	8.191279977122
7	864	1924.648422502538	4.589008092667
7	869	1932.127883205202	8.681744622393
7	880	1957.998389893091	30.552211362251
7	887	1969.379097016846	3.906072601054
7	908	2012.643591267135	38.033353467378
7	915	2015.65835402988	37.401038596917
7	924	2024.023071589833	31.097248931573
7	927	2045.925790747653	50.093002425422
7	928	2046.324740134234	32.362020648138
7	929	2050.569980492677	28.667683690901
7	938	2068.423899893756	11.571295057187
7	953	2119.077779893969	0
7	956	2123.007447820192	3.127031088434
7	961	2132.161714157252	4.24597325932
7	966	2148.080455696903	0
7	969	2158.746541619292	8.224771073031
7	982	2193.689164674927	0
7	997	2219.878277341564	0
7	1025	2272.375387945966	0
7	1033	2299.072206357407	0
7	1042	2314.179784942103	0
7	1049	2323.85327808203	0
7	1064	2352.473961820584	0
7	1098	2410.291790491198	0
7	1124	2457.099948359269	0
7	1131	2464.026288258992	0
7	1136	2476.612271416372	11.387543633426
7	1143	2497.285207450237	0
8	135	361.030127711124	12
8	172	438.214906153286	13
8	177	449.463854336735	14
8	189	473.82252348704	15
8	198	499.275050248278	16
8	220	536.369917543422	17
8	230	548.831151786182	18
8	263	585.584887843239	19
8	273	606.796695733799	20
8	287	641.595781873851	21
8	290	646.038715778123	22
8	293	657.542041188035	23
8	294	658.079826473469	24
8	316	691.831594900099	25
8	319	703.75158360354	26
8	335	731.775873033881	27
8	353	766.764307014922	28
8	354	773.269767784407	29
8	360	791.132496790525	30
8	363	794.162546943151	31
8	376	808.702963114073	32
8	385	823.514556255038	33
8	392	839.975956334151	34
8	399	856.181873789121	35
8	402	868.69699206264	36
8	403	870.047381797286	37
8	414	884.893081550636	38
8	435	926.140443930491	39
8	471	975.160956134167	40
8	476	988.927725265876	41
8	492	1015.671144428133	42
8	493	1023.242580810454	43
8	504	1037.17584078757	44
8	507	1039.045367586291	45
8	516	1052.846074345197	46
8	524	1074.31977533199	47
8	537	1118.861125740923	48
8	541	1129.668706790483	49
8	546	1137.009941526243	50
8	550	1152.369269375183	51
8	558	1159.016908227381	52
8	570	1185.582043230267	53
8	603	1291.364360877876	54
8	631	1400.038311045673	55
8	636	1407.183490584233	56
8	656	1474.286757064176	57
8	659	1477.400259893238	58
8	660	1482.010730841313	59
8	685	1506.303861197613	60
8	688	1511.65321931172	61
8	695	1535.436614497794	62
8	708	1559.022782015382	63
8	709	1563.649427494268	64
8	718	1589.353955682926	65
8	721	1595.7838280525	66
8	732	1627.726721641361	67
8	735	1642.736843166749	68
8	738	1649.814017979935	69
8	739	1650.555775579625	70
8	750	1672.237251220243	71
8	753	1678.071261811984	72
8	754	1685.256922215798	73
8	759	1694.910487802017	74
8	762	1703.67581084552	75
8	765	1708.815510207196	76
8	774	1736.96437123042	77
8	777	1738.302867094639	78
8	801	1788.131650312039	79
8	808	1805.992472553597	80
8	809	1809.759169818585	81
8	818	1823.226220789591	82
8	819	1834.277064025699	83
8	820	1838.745429108842	84
8	829	1866.308845756779	85
8	856	1912.905064842528	86
8	857	1913.362694214513	87
8	864	1924.648422502538	88
8	869	1932.127883205202	89
8	880	1957.998389893091	90
8	887	1969.379097016846	91
8	908	2012.643591267135	92
8	915	2015.65835402988	93
8	924	2024.023071589833	94
8	927	2045.925790747653	95
8	928	2046.324740134234	96
8	929	2050.569980492677	97
8	938	2068.423899893756	98
8	943	2095.210209406016	99
8	956	2123.007447820192	100
8	961	2132.161714157252	101
8	962	2135.032313548892	102
8	969	2158.746541619292	103
8	970	2175.873643761024	104
8	983	2194.57309053505	105
8	1002	2225.904941252976	106
8	1028	2284.406220342328	107
8	1034	2302.742741220915	108
8	1043	2318.378577295934	109
8	1050	2324.864532489092	110
8	1065	2353.601516447837	111
8	1099	2411.890068091212	112
8	1129	2462.541676939389	113
8	1136	2476.612271416372	114
8	1139	2491.708461688808	115
8	1144	2498.3952084096	116
9	135	361.030127711124	0.165591882913
9	172	438.214906153286	4.022414159653
9	177	449.463854336735	15.008644044843
9	189	473.82252348704	0.404397826474
9	198	499.275050248278	4.289190792147
9	220	536.369917543422	2.706926823126
9	230	548.831151786182	11.200252932476
9	263	585.584887843239	8.699367677951
9	273	606.796695733799	7.511825950617
9	287	641.595781873851	33.625010219418
9	290	646.038715778123	11.150785265582
9	293	657.542041188035	17.888160199826
9	294	658.079826473469	8.662666241441
9	316	691.831594900099	12.091441242296
9	319	703.75158360354	20.00162890388
9	335	731.775873033881	2.091621869142
9	353	766.764307014922	1.311284241033
9	354	773.269767784407	6.838408831047
9	360	791.132496790525	2.159190420131
9	363	794.162546943151	2.232058539923
9	376	808.702963114073	13.547330187682
9	385	823.514556255038	24.47920519744
9	392	839.975956334151	39.797118974123
9	399	856.181873789121	55.254242367698
9	402	868.69699206264	19.232011480019
9	403	870.047381797286	6.295277469379
9	414	884.893081550636	12.622275182418
9	435	926.140443930491	24.728463878418
9	471	975.160956134167	0.385286121527
9	476	988.927725265876	0.890439894487
9	492	1015.671144428133	9.077944433349
9	493	1023.242580810454	11.944710054181
9	504	1037.17584078757	9.794900091593
9	507	1039.045367586291	0.809530116948
9	516	1052.846074345197	0.99141974859
9	524	1074.31977533199	5.862450972948
9	537	1118.861125740923	3.74654471852
9	541	1129.668706790483	4.61848262562
9	546	1137.009941526243	5.421484769726
9	550	1152.369269375183	6.371979182354
9	558	1159.016908227381	3.361042810405
9	570	1185.582043230267	6.101884706674
9	603	1291.364360877876	3.694741876861
9	631	1400.038311045673	2.834496283099
9	636	1407.183490584233	3.711703163317
9	656	1474.286757064176	52.112089332998
9	659	1477.400259893238	51.8583043162
9	660	1482.010730841313	22.200928172332
9	685	1506.303861197613	42.831077495936
9	688	1511.65321931172	43.394954221616
9	695	1535.436614497794	58.406286731886
9	708	1559.022782015382	75.289662569607
9	709	1563.649427494268	61.456855522484
9	718	1589.353955682926	75.529055609599
9	721	1595.7838280525	60.168304893371
9	732	1627.726721641361	82.891288072922
9	735	1642.736843166749	90.331185484834
9	738	1649.814017979935	95.390768459539
9	739	1650.555775579625	66.386829431099
9	750	1672.237251220243	81.856815446497
9	753	1678.071261811984	81.868462735305
9	754	1685.256922215798	84.22801525503
9	759	1694.910487802017	82.491302347254
9	762	1703.67581084552	57.623216996951
9	765	1708.815510207196	36.169526309058
9	774	1736.96437123042	11.790801680903
9	777	1738.302867094639	4.0173342008
9	801	1788.131650312039	41.236931678003
9	808	1805.992472553597	53.309507180423
9	809	1809.759169818585	56.338871880042
9	818	1823.226220789591	66.870045572782
9	819	1834.277064025699	57.784420930267
9	820	1838.745429108842	33.032172822138
9	829	1866.308845756779	26.080373847733
9	856	1912.905064842528	16.517193564051
9	857	1913.362694214513	10.516849667257
9	864	1924.648422502538	19.477008265147
9	869	1932.127883205202	12.068468795331
9	880	1957.998389893091	34.552251310282
9	887	1969.379097016846	41.932918486006
9	908	2012.643591267135	47.170566851343
9	915	2015.65835402988	41.048116230123
9	924	2024.023071589833	45.76575615687
9	927	2045.925790747653	52.999968089393
9	928	2046.324740134234	50.491951812003
9	929	2050.569980492677	36.607261006581
9	938	2068.423899893756	46.52160309198
9	943	2095.210209406016	38.357604569447
9	956	2123.007447820192	3.929667926223
9	961	2132.161714157252	12.281297425494
9	962	2135.032313548892	7.11657265096
9	969	2158.746541619292	10.666085922389
9	970	2175.873643761024	25.351873214763
9	983	2194.57309053505	0.883925860123
9	1002	2225.904941252976	6.026663911412
9	1028	2284.406220342328	12.030832396362
9	1034	2302.742741220915	3.670534863508
9	1043	2318.378577295934	4.198792353831
9	1050	2324.864532489092	1.011254407062
9	1065	2353.601516447837	1.127554627253
9	1099	2411.890068091212	1.598277600014
9	1129	2462.541676939389	5.44172858012
9	1136	2476.612271416372	12.58598315738
9	1139	2491.708461688808	26.483733905862
9	1144	2498.3952084096	1.110000959363
10	169	434.192491993633	6
10	219	533.662990720296	7
10	225	537.630898853706	8
10	262	576.885520165288	9
10	270	599.284869783182	10
10	276	607.970771654433	11
10	309	679.740153657803	12
10	334	729.684251164739	13
10	405	872.270806368218	14
10	422	901.411980052073	15
10	475	988.037285371389	16
10	501	1027.380940695977	17
10	506	1038.235837469343	18
10	515	1051.854654596607	19
10	536	1115.114581022403	20
10	540	1125.050224164863	21
10	543	1131.588456756517	22
10	549	1145.997290192829	23
10	553	1155.655865416976	24
10	630	1397.203814762574	25
10	633	1403.471787420916	26
10	645	1422.174667731178	27
10	771	1725.173569549517	28
10	782	1746.894718634036	29
10	822	1840.228471909046	30
10	849	1896.387871278477	31
10	953	2119.077779893969	32
10	966	2148.080455696903	33
10	982	2193.689164674927	34
10	997	2219.878277341564	35
10	1025	2272.375387945966	36
10	1033	2299.072206357407	37
10	1042	2314.179784942103	38
10	1049	2323.85327808203	39
10	1064	2352.473961820584	40
10	1098	2410.291790491198	41
10	1131	2464.026288258992	42
10	1143	2497.285207450237	43
11	1146	2500	0.106
12	1146	2500	0.0464

