version 2
run experiments_hard_game_mode1-355-20230311-19:40:37-6446
attr configname experiments_hard_game_mode1
attr datetime 20230311-19:40:37
attr experiment experiments_hard_game_mode1
attr inifile omnetpp.ini
attr iterationvars "$0=8, $1=3, $2=100"
attr iterationvarsf 8,3,100-
attr measurement "$0=8, $1=3, $2=100"
attr network Network
attr processid 6446
attr repetition 25
attr replication #25
attr resultdir results
attr runnumber 355
attr seedset 25
param *.boss.arrival_mean 20
param *.boss.service_mean 8
param *.minion.arrival_mean 10
param *.minion.service_mean 3
param *.player.recover_rate_x 100
param **.minion.arrival_distribution 0
param **.minion.service_distribution 0
param **.boss.arrival_distribution 0
param **.boss.service_distribution 0

vector 0 Network.player minion_jobs_number_stat:vector ETV
attr source signal_minion_jobs_number
vector 1 Network.player minion_jobs_queue_number_stat:vector ETV
attr source signal_minion_jobs_queue_number
vector 2 Network.player minion_waiting_time_stat:vector ETV
attr source signal_minion_waiting_time
vector 3 Network.player minion_defeated_stat:vector ETV
attr source signal_minion_defeated
vector 4 Network.player minion_response_time_stat:vector ETV
attr source signal_minion_response_time
vector 5 Network.player boss_jobs_number_stat:vector ETV
attr source signal_boss_jobs_number
vector 6 Network.player boss_jobs_queue_number_stat:vector ETV
attr source signal_boss_jobs_queue_number
vector 7 Network.player boss_waiting_time_stat:vector ETV
attr source signal_boss_waiting_time
vector 8 Network.player boss_defeated_stat:vector ETV
attr source signal_boss_defeated
vector 9 Network.player boss_response_time_stat:vector ETV
attr source signal_boss_response_time
vector 10 Network.player minion_recovered_stat:vector ETV
attr source signal_minion_recovered
vector 11 Network.player minion_throughput:vector ETV
attr source signal_minion_throughput
vector 12 Network.player boss_throughput:vector ETV
attr source signal_boss_throughput
0	191	362.268301555052	1
0	194	372.539545306647	1
0	197	389.5577846975	1
0	203	414.818044092872	1
0	206	418.914461495836	1
0	209	422.465171795664	1
0	211	424.393867145197	2
0	215	432.804436750576	1
0	218	437.469845809978	1
0	220	439.43759280015	2
0	222	439.494640283028	3
0	224	447.099776189344	4
0	226	450.009000750263	5
0	234	460.413136447785	6
0	241	476.292959556537	7
0	243	477.825233390619	8
0	245	477.978958605117	9
0	250	486.687089681864	10
0	254	495.821123181817	11
0	257	502.344821873946	12
0	259	511.603297954585	13
0	261	516.487729742531	14
0	264	517.598695609658	15
0	270	523.405186700692	16
0	273	528.216939838918	17
0	277	533.404800948007	18
0	279	533.776380340601	19
0	284	539.614897092334	19
0	294	561.725131358257	12
0	296	562.030994378217	13
0	310	601.622588852045	8
0	323	616.583918304718	8
0	325	617.202055236483	9
0	327	625.20845208981	10
0	330	647.330956320507	11
0	335	652.128642281043	12
0	340	660.730144932448	13
0	342	668.264761222758	14
0	347	681.831327910446	13
0	359	713.268292223129	13
0	365	723.215787602191	14
0	368	725.14946673918	15
0	372	733.868430710604	15
0	374	735.127497066748	16
0	376	735.334006060362	17
0	387	755.207784703715	14
0	389	757.56534454334	15
0	391	758.343520951228	16
0	393	766.211176156565	17
0	401	783.646291317493	16
0	407	798.304653878913	13
0	417	816.391582886859	11
0	419	819.277677665164	12
0	421	820.061563309576	13
0	425	823.42882570197	13
0	427	823.543488412463	14
0	434	842.67564930696	10
0	436	843.171970421776	11
0	455	880.063361957828	2
0	458	884.481376070648	3
0	470	906.096858491925	1
0	473	917.053825168664	1
0	476	921.509009293989	1
0	478	921.623558985843	2
0	482	930.757980628926	1
0	485	931.899950272343	1
0	488	936.281831491434	1
0	494	959.409509175819	1
0	496	963.567546048599	2
0	500	979.409086802269	1
0	503	981.370220921466	1
0	506	998.054723841462	1
0	509	1000.768798821923	1
0	512	1010.993038112039	1
0	514	1011.452035498437	2
0	518	1021.254450093468	1
0	521	1028.295144927556	1
0	524	1029.867620550508	1
0	527	1034.587716186418	1
0	533	1043.032439090477	1
0	536	1052.017080031089	1
0	538	1052.690370788896	2
0	542	1062.631322734337	3
0	547	1066.391539861803	4
0	550	1067.93005079115	5
0	552	1070.377116493317	6
0	562	1097.534105512189	6
0	566	1105.019655488875	7
0	578	1134.27796456258	1
0	581	1139.848551853526	1
0	584	1149.06904089752	1
0	593	1189.599395587986	1
0	596	1194.505807403182	1
0	599	1196.01928749176	1
0	602	1200.532095542279	1
0	612	1214.331704468146	1
0	618	1216.617603927497	2
0	625	1232.169014153108	1
0	630	1235.4092257353	2
0	637	1248.517259157264	1
0	639	1251.34799789722	2
0	649	1270.031272383515	2
0	652	1271.93813285379	2
0	659	1280.061728632661	2
0	664	1314.056626373889	3
0	666	1314.642060538589	4
0	680	1346.110542516041	4
0	685	1367.889872199002	4
0	690	1377.002249574517	3
0	692	1380.777105870427	4
0	698	1393.91873141806	1
0	702	1402.137446976738	2
0	704	1406.298439893118	3
0	707	1409.22892971003	4
0	710	1410.194651094536	4
0	719	1437.522502562912	1
0	722	1443.749352849394	1
0	725	1444.09780329844	1
0	728	1451.204784155259	1
0	734	1462.805777634181	1
0	736	1463.731977581261	2
0	740	1469.511161625262	1
0	744	1477.019670783198	2
0	754	1515.060756568655	2
0	761	1563.543419170754	1
0	764	1570.03250521935	1
0	767	1575.058367380463	1
0	769	1577.78896422583	2
0	771	1581.877619595059	3
0	782	1608.811795845907	1
0	785	1625.182484363768	1
0	788	1626.652589770851	1
0	793	1640.691024145245	1
0	797	1642.577573599617	1
0	800	1646.33275066046	1
0	805	1653.325499605877	1
0	809	1663.377721449981	2
0	811	1663.952454281951	3
0	816	1671.726541129088	4
0	818	1675.260018520552	5
0	820	1678.781068984512	6
0	828	1705.05225861694	6
0	830	1706.226453516503	7
0	833	1711.11377483187	7
0	837	1714.8627502655	6
0	839	1721.06404982859	7
0	843	1727.17012513038	6
0	851	1735.812540871975	1
0	854	1746.56951169048	1
0	856	1747.778998890395	2
0	858	1750.71274830933	3
0	861	1755.30795447233	3
0	866	1765.555104458504	1
0	872	1770.029676397522	1
0	875	1772.262657099428	1
0	884	1793.466833075335	2
0	887	1804.185314060336	3
0	890	1807.394835518921	4
0	896	1822.458650725485	4
0	899	1825.002170506213	4
0	905	1840.125209822443	1
0	908	1856.943854044585	1
0	913	1866.36835717076	1
0	915	1866.967988551273	2
0	917	1870.664148085307	3
0	926	1883.763165252108	1
0	929	1895.727674013799	1
0	931	1896.05992377377	2
0	935	1915.693824578514	1
0	940	1924.856412670584	1
0	943	1934.673342550855	2
0	945	1934.983514581488	3
0	955	1975.386526062438	1
0	959	1995.019471867634	1
0	965	2032.527073200167	1
0	973	2038.321321843496	2
0	975	2040.144866994231	3
0	980	2048.364783550259	1
0	982	2048.599293271919	2
0	991	2065.604154607833	1
0	995	2067.356556141222	2
0	997	2068.288749076046	3
0	1004	2093.992979575455	1
0	1007	2106.082421873943	1
0	1016	2136.776177976287	1
0	1019	2141.646815259144	1
0	1021	2144.016431336242	2
0	1023	2144.192192413957	3
0	1026	2148.663273855185	3
0	1028	2149.186389597899	4
0	1032	2157.157593129116	5
0	1034	2162.868158370205	6
0	1037	2166.040377421226	7
0	1057	2203.69533380782	1
0	1059	2209.868342587088	2
0	1061	2210.853110882239	3
0	1067	2222.765702767109	1
0	1070	2230.784603645069	1
0	1075	2237.723195822719	1
0	1077	2248.02628028613	2
0	1082	2260.616590731246	3
0	1087	2266.419323782936	2
0	1091	2273.883873674355	1
0	1097	2289.436867201682	1
0	1099	2289.450867187436	2
0	1107	2301.640294843342	1
0	1112	2306.660610274913	2
0	1121	2319.4066505354	1
0	1124	2326.182676171753	1
0	1127	2333.049889534637	1
0	1130	2338.206266866647	1
0	1133	2351.433664253972	1
0	1136	2355.807840710371	1
0	1139	2376.564926396232	1
0	1142	2383.508692131047	1
0	1147	2391.716211887763	1
0	1149	2397.607266565843	2
0	1154	2409.014576527272	1
0	1157	2409.962440350145	1
0	1160	2414.557918742161	1
0	1163	2417.753952768565	1
0	1168	2426.6975034803	1
0	1178	2455.428597487807	1
0	1181	2461.949854324953	1
0	1183	2462.218887467808	2
0	1191	2468.204834621618	2
0	1193	2468.6130409442	3
0	1195	2471.443904714921	4
0	1198	2474.772656864287	5
0	1202	2490.223068541484	6
0	1209	2498.954044201238	3
1	191	362.268301555052	0
1	192	364.456910293053	0
1	194	372.539545306647	0
1	195	377.247693065464	0
1	197	389.5577846975	0
1	198	389.706882711708	0
1	203	414.818044092872	0
1	204	416.647234400076	0
1	206	418.914461495836	0
1	207	419.359506462816	0
1	209	422.465171795664	0
1	211	424.393867145197	1
1	212	427.722986717433	1
1	213	428.343939038257	0
1	215	432.804436750576	0
1	216	433.278750742218	0
1	218	437.469845809978	0
1	220	439.43759280015	1
1	222	439.494640283028	2
1	224	447.099776189344	3
1	226	450.009000750263	4
1	234	460.413136447785	5
1	241	476.292959556537	6
1	243	477.825233390619	7
1	245	477.978958605117	8
1	250	486.687089681864	9
1	254	495.821123181817	10
1	257	502.344821873946	11
1	259	511.603297954585	12
1	261	516.487729742531	13
1	264	517.598695609658	14
1	270	523.405186700692	15
1	273	528.216939838918	16
1	277	533.404800948007	17
1	279	533.776380340601	18
1	282	538.718971015927	18
1	284	539.614897092334	18
1	285	541.403109176478	18
1	286	543.996977162914	17
1	287	545.921819768009	16
1	288	547.670320322352	15
1	289	551.65234896036	14
1	290	553.684265236979	13
1	291	556.026673126592	12
1	292	559.971492922397	11
1	294	561.725131358257	11
1	296	562.030994378217	12
1	297	567.302334017773	12
1	298	572.554623530922	11
1	305	596.954166572096	10
1	306	598.501670182837	9
1	307	599.704033236441	8
1	308	600.467350839048	7
1	310	601.622588852045	7
1	311	601.793229387843	7
1	323	616.583918304718	7
1	325	617.202055236483	8
1	327	625.20845208981	9
1	330	647.330956320507	10
1	335	652.128642281043	11
1	340	660.730144932448	12
1	342	668.264761222758	13
1	344	674.741721456753	13
1	345	679.690766018885	12
1	347	681.831327910446	12
1	348	685.700426445818	12
1	359	713.268292223129	12
1	365	723.215787602191	13
1	368	725.14946673918	14
1	370	733.848815271117	14
1	372	733.868430710604	14
1	374	735.127497066748	15
1	376	735.334006060362	16
1	377	739.169590638666	16
1	378	739.623316846772	15
1	382	744.588824100343	14
1	383	744.634757346289	13
1	387	755.207784703715	13
1	389	757.56534454334	14
1	391	758.343520951228	15
1	393	766.211176156565	16
1	398	781.067620099956	16
1	399	781.3742049409	15
1	401	783.646291317493	15
1	402	784.097471571604	15
1	403	789.226551138025	14
1	404	794.014019729753	13
1	405	794.339607964756	12
1	407	798.304653878913	12
1	408	800.29268596565	12
1	409	803.919715363861	11
1	410	805.470839669492	10
1	417	816.391582886859	10
1	419	819.277677665164	11
1	421	820.061563309576	12
1	423	822.988958429517	12
1	425	823.42882570197	12
1	427	823.543488412463	13
1	428	828.977689697234	13
1	429	829.499179916342	12
1	430	829.702582031636	11
1	431	830.669702973925	10
1	432	837.587066729633	9
1	434	842.67564930696	9
1	436	843.171970421776	10
1	437	843.831328052794	10
1	438	847.180052179988	9
1	439	853.749482879299	8
1	440	854.189711762958	7
1	441	854.896047516657	6
1	442	855.434515493693	5
1	443	855.462514181341	4
1	444	859.088175375549	3
1	445	860.830038246122	2
1	446	862.83619360761	1
1	455	880.063361957828	1
1	458	884.481376070648	2
1	460	888.403941715915	2
1	461	891.828605384129	1
1	465	895.406710621554	0
1	470	906.096858491925	0
1	471	908.308457858634	0
1	473	917.053825168664	0
1	474	918.669874823977	0
1	476	921.509009293989	0
1	478	921.623558985843	1
1	479	921.642108769621	1
1	480	925.56625625034	0
1	482	930.757980628926	0
1	483	931.518543841604	0
1	485	931.899950272343	0
1	486	932.345701876889	0
1	488	936.281831491434	0
1	489	938.850277843694	0
1	494	959.409509175819	0
1	496	963.567546048599	1
1	497	966.12742040591	1
1	498	966.512399267194	0
1	500	979.409086802269	0
1	501	980.220615428204	0
1	503	981.370220921466	0
1	504	983.450362861291	0
1	506	998.054723841462	0
1	507	998.244082350885	0
1	509	1000.768798821923	0
1	510	1001.214332151962	0
1	512	1010.993038112039	0
1	514	1011.452035498437	1
1	515	1014.545253929565	1
1	516	1014.708015587853	0
1	518	1021.254450093468	0
1	519	1024.106429292879	0
1	521	1028.295144927556	0
1	522	1028.884200416718	0
1	524	1029.867620550508	0
1	525	1031.932901268719	0
1	527	1034.587716186418	0
1	528	1036.339884972724	0
1	533	1043.032439090477	0
1	534	1045.436279131237	0
1	536	1052.017080031089	0
1	538	1052.690370788896	1
1	542	1062.631322734337	2
1	547	1066.391539861803	3
1	550	1067.93005079115	4
1	552	1070.377116493317	5
1	553	1071.015820225503	5
1	562	1097.534105512189	5
1	566	1105.019655488875	6
1	570	1110.271490765993	6
1	571	1111.278433812542	5
1	572	1118.193195317339	4
1	573	1121.650383766829	3
1	574	1123.505167194839	2
1	575	1125.345623250519	1
1	576	1128.170416533491	0
1	578	1134.27796456258	0
1	579	1137.320411537538	0
1	581	1139.848551853526	0
1	582	1145.034418934504	0
1	584	1149.06904089752	0
1	585	1150.246426928753	0
1	593	1189.599395587986	0
1	594	1194.040924887705	0
1	596	1194.505807403182	0
1	597	1194.881062349364	0
1	599	1196.01928749176	0
1	600	1198.151938165814	0
1	602	1200.532095542279	0
1	603	1200.689454262649	0
1	612	1214.331704468146	0
1	618	1216.617603927497	1
1	620	1219.717137727113	1
1	621	1222.762643388766	0
1	625	1232.169014153108	0
1	630	1235.4092257353	1
1	632	1240.08908073886	1
1	633	1245.107266607874	0
1	637	1248.517259157264	0
1	639	1251.34799789722	1
1	644	1258.020495357836	1
1	649	1270.031272383515	1
1	650	1271.238173072611	1
1	652	1271.93813285379	1
1	653	1275.856587877697	1
1	659	1280.061728632661	1
1	664	1314.056626373889	2
1	666	1314.642060538589	3
1	675	1345.138595947247	3
1	680	1346.110542516041	3
1	681	1347.064481055707	3
1	685	1367.889872199002	3
1	687	1373.450401424709	3
1	688	1376.656938663273	2
1	690	1377.002249574517	2
1	692	1380.777105870427	3
1	693	1389.095224868642	3
1	694	1389.918916463692	2
1	695	1390.622900988852	1
1	696	1391.153785351756	0
1	698	1393.91873141806	0
1	702	1402.137446976738	1
1	704	1406.298439893118	2
1	707	1409.22892971003	3
1	708	1409.718255723897	3
1	710	1410.194651094536	3
1	711	1412.277107554098	3
1	712	1414.539772439405	2
1	713	1415.509773337988	1
1	714	1419.650953174543	0
1	719	1437.522502562912	0
1	720	1439.070282420793	0
1	722	1443.749352849394	0
1	723	1444.044695781143	0
1	725	1444.09780329844	0
1	726	1444.690213442686	0
1	728	1451.204784155259	0
1	729	1455.809471495048	0
1	734	1462.805777634181	0
1	736	1463.731977581261	1
1	737	1463.750276620508	1
1	738	1467.237253616975	0
1	740	1469.511161625262	0
1	744	1477.019670783198	1
1	752	1511.775010174315	1
1	754	1515.060756568655	1
1	755	1515.338112887566	1
1	759	1525.537968643084	0
1	761	1563.543419170754	0
1	762	1565.604118522016	0
1	764	1570.03250521935	0
1	765	1571.464398285681	0
1	767	1575.058367380463	0
1	769	1577.78896422583	1
1	771	1581.877619595059	2
1	772	1586.168657466827	2
1	773	1587.962394170233	1
1	774	1588.64508263639	0
1	782	1608.811795845907	0
1	783	1613.996158799852	0
1	785	1625.182484363768	0
1	786	1626.248313912654	0
1	788	1626.652589770851	0
1	789	1626.680407285252	0
1	793	1640.691024145245	0
1	795	1641.575836769237	0
1	797	1642.577573599617	0
1	798	1646.156159792062	0
1	800	1646.33275066046	0
1	801	1646.480853649857	0
1	805	1653.325499605877	0
1	809	1663.377721449981	1
1	811	1663.952454281951	2
1	816	1671.726541129088	3
1	818	1675.260018520552	4
1	820	1678.781068984512	5
1	826	1701.689523619891	5
1	828	1705.05225861694	5
1	830	1706.226453516503	6
1	831	1708.718849981575	6
1	833	1711.11377483187	6
1	834	1713.185365776248	6
1	835	1713.435848234585	5
1	837	1714.8627502655	5
1	839	1721.06404982859	6
1	840	1723.545139982458	6
1	841	1726.348628350248	5
1	843	1727.17012513038	5
1	844	1727.89996737048	5
1	845	1730.889597264018	4
1	846	1731.865587371326	3
1	847	1733.289752891783	2
1	848	1734.898521134267	1
1	849	1734.938509505528	0
1	851	1735.812540871975	0
1	852	1737.469770877136	0
1	854	1746.56951169048	0
1	856	1747.778998890395	1
1	858	1750.71274830933	2
1	859	1752.109161367255	2
1	861	1755.30795447233	2
1	862	1760.361761260906	2
1	863	1761.819856623729	1
1	864	1765.411267674018	0
1	866	1765.555104458504	0
1	870	1769.040594073492	0
1	872	1770.029676397522	0
1	873	1771.282357476279	0
1	875	1772.262657099428	0
1	884	1793.466833075335	1
1	887	1804.185314060336	2
1	890	1807.394835518921	3
1	891	1810.428955088315	3
1	896	1822.458650725485	3
1	897	1824.871335840134	3
1	899	1825.002170506213	3
1	900	1825.220800152516	3
1	901	1825.472785039693	2
1	902	1829.030836636483	1
1	903	1829.913302565662	0
1	905	1840.125209822443	0
1	906	1841.382944135659	0
1	908	1856.943854044585	0
1	909	1858.103759699597	0
1	913	1866.36835717076	0
1	915	1866.967988551273	1
1	917	1870.664148085307	2
1	919	1875.725313978832	2
1	920	1877.833352902331	1
1	921	1878.655838424334	0
1	926	1883.763165252108	0
1	927	1886.435876381667	0
1	929	1895.727674013799	0
1	931	1896.05992377377	1
1	932	1906.133146454355	1
1	933	1908.392274001358	0
1	935	1915.693824578514	0
1	936	1916.715204515673	0
1	940	1924.856412670584	0
1	943	1934.673342550855	1
1	945	1934.983514581488	2
1	946	1935.84736407346	2
1	947	1936.325447389291	1
1	951	1952.291891750587	0
1	955	1975.386526062438	0
1	957	1980.514022376106	0
1	959	1995.019471867634	0
1	960	2006.162055167156	0
1	965	2032.527073200167	0
1	973	2038.321321843496	1
1	975	2040.144866994231	2
1	976	2045.903714898588	2
1	977	2046.5639863865	1
1	978	2047.862962114281	0
1	980	2048.364783550259	0
1	982	2048.599293271919	1
1	983	2050.593787151895	1
1	987	2055.867114622564	0
1	991	2065.604154607833	0
1	995	2067.356556141222	1
1	997	2068.288749076046	2
1	1000	2077.393447373217	2
1	1001	2084.749819869216	1
1	1002	2092.53662715609	0
1	1004	2093.992979575455	0
1	1005	2097.614789198757	0
1	1007	2106.082421873943	0
1	1011	2116.088265391838	0
1	1016	2136.776177976287	0
1	1017	2138.251852365851	0
1	1019	2141.646815259144	0
1	1021	2144.016431336242	1
1	1023	2144.192192413957	2
1	1024	2144.330404514814	2
1	1026	2148.663273855185	2
1	1028	2149.186389597899	3
1	1032	2157.157593129116	4
1	1034	2162.868158370205	5
1	1037	2166.040377421226	6
1	1041	2173.137023414194	6
1	1042	2173.712202761958	5
1	1046	2176.996423709106	4
1	1047	2178.361307133857	3
1	1048	2183.56926656144	2
1	1049	2190.412668748639	1
1	1053	2198.176421275565	0
1	1057	2203.69533380782	0
1	1059	2209.868342587088	1
1	1061	2210.853110882239	2
1	1063	2216.241045453572	2
1	1064	2220.530072384494	1
1	1065	2222.601228676481	0
1	1067	2222.765702767109	0
1	1068	2224.271840975059	0
1	1070	2230.784603645069	0
1	1071	2231.23100006563	0
1	1075	2237.723195822719	0
1	1077	2248.02628028613	1
1	1082	2260.616590731246	2
1	1084	2261.854956072088	2
1	1085	2263.556616101224	1
1	1087	2266.419323782936	1
1	1088	2267.29722018227	1
1	1089	2270.216976640132	0
1	1091	2273.883873674355	0
1	1095	2285.308257268978	0
1	1097	2289.436867201682	0
1	1099	2289.450867187436	1
1	1100	2292.253256499664	1
1	1101	2293.632924770501	0
1	1107	2301.640294843342	0
1	1112	2306.660610274913	1
1	1118	2314.664558565863	1
1	1119	2316.387879579814	0
1	1121	2319.4066505354	0
1	1122	2323.619478111344	0
1	1124	2326.182676171753	0
1	1125	2327.505631290939	0
1	1127	2333.049889534637	0
1	1128	2334.15583605338	0
1	1130	2338.206266866647	0
1	1131	2339.028541030832	0
1	1133	2351.433664253972	0
1	1134	2351.626552234237	0
1	1136	2355.807840710371	0
1	1137	2358.986403225636	0
1	1139	2376.564926396232	0
1	1140	2379.661076089807	0
1	1142	2383.508692131047	0
1	1143	2384.993741862918	0
1	1147	2391.716211887763	0
1	1149	2397.607266565843	1
1	1151	2399.679487097943	1
1	1152	2402.896418014785	0
1	1154	2409.014576527272	0
1	1155	2409.606791737772	0
1	1157	2409.962440350145	0
1	1158	2411.311976976524	0
1	1160	2414.557918742161	0
1	1161	2417.541018766993	0
1	1163	2417.753952768565	0
1	1164	2419.07646190383	0
1	1168	2426.6975034803	0
1	1170	2431.871854362763	0
1	1178	2455.428597487807	0
1	1179	2456.080274287929	0
1	1181	2461.949854324953	0
1	1183	2462.218887467808	1
1	1184	2462.635908516462	1
1	1191	2468.204834621618	1
1	1193	2468.6130409442	2
1	1195	2471.443904714921	3
1	1198	2474.772656864287	4
1	1202	2490.223068541484	5
1	1204	2493.965659534145	5
1	1205	2494.036403628591	4
1	1206	2494.858388958752	3
1	1207	2497.241142260307	2
1	1209	2498.954044201238	2
2	191	362.268301555052	0
2	194	372.539545306647	0
2	197	389.5577846975	0
2	203	414.818044092872	0
2	206	418.914461495836	0
2	209	422.465171795664	0
2	212	427.722986717433	3.329119572236
2	215	432.804436750576	0
2	218	437.469845809978	0
2	262	517.033484938125	77.595892137975
2	281	536.512901876118	97.01826159309
2	282	538.718971015927	91.619194826583
2	285	541.403109176478	91.394108426215
2	286	543.996977162914	92.010114943343
2	287	545.921819768009	85.508683320224
2	288	547.670320322352	71.377360765815
2	289	551.65234896036	73.827115569741
2	290	553.684265236979	75.705306631862
2	291	556.026673126592	69.339583444728
2	292	559.971492922397	64.15036974058
2	297	567.302334017773	64.957512143827
2	298	572.554623530922	60.951325576337
2	304	596.733177878572	80.245448136041
2	305	596.954166572096	79.355470962438
2	306	598.501670182837	79.385734168078
2	307	599.704033236441	76.298846535749
2	308	600.467350839048	72.25041100013
2	311	601.793229387843	68.388428439836
2	314	605.813793020028	72.037412679427
2	331	648.896002837359	109.28110574503
2	336	653.773710425091	92.048579066834
2	343	671.559554006528	109.52855962831
2	344	674.741721456753	102.13796056198
2	345	679.690766018885	78.06817716684
2	348	685.700426445818	82.56547617521
2	351	697.741285468155	88.54039548291
2	369	728.361116824057	111.77719851934
2	370	733.848815271117	116.64676003463
2	377	739.169590638666	113.96113854886
2	378	739.623316846772	92.292360526265
2	381	743.591645165201	91.492184431061
2	382	744.588824100343	92.4601818193
2	383	744.634757346289	89.923617635516
2	394	770.300423941104	109.57027900866
2	397	779.841195753463	111.57643453071
2	398	781.067620099956	99.23629218951
2	399	781.3742049409	94.983124877401
2	402	784.097471571604	81.662441665623
2	403	789.226551138025	75.958258914896
2	404	794.014019729753	70.798232127562
2	405	794.339607964756	69.190141225576
2	408	800.29268596565	66.424255255046
2	409	803.919715363861	68.792218297113
2	410	805.470839669492	70.13683360913
2	413	809.788621009493	69.976018562127
2	422	822.553814921187	77.645156229173
2	423	822.988958429517	67.781173725802
2	428	828.977689697234	71.412345153894
2	429	829.499179916342	71.155658965114
2	430	829.702582031636	63.491405875071
2	431	830.669702973925	57.964445869978
2	432	837.587066729633	53.94077541214
2	437	843.831328052794	45.526674173881
2	438	847.180052179988	41.049929065168
2	439	853.749482879299	41.890483942047
2	440	854.189711762958	37.798128876099
2	441	854.896047516657	35.618369851493
2	442	855.434515493693	35.372952184117
2	443	855.462514181341	32.033688479371
2	444	859.088175375549	35.544686963086
2	445	860.830038246122	18.154388939162
2	446	862.83619360761	19.664223185834
2	459	885.592941104177	22.307846382087
2	460	888.403941715915	8.340579758087
2	461	891.828605384129	7.347229313481
2	464	894.378424353019	0.776314162434
2	470	906.096858491925	0
2	473	917.053825168664	0
2	476	921.509009293989	0
2	479	921.642108769621	0.018549783778
2	482	930.757980628926	0
2	485	931.899950272343	0
2	488	936.281831491434	0
2	494	959.409509175819	0
2	497	966.12742040591	2.559874357311
2	500	979.409086802269	0
2	503	981.370220921466	0
2	506	998.054723841462	0
2	509	1000.768798821923	0
2	512	1010.993038112039	0
2	515	1014.545253929565	3.093218431128
2	518	1021.254450093468	0
2	521	1028.295144927556	0
2	524	1029.867620550508	0
2	527	1034.587716186418	0
2	533	1043.032439090477	0
2	536	1052.017080031089	0
2	543	1062.882648021447	10.192277232551
2	548	1066.933316218007	11.177338472361
2	553	1071.015820225503	8.384497491166
2	556	1076.256302334389	11.237581458068
2	564	1104.97559765938	38.584057797577
2	569	1108.320265366384	40.390214575234
2	570	1110.271490765993	39.894374272676
2	571	1111.278433812542	36.003205683861
2	572	1118.193195317339	39.742595627812
2	573	1121.650383766829	24.11627825464
2	574	1123.505167194839	18.485511705964
2	575	1125.345623250519	19.156474733822
2	578	1134.27796456258	0
2	581	1139.848551853526	0
2	584	1149.06904089752	0
2	593	1189.599395587986	0
2	596	1194.505807403182	0
2	599	1196.01928749176	0
2	602	1200.532095542279	0
2	619	1216.69539570998	2.363691241834
2	620	1219.717137727113	3.099533799616
2	631	1237.180407132712	5.011392979604
2	632	1240.08908073886	4.67985500356
2	640	1252.726239194472	4.208980037208
2	643	1254.692139136831	3.344141239611
2	644	1258.020495357836	4.63432269008
2	647	1264.253429739185	2.295846481754
2	650	1271.238173072611	1.206900689096
2	653	1275.856587877697	3.918455023907
2	674	1342.793616709947	65.32643977521
2	675	1345.138595947247	65.076867314586
2	678	1345.406573508716	31.349947134827
2	681	1347.064481055707	32.422420517118
2	686	1372.186271350759	26.992848808976
2	687	1373.450401424709	27.339858908668
2	688	1376.656938663273	29.252054468177
2	693	1389.095224868642	21.20535266964
2	694	1389.918916463692	12.916666889175
2	695	1390.622900988852	9.845795118425
2	698	1393.91873141806	0
2	705	1407.67217438019	11.791421540751
2	708	1409.718255723897	7.580808747159
2	711	1412.277107554098	5.97866766098
2	712	1414.539772439405	5.310842729375
2	713	1415.509773337988	5.315122243452
2	719	1437.522502562912	0
2	722	1443.749352849394	0
2	725	1444.09780329844	0
2	728	1451.204784155259	0
2	734	1462.805777634181	0
2	737	1463.750276620508	0.018299039247
2	740	1469.511161625262	0
2	751	1510.975680558798	35.765958461091
2	752	1511.775010174315	34.755339391117
2	755	1515.338112887566	0.277356318911
2	758	1523.410293211496	6.931225176408
2	761	1563.543419170754	0
2	764	1570.03250521935	0
2	767	1575.058367380463	0
2	772	1586.168657466827	8.379693240997
2	773	1587.962394170233	6.084774575174
2	782	1608.811795845907	0
2	785	1625.182484363768	0
2	788	1626.652589770851	0
2	794	1640.800861504241	0.109837358996
2	797	1642.577573599617	0
2	800	1646.33275066046	0
2	825	1700.330346608656	47.004847002779
2	826	1701.689523619891	38.31180216991
2	831	1708.718849981575	44.766395699624
2	834	1713.185365776248	41.45882464716
2	835	1713.435848234585	38.175829714033
2	840	1723.545139982458	44.764070997946
2	841	1726.348628350248	21.296369733308
2	844	1727.89996737048	21.673513853977
2	845	1730.889597264018	19.775822432148
2	846	1731.865587371326	17.002837105826
2	847	1733.289752891783	12.225703063193
2	848	1734.898521134267	7.728396003887
2	851	1735.812540871975	0
2	854	1746.56951169048	0
2	859	1752.109161367255	4.33016247686
2	862	1760.361761260906	9.649012951576
2	863	1761.819856623729	6.511902151399
2	866	1765.555104458504	0
2	869	1766.734498458802	0.687461504232
2	872	1770.029676397522	0
2	875	1772.262657099428	0
2	888	1807.135319492344	33.614592840356
2	891	1810.428955088315	16.96212201298
2	894	1821.496970385995	17.311656325659
2	897	1824.871335840134	17.476500321213
2	900	1825.220800152516	9.829943028358
2	901	1825.472785039693	3.014134314208
2	902	1829.030836636483	4.02866613027
2	905	1840.125209822443	0
2	908	1856.943854044585	0
2	918	1874.130235657824	7.761878487064
2	919	1875.725313978832	8.757325427559
2	920	1877.833352902331	7.169204817024
2	926	1883.763165252108	0
2	929	1895.727674013799	0
2	932	1906.133146454355	10.073222680585
2	935	1915.693824578514	0
2	941	1926.149340147402	1.292927476818
2	946	1935.84736407346	1.174021522605
2	947	1936.325447389291	1.341932807803
2	950	1950.377797689256	5.10338180589
2	956	1980.098509659548	4.71198359711
2	959	1995.019471867634	0
2	965	2032.527073200167	0
2	968	2034.975261927626	0.636149438199
2	971	2037.841515858241	1.553295402374
2	976	2045.903714898588	7.582393055092
2	977	2046.5639863865	6.419119392269
2	980	2048.364783550259	0
2	983	2050.593787151895	1.994493879976
2	986	2052.828554651623	0.314468203481
2	999	2075.989212829218	10.385058221385
2	1000	2077.393447373217	10.036891231995
2	1001	2084.749819869216	16.46107079317
2	1004	2093.992979575455	0
2	1007	2106.082421873943	0
2	1010	2113.408142391555	3.585777315721
2	1016	2136.776177976287	0
2	1019	2141.646815259144	0
2	1024	2144.330404514814	0.313973178572
2	1035	2163.674840967017	19.48264855306
2	1040	2169.1360163525	20.472742497315
2	1041	2173.137023414194	23.950633816295
2	1042	2173.712202761958	23.95554699171
2	1045	2176.179168678742	19.021575549626
2	1046	2176.996423709106	14.128265338901
2	1047	2178.361307133857	12.320929712631
2	1048	2183.56926656144	16.402695307638
2	1049	2190.412668748639	15.496094035633
2	1052	2194.622402056949	1.727038440944
2	1062	2215.592114654957	11.896780847137
2	1063	2216.241045453572	6.372702866484
2	1064	2220.530072384494	9.676961502255
2	1067	2222.765702767109	0
2	1070	2230.784603645069	0
2	1083	2261.184820637509	23.46162481479
2	1084	2261.854956072088	13.828675785958
2	1085	2263.556616101224	2.940025369978
2	1088	2267.29722018227	0.877896399334
2	1091	2273.883873674355	0
2	1094	2281.629446357456	4.466708386835
2	1097	2289.436867201682	0
2	1100	2292.253256499664	2.802389312228
2	1117	2314.081630730788	12.441335887446
2	1118	2314.664558565863	8.00394829095
2	1121	2319.4066505354	0
2	1124	2326.182676171753	0
2	1127	2333.049889534637	0
2	1130	2338.206266866647	0
2	1133	2351.433664253972	0
2	1136	2355.807840710371	0
2	1139	2376.564926396232	0
2	1142	2383.508692131047	0
2	1150	2397.879916470677	6.163704582914
2	1151	2399.679487097943	2.0722205321
2	1154	2409.014576527272	0
2	1157	2409.962440350145	0
2	1160	2414.557918742161	0
2	1163	2417.753952768565	0
2	1169	2430.650935837055	3.953432356755
2	1178	2455.428597487807	0
2	1181	2461.949854324953	0
2	1184	2462.635908516462	0.417021048654
2	1187	2466.540138406276	2.785498201821
2	1196	2473.018103354904	5.181001062459
2	1203	2493.289642459603	25.084807837985
2	1204	2493.965659534145	25.352618589945
2	1205	2494.036403628591	22.59249891367
2	1206	2494.858388958752	20.085732094465
2	1207	2497.241142260307	22.12154841817
3	192	364.456910293053	43
3	195	377.247693065464	44
3	198	389.706882711708	45
3	204	416.647234400076	46
3	207	419.359506462816	47
3	212	427.722986717433	48
3	213	428.343939038257	49
3	216	433.278750742218	50
3	282	538.718971015927	51
3	285	541.403109176478	52
3	286	543.996977162914	53
3	287	545.921819768009	54
3	288	547.670320322352	55
3	289	551.65234896036	56
3	290	553.684265236979	57
3	291	556.026673126592	58
3	292	559.971492922397	59
3	297	567.302334017773	60
3	298	572.554623530922	61
3	305	596.954166572096	62
3	306	598.501670182837	63
3	307	599.704033236441	64
3	308	600.467350839048	65
3	311	601.793229387843	66
3	344	674.741721456753	67
3	345	679.690766018885	68
3	348	685.700426445818	69
3	370	733.848815271117	70
3	377	739.169590638666	71
3	378	739.623316846772	72
3	382	744.588824100343	73
3	383	744.634757346289	74
3	398	781.067620099956	75
3	399	781.3742049409	76
3	402	784.097471571604	77
3	403	789.226551138025	78
3	404	794.014019729753	79
3	405	794.339607964756	80
3	408	800.29268596565	81
3	409	803.919715363861	82
3	410	805.470839669492	83
3	423	822.988958429517	84
3	428	828.977689697234	85
3	429	829.499179916342	86
3	430	829.702582031636	87
3	431	830.669702973925	88
3	432	837.587066729633	89
3	437	843.831328052794	90
3	438	847.180052179988	91
3	439	853.749482879299	92
3	440	854.189711762958	93
3	441	854.896047516657	94
3	442	855.434515493693	95
3	443	855.462514181341	96
3	444	859.088175375549	97
3	445	860.830038246122	98
3	446	862.83619360761	99
3	460	888.403941715915	100
3	461	891.828605384129	101
3	465	895.406710621554	102
3	471	908.308457858634	103
3	474	918.669874823977	104
3	479	921.642108769621	105
3	480	925.56625625034	106
3	483	931.518543841604	107
3	486	932.345701876889	108
3	489	938.850277843694	109
3	497	966.12742040591	110
3	498	966.512399267194	111
3	501	980.220615428204	112
3	504	983.450362861291	113
3	507	998.244082350885	114
3	510	1001.214332151962	115
3	515	1014.545253929565	116
3	516	1014.708015587853	117
3	519	1024.106429292879	118
3	522	1028.884200416718	119
3	525	1031.932901268719	120
3	528	1036.339884972724	121
3	534	1045.436279131237	122
3	553	1071.015820225503	123
3	570	1110.271490765993	124
3	571	1111.278433812542	125
3	572	1118.193195317339	126
3	573	1121.650383766829	127
3	574	1123.505167194839	128
3	575	1125.345623250519	129
3	576	1128.170416533491	130
3	579	1137.320411537538	131
3	582	1145.034418934504	132
3	585	1150.246426928753	133
3	594	1194.040924887705	134
3	597	1194.881062349364	135
3	600	1198.151938165814	136
3	603	1200.689454262649	137
3	620	1219.717137727113	138
3	621	1222.762643388766	139
3	632	1240.08908073886	140
3	633	1245.107266607874	141
3	644	1258.020495357836	142
3	650	1271.238173072611	143
3	653	1275.856587877697	144
3	675	1345.138595947247	145
3	681	1347.064481055707	146
3	687	1373.450401424709	147
3	688	1376.656938663273	148
3	693	1389.095224868642	149
3	694	1389.918916463692	150
3	695	1390.622900988852	151
3	696	1391.153785351756	152
3	708	1409.718255723897	153
3	711	1412.277107554098	154
3	712	1414.539772439405	155
3	713	1415.509773337988	156
3	714	1419.650953174543	157
3	720	1439.070282420793	158
3	723	1444.044695781143	159
3	726	1444.690213442686	160
3	729	1455.809471495048	161
3	737	1463.750276620508	162
3	738	1467.237253616975	163
3	752	1511.775010174315	164
3	755	1515.338112887566	165
3	759	1525.537968643084	166
3	762	1565.604118522016	167
3	765	1571.464398285681	168
3	772	1586.168657466827	169
3	773	1587.962394170233	170
3	774	1588.64508263639	171
3	783	1613.996158799852	172
3	786	1626.248313912654	173
3	789	1626.680407285252	174
3	795	1641.575836769237	175
3	798	1646.156159792062	176
3	801	1646.480853649857	177
3	826	1701.689523619891	178
3	831	1708.718849981575	179
3	834	1713.185365776248	180
3	835	1713.435848234585	181
3	840	1723.545139982458	182
3	841	1726.348628350248	183
3	844	1727.89996737048	184
3	845	1730.889597264018	185
3	846	1731.865587371326	186
3	847	1733.289752891783	187
3	848	1734.898521134267	188
3	849	1734.938509505528	189
3	852	1737.469770877136	190
3	859	1752.109161367255	191
3	862	1760.361761260906	192
3	863	1761.819856623729	193
3	864	1765.411267674018	194
3	870	1769.040594073492	195
3	873	1771.282357476279	196
3	891	1810.428955088315	197
3	897	1824.871335840134	198
3	900	1825.220800152516	199
3	901	1825.472785039693	200
3	902	1829.030836636483	201
3	903	1829.913302565662	202
3	906	1841.382944135659	203
3	909	1858.103759699597	204
3	919	1875.725313978832	205
3	920	1877.833352902331	206
3	921	1878.655838424334	207
3	927	1886.435876381667	208
3	932	1906.133146454355	209
3	933	1908.392274001358	210
3	936	1916.715204515673	211
3	946	1935.84736407346	212
3	947	1936.325447389291	213
3	951	1952.291891750587	214
3	957	1980.514022376106	215
3	960	2006.162055167156	216
3	976	2045.903714898588	217
3	977	2046.5639863865	218
3	978	2047.862962114281	219
3	983	2050.593787151895	220
3	987	2055.867114622564	221
3	1000	2077.393447373217	222
3	1001	2084.749819869216	223
3	1002	2092.53662715609	224
3	1005	2097.614789198757	225
3	1011	2116.088265391838	226
3	1017	2138.251852365851	227
3	1024	2144.330404514814	228
3	1041	2173.137023414194	229
3	1042	2173.712202761958	230
3	1046	2176.996423709106	231
3	1047	2178.361307133857	232
3	1048	2183.56926656144	233
3	1049	2190.412668748639	234
3	1053	2198.176421275565	235
3	1063	2216.241045453572	236
3	1064	2220.530072384494	237
3	1065	2222.601228676481	238
3	1068	2224.271840975059	239
3	1071	2231.23100006563	240
3	1084	2261.854956072088	241
3	1085	2263.556616101224	242
3	1088	2267.29722018227	243
3	1089	2270.216976640132	244
3	1095	2285.308257268978	245
3	1100	2292.253256499664	246
3	1101	2293.632924770501	247
3	1118	2314.664558565863	248
3	1119	2316.387879579814	249
3	1122	2323.619478111344	250
3	1125	2327.505631290939	251
3	1128	2334.15583605338	252
3	1131	2339.028541030832	253
3	1134	2351.626552234237	254
3	1137	2358.986403225636	255
3	1140	2379.661076089807	256
3	1143	2384.993741862918	257
3	1151	2399.679487097943	258
3	1152	2402.896418014785	259
3	1155	2409.606791737772	260
3	1158	2411.311976976524	261
3	1161	2417.541018766993	262
3	1164	2419.07646190383	263
3	1170	2431.871854362763	264
3	1179	2456.080274287929	265
3	1184	2462.635908516462	266
3	1204	2493.965659534145	267
3	1205	2494.036403628591	268
3	1206	2494.858388958752	269
3	1207	2497.241142260307	270
4	192	364.456910293053	2.188608738001
4	195	377.247693065464	4.708147758817
4	198	389.706882711708	0.149098014208
4	204	416.647234400076	1.829190307204
4	207	419.359506462816	0.44504496698
4	212	427.722986717433	5.257814921769
4	213	428.343939038257	3.95007189306
4	216	433.278750742218	0.474313991642
4	282	538.718971015927	99.224330732899
4	285	541.403109176478	94.303332987134
4	286	543.996977162914	93.987976412651
4	287	545.921819768009	93.934957548438
4	288	547.670320322352	87.257183874567
4	289	551.65234896036	75.359389403823
4	290	553.684265236979	75.85903184636
4	291	556.026673126592	78.047714521475
4	292	559.971492922397	73.284403240533
4	297	567.302334017773	71.481210835956
4	298	572.554623530922	70.209801656976
4	305	596.954166572096	80.466436829565
4	306	598.501670182837	80.902974573179
4	307	599.704033236441	80.588097221682
4	308	600.467350839048	77.062164138356
4	311	601.793229387843	73.576289548925
4	344	674.741721456753	112.71072707854
4	345	679.690766018885	107.08700512411
4	348	685.700426445818	84.077837593773
4	370	733.848815271117	117.2648969664
4	377	739.169590638666	121.96753540218
4	378	739.623316846772	114.41486475696
4	382	744.588824100343	92.489363366203
4	383	744.634757346289	92.506115065246
4	398	781.067620099956	112.8028588772
4	399	781.3742049409	99.542877030454
4	402	784.097471571604	97.706391508105
4	403	789.226551138025	86.791521232044
4	404	794.014019729753	80.745727506624
4	405	794.339607964756	71.123820362565
4	408	800.29268596565	75.14321922647
4	409	803.919715363861	70.051284653257
4	410	805.470839669492	70.343342602744
4	423	822.988958429517	78.080299737503
4	428	828.977689697234	73.769904993519
4	429	829.499179916342	71.933835373002
4	430	829.702582031636	71.359061080408
4	431	830.669702973925	64.45852681736
4	432	837.587066729633	64.881809625686
4	437	843.831328052794	60.185036735301
4	438	847.180052179988	48.875398301075
4	439	853.749482879299	47.619359764479
4	440	854.189711762958	42.330712825706
4	441	854.896047516657	38.504464629798
4	442	855.434515493693	36.156837828529
4	443	855.462514181341	35.400950871765
4	444	859.088175375549	35.659349673579
4	445	860.830038246122	37.286549833659
4	446	862.83619360761	20.16054430065
4	460	888.403941715915	25.118846993825
4	461	891.828605384129	11.765243426301
4	465	895.406710621554	1.804600430969
4	471	908.308457858634	2.211599366709
4	474	918.669874823977	1.616049655313
4	479	921.642108769621	0.133099475632
4	480	925.56625625034	3.942697264497
4	483	931.518543841604	0.760563212678
4	486	932.345701876889	0.445751604546
4	489	938.850277843694	2.56844635226
4	497	966.12742040591	6.717911230091
4	498	966.512399267194	2.944853218595
4	501	980.220615428204	0.811528625935
4	504	983.450362861291	2.080141939825
4	507	998.244082350885	0.189358509423
4	510	1001.214332151962	0.445533330039
4	515	1014.545253929565	3.552215817526
4	516	1014.708015587853	3.255980089416
4	519	1024.106429292879	2.851979199411
4	522	1028.884200416718	0.589055489162
4	525	1031.932901268719	2.065280718211
4	528	1036.339884972724	1.752168786306
4	534	1045.436279131237	2.40384004076
4	553	1071.015820225503	15.259842479857
4	570	1110.271490765993	42.341439974843
4	571	1111.278433812542	40.901317319225
4	572	1118.193195317339	42.917967188658
4	573	1121.650383766829	43.199784077302
4	574	1123.505167194839	25.97106168265
4	575	1125.345623250519	20.325967761644
4	576	1128.170416533491	21.981268016794
4	579	1137.320411537538	3.042446974958
4	582	1145.034418934504	5.185867080978
4	585	1150.246426928753	1.177386031233
4	594	1194.040924887705	4.441529299719
4	597	1194.881062349364	0.375254946182
4	600	1198.151938165814	2.132650674054
4	603	1200.689454262649	0.15735872037
4	620	1219.717137727113	5.385433258967
4	621	1222.762643388766	6.145039461269
4	632	1240.08908073886	7.920066585752
4	633	1245.107266607874	9.698040872574
4	644	1258.020495357836	6.672497460616
4	650	1271.238173072611	9.28058981518
4	653	1275.856587877697	5.825315494182
4	675	1345.138595947247	67.67141901251
4	681	1347.064481055707	33.007854681818
4	687	1373.450401424709	28.256978882926
4	688	1376.656938663273	30.546396147232
4	693	1389.095224868642	41.690340673546
4	694	1389.918916463692	22.02904426469
4	695	1390.622900988852	13.620651414335
4	696	1391.153785351756	10.376679481329
4	708	1409.718255723897	13.837502884458
4	711	1412.277107554098	10.13966057736
4	712	1414.539772439405	8.241332546287
4	713	1415.509773337988	6.280843627958
4	714	1419.650953174543	9.456302080007
4	720	1439.070282420793	1.547779857881
4	723	1444.044695781143	0.295342931749
4	726	1444.690213442686	0.592410144246
4	729	1455.809471495048	4.604687339789
4	737	1463.750276620508	0.944498986327
4	738	1467.237253616975	3.505276035714
4	752	1511.775010174315	36.565288076608
4	755	1515.338112887566	38.318442104368
4	759	1525.537968643084	9.058900607996
4	762	1565.604118522016	2.060699351262
4	765	1571.464398285681	1.431893066331
4	772	1586.168657466827	11.110290086364
4	773	1587.962394170233	10.173429944403
4	774	1588.64508263639	6.767463041331
4	783	1613.996158799852	5.184362953945
4	786	1626.248313912654	1.065829548886
4	789	1626.680407285252	0.027817514401
4	795	1641.575836769237	0.884812623992
4	798	1646.156159792062	3.578586192445
4	801	1646.480853649857	0.148102989397
4	826	1701.689523619891	48.364024014014
4	831	1708.718849981575	45.341128531594
4	834	1713.185365776248	49.232911494297
4	835	1713.435848234585	41.709307105497
4	840	1723.545139982458	48.285121461906
4	841	1726.348628350248	47.567559365736
4	844	1727.89996737048	22.84770875354
4	845	1730.889597264018	24.663143747515
4	846	1731.865587371326	20.751812539456
4	847	1733.289752891783	18.427002626283
4	848	1734.898521134267	13.834471305677
4	849	1734.938509505528	7.768384375148
4	852	1737.469770877136	1.657230005161
4	859	1752.109161367255	5.539649676775
4	862	1760.361761260906	12.582762370511
4	863	1761.819856623729	11.107108314399
4	864	1765.411267674018	10.103313201688
4	870	1769.040594073492	2.993557118922
4	873	1771.282357476279	1.252681078757
4	891	1810.428955088315	36.908228436327
4	897	1824.871335840134	20.686021779798
4	900	1825.220800152516	17.825964633595
4	901	1825.472785039693	10.081927915535
4	902	1829.030836636483	6.572185910998
4	903	1829.913302565662	4.911132059449
4	906	1841.382944135659	1.257734313216
4	909	1858.103759699597	1.159905655012
4	919	1875.725313978832	9.356956808072
4	920	1877.833352902331	10.865364351058
4	921	1878.655838424334	7.991690339027
4	927	1886.435876381667	2.672711129559
4	932	1906.133146454355	10.405472440556
4	933	1908.392274001358	12.332350227588
4	936	1916.715204515673	1.021379937159
4	946	1935.84736407346	10.990951402876
4	947	1936.325447389291	1.652104838436
4	951	1952.291891750587	7.017475867221
4	957	1980.514022376106	5.127496313668
4	960	2006.162055167156	11.142583299522
4	976	2045.903714898588	9.615494442721
4	977	2046.5639863865	8.242664543004
4	978	2047.862962114281	7.71809512005
4	983	2050.593787151895	2.229003601636
4	987	2055.867114622564	3.353028174422
4	1000	2077.393447373217	11.789292765384
4	1001	2084.749819869216	17.393263727994
4	1002	2092.53662715609	24.247878080044
4	1005	2097.614789198757	3.621809623302
4	1011	2116.088265391838	6.265900316004
4	1017	2138.251852365851	1.475674389564
4	1024	2144.330404514814	2.68358925567
4	1041	2173.137023414194	24.473749559009
4	1042	2173.712202761958	24.525813164059
4	1046	2176.996423709106	19.83883057999
4	1047	2178.361307133857	15.493148763652
4	1048	2183.56926656144	17.528889140214
4	1049	2190.412668748639	23.246097494837
4	1053	2198.176421275565	5.28105765956
4	1063	2216.241045453572	12.545711645752
4	1064	2220.530072384494	10.661729797406
4	1065	2222.601228676481	11.748117794242
4	1068	2224.271840975059	1.50613820795
4	1071	2231.23100006563	0.446396420561
4	1084	2261.854956072088	24.131760249369
4	1085	2263.556616101224	15.530335815094
4	1088	2267.29722018227	6.680629451024
4	1089	2270.216976640132	3.797652857196
4	1095	2285.308257268978	8.145519298357
4	1100	2292.253256499664	2.816389297982
4	1101	2293.632924770501	4.182057583065
4	1118	2314.664558565863	13.024263722521
4	1119	2316.387879579814	9.727269304901
4	1122	2323.619478111344	4.212827575944
4	1125	2327.505631290939	1.322955119186
4	1128	2334.15583605338	1.105946518743
4	1131	2339.028541030832	0.822274164185
4	1134	2351.626552234237	0.192887980265
4	1137	2358.986403225636	3.178562515265
4	1140	2379.661076089807	3.096149693575
4	1143	2384.993741862918	1.485049731871
4	1151	2399.679487097943	7.96327521018
4	1152	2402.896418014785	5.289151448942
4	1155	2409.606791737772	0.5922152105
4	1158	2411.311976976524	1.349536626379
4	1161	2417.541018766993	2.983100024832
4	1164	2419.07646190383	1.322509135265
4	1170	2431.871854362763	5.174350882463
4	1179	2456.080274287929	0.651676800122
4	1184	2462.635908516462	0.686054191509
4	1204	2493.965659534145	25.760824912527
4	1205	2494.036403628591	25.423362684391
4	1206	2494.858388958752	23.414484243831
4	1207	2497.241142260307	22.46848539602
5	200	407.023051346512	1
5	228	451.986862219571	1
5	230	452.241254781419	2
5	232	456.269153484022	3
5	236	462.788085686888	4
5	238	471.750175842528	5
5	248	485.838955213216	4
5	266	519.115936014759	1
5	268	522.251961692532	2
5	275	530.364669045925	2
5	300	572.603760894772	1
5	302	587.239462929909	2
5	313	603.134950270608	1
5	316	609.200889985245	1
5	318	610.173953034799	2
5	321	612.980541173579	2
5	333	652.09946073414	1
5	338	654.711139710773	1
5	350	686.391080063499	1
5	353	702.435029905981	1
5	355	711.955453553369	2
5	357	712.551934658254	3
5	363	721.347548185523	2
5	380	739.812602447366	1
5	385	744.908658692014	1
5	396	772.705257103947	1
5	412	806.13012311482	1
5	415	811.858998937252	1
5	448	863.28509472209	1
5	450	867.68999344566	2
5	453	876.537854406773	2
5	463	893.602110190585	1
5	467	901.844889125823	1
5	491	948.259548206261	1
5	530	1041.233624618206	1
5	540	1055.755977745646	1
5	545	1065.018720876321	1
5	555	1075.275228128681	1
5	558	1078.450599689527	1
5	560	1093.025662129838	2
5	568	1106.189148516697	1
5	587	1161.606097471778	1
5	590	1163.578442419488	1
5	605	1201.575345488697	1
5	607	1205.21468365384	2
5	610	1209.074318248075	2
5	615	1216.39044955247	2
5	623	1231.062298958818	1
5	627	1234.247326850965	2
5	635	1248.342184019664	1
5	642	1253.386172667756	1
5	646	1261.957583257431	1
5	655	1277.467176934737	1
5	657	1278.936722892472	2
5	661	1306.576914852068	3
5	669	1323.736502562113	2
5	672	1334.919738381796	2
5	677	1345.193422541783	1
5	683	1347.404884195096	1
5	700	1395.880752839439	1
5	716	1423.878087902705	1
5	731	1456.975740307744	1
5	742	1475.209722097707	1
5	746	1478.042304220319	2
5	748	1491.383258494281	3
5	757	1516.479068035088	1
5	776	1590.50042477963	1
5	779	1599.013666144167	1
5	791	1631.434037847915	1
5	803	1650.493728198422	1
5	807	1658.593476369919	2
5	813	1665.372692648625	3
5	822	1681.278513467016	3
5	868	1766.04703695457	1
5	877	1773.520726651988	1
5	879	1779.875668708269	2
5	881	1781.162383615031	3
5	893	1815.390857124158	1
5	911	1862.080332632237	1
5	923	1880.381953975635	1
5	938	1919.782592244217	1
5	949	1945.274415883366	1
5	953	1965.142792458315	1
5	962	2029.457987501145	1
5	967	2034.339112489427	1
5	970	2036.288220455867	1
5	985	2052.514086448142	1
5	989	2064.672210610458	1
5	993	2066.987813455407	2
5	1009	2109.822365075834	1
5	1013	2125.829693711752	1
5	1030	2149.756655770248	1
5	1039	2167.166571253802	1
5	1044	2174.916574713006	1
5	1051	2192.895363616005	1
5	1055	2201.892852908397	1
5	1073	2232.882083632135	1
5	1079	2259.340022759345	2
5	1093	2277.162737970621	1
5	1103	2296.648678655655	1
5	1105	2298.575357641728	2
5	1110	2303.500581520958	2
5	1114	2307.262137981784	3
5	1145	2388.40867807511	1
5	1166	2422.686534544323	1
5	1172	2432.913250480392	1
5	1175	2438.546595932053	1
5	1186	2463.754640204455	1
5	1189	2467.837102292445	1
5	1200	2475.119593842137	1
6	200	407.023051346512	0
6	201	410.473048469001	0
6	228	451.986862219571	0
6	230	452.241254781419	1
6	232	456.269153484022	2
6	236	462.788085686888	3
6	238	471.750175842528	4
6	239	475.621946692236	4
6	246	482.634120723363	3
6	248	485.838955213216	3
6	251	491.688440124482	3
6	252	492.354358169471	2
6	255	499.866230505341	1
6	262	517.033484938125	0
6	266	519.115936014759	0
6	268	522.251961692532	1
6	271	528.042736923116	1
6	275	530.364669045925	1
6	280	536.448784780586	1
6	281	536.512901876118	0
6	300	572.603760894772	0
6	302	587.239462929909	1
6	303	593.450644041437	1
6	304	596.733177878572	0
6	313	603.134950270608	0
6	314	605.813793020028	0
6	316	609.200889985245	0
6	318	610.173953034799	1
6	319	612.737163345519	1
6	321	612.980541173579	1
6	328	643.570812992448	1
6	331	648.896002837359	0
6	333	652.09946073414	0
6	336	653.773710425091	0
6	338	654.711139710773	0
6	343	671.559554006528	0
6	350	686.391080063499	0
6	351	697.741285468155	0
6	353	702.435029905981	0
6	355	711.955453553369	1
6	357	712.551934658254	2
6	360	713.684025465401	2
6	361	716.103947248609	1
6	363	721.347548185523	1
6	366	724.068024687054	1
6	369	728.361116824057	0
6	380	739.812602447366	0
6	381	743.591645165201	0
6	385	744.908658692014	0
6	394	770.300423941104	0
6	396	772.705257103947	0
6	397	779.841195753463	0
6	412	806.13012311482	0
6	413	809.788621009493	0
6	415	811.858998937252	0
6	422	822.553814921187	0
6	448	863.28509472209	0
6	450	867.68999344566	1
6	451	875.712599305435	1
6	453	876.537854406773	1
6	456	882.96622316676	1
6	459	885.592941104177	0
6	463	893.602110190585	0
6	464	894.378424353019	0
6	467	901.844889125823	0
6	468	903.152273366745	0
6	491	948.259548206261	0
6	492	952.376490141072	0
6	530	1041.233624618206	0
6	531	1041.571048169333	0
6	540	1055.755977745646	0
6	543	1062.882648021447	0
6	545	1065.018720876321	0
6	548	1066.933316218007	0
6	555	1075.275228128681	0
6	556	1076.256302334389	0
6	558	1078.450599689527	0
6	560	1093.025662129838	1
6	563	1101.044873966107	1
6	564	1104.97559765938	0
6	568	1106.189148516697	0
6	569	1108.320265366384	0
6	587	1161.606097471778	0
6	588	1162.099070769479	0
6	590	1163.578442419488	0
6	591	1163.599898497981	0
6	605	1201.575345488697	0
6	607	1205.21468365384	1
6	608	1208.59109506682	1
6	610	1209.074318248075	1
6	613	1214.959777917193	1
6	615	1216.39044955247	1
6	616	1216.418914257317	1
6	619	1216.69539570998	0
6	623	1231.062298958818	0
6	627	1234.247326850965	1
6	628	1234.485155119082	1
6	631	1237.180407132712	0
6	635	1248.342184019664	0
6	640	1252.726239194472	0
6	642	1253.386172667756	0
6	643	1254.692139136831	0
6	646	1261.957583257431	0
6	647	1264.253429739185	0
6	655	1277.467176934737	0
6	657	1278.936722892472	1
6	661	1306.576914852068	2
6	662	1306.594944777772	2
6	667	1318.350711012374	1
6	669	1323.736502562113	1
6	670	1329.912173206269	1
6	672	1334.919738381796	1
6	673	1336.323561465077	1
6	674	1342.793616709947	0
6	677	1345.193422541783	0
6	678	1345.406573508716	0
6	683	1347.404884195096	0
6	686	1372.186271350759	0
6	700	1395.880752839439	0
6	705	1407.67217438019	0
6	716	1423.878087902705	0
6	717	1427.014325713149	0
6	731	1456.975740307744	0
6	732	1457.758561688074	0
6	742	1475.209722097707	0
6	746	1478.042304220319	1
6	748	1491.383258494281	2
6	749	1492.48281635288	2
6	750	1502.189513789901	1
6	751	1510.975680558798	0
6	757	1516.479068035088	0
6	758	1523.410293211496	0
6	776	1590.50042477963	0
6	777	1593.720311977243	0
6	779	1599.013666144167	0
6	780	1606.328363413754	0
6	791	1631.434037847915	0
6	794	1640.800861504241	0
6	803	1650.493728198422	0
6	807	1658.593476369919	1
6	813	1665.372692648625	2
6	814	1666.068130749241	2
6	822	1681.278513467016	2
6	823	1683.577731479648	2
6	824	1689.986613867626	1
6	825	1700.330346608656	0
6	868	1766.04703695457	0
6	869	1766.734498458802	0
6	877	1773.520726651988	0
6	879	1779.875668708269	1
6	881	1781.162383615031	2
6	882	1792.511800644244	2
6	885	1803.090722788269	1
6	888	1807.135319492344	0
6	893	1815.390857124158	0
6	894	1821.496970385995	0
6	911	1862.080332632237	0
6	918	1874.130235657824	0
6	923	1880.381953975635	0
6	924	1883.731439592498	0
6	938	1919.782592244217	0
6	941	1926.149340147402	0
6	949	1945.274415883366	0
6	950	1950.377797689256	0
6	953	1965.142792458315	0
6	956	1980.098509659548	0
6	962	2029.457987501145	0
6	963	2031.461818523712	0
6	967	2034.339112489427	0
6	968	2034.975261927626	0
6	970	2036.288220455867	0
6	971	2037.841515858241	0
6	985	2052.514086448142	0
6	986	2052.828554651623	0
6	989	2064.672210610458	0
6	993	2066.987813455407	1
6	998	2069.819999846102	1
6	999	2075.989212829218	0
6	1009	2109.822365075834	0
6	1010	2113.408142391555	0
6	1013	2125.829693711752	0
6	1014	2132.383754135025	0
6	1030	2149.756655770248	0
6	1035	2163.674840967017	0
6	1039	2167.166571253802	0
6	1040	2169.1360163525	0
6	1044	2174.916574713006	0
6	1045	2176.179168678742	0
6	1051	2192.895363616005	0
6	1052	2194.622402056949	0
6	1055	2201.892852908397	0
6	1062	2215.592114654957	0
6	1073	2232.882083632135	0
6	1079	2259.340022759345	1
6	1080	2259.559377772673	1
6	1083	2261.184820637509	0
6	1093	2277.162737970621	0
6	1094	2281.629446357456	0
6	1103	2296.648678655655	0
6	1105	2298.575357641728	1
6	1108	2303.271497957442	1
6	1110	2303.500581520958	1
6	1114	2307.262137981784	2
6	1115	2311.668645009345	2
6	1116	2312.728562109598	1
6	1117	2314.081630730788	0
6	1145	2388.40867807511	0
6	1150	2397.879916470677	0
6	1166	2422.686534544323	0
6	1169	2430.650935837055	0
6	1172	2432.913250480392	0
6	1173	2433.222892597296	0
6	1175	2438.546595932053	0
6	1176	2443.045118058705	0
6	1186	2463.754640204455	0
6	1187	2466.540138406276	0
6	1189	2467.837102292445	0
6	1196	2473.018103354904	0
6	1200	2475.119593842137	0
6	1203	2493.289642459603	0
7	200	407.023051346512	0
7	228	451.986862219571	0
7	239	475.621946692236	23.380691910817
7	246	482.634120723363	26.364967239341
7	251	491.688440124482	28.900354437594
7	252	492.354358169471	20.604182326943
7	255	499.866230505341	14.027275292125
7	266	519.115936014759	0
7	271	528.042736923116	5.790775230584
7	280	536.448784780586	6.084115734661
7	300	572.603760894772	0
7	303	593.450644041437	6.211181111528
7	313	603.134950270608	0
7	316	609.200889985245	0
7	319	612.737163345519	2.56321031072
7	328	643.570812992448	30.590271818869
7	333	652.09946073414	0
7	338	654.711139710773	0
7	350	686.391080063499	0
7	353	702.435029905981	0
7	360	713.684025465401	1.728571912032
7	361	716.103947248609	3.552012590355
7	366	724.068024687054	2.720476501531
7	380	739.812602447366	0
7	385	744.908658692014	0
7	396	772.705257103947	0
7	412	806.13012311482	0
7	415	811.858998937252	0
7	448	863.28509472209	0
7	451	875.712599305435	8.022605859775
7	456	882.96622316676	6.428368759987
7	463	893.602110190585	0
7	467	901.844889125823	0
7	491	948.259548206261	0
7	530	1041.233624618206	0
7	540	1055.755977745646	0
7	545	1065.018720876321	0
7	555	1075.275228128681	0
7	558	1078.450599689527	0
7	563	1101.044873966107	8.019211836269
7	568	1106.189148516697	0
7	587	1161.606097471778	0
7	590	1163.578442419488	0
7	605	1201.575345488697	0
7	608	1208.59109506682	3.37641141298
7	613	1214.959777917193	5.885459669118
7	616	1216.418914257317	0.028464704847
7	623	1231.062298958818	0
7	628	1234.485155119082	0.237828268117
7	635	1248.342184019664	0
7	642	1253.386172667756	0
7	646	1261.957583257431	0
7	655	1277.467176934737	0
7	662	1306.594944777772	27.6582218853
7	667	1318.350711012374	11.773796160306
7	670	1329.912173206269	6.175670644156
7	673	1336.323561465077	1.403823083281
7	677	1345.193422541783	0
7	683	1347.404884195096	0
7	700	1395.880752839439	0
7	716	1423.878087902705	0
7	731	1456.975740307744	0
7	742	1475.209722097707	0
7	749	1492.48281635288	14.440512132561
7	750	1502.189513789901	10.80625529562
7	757	1516.479068035088	0
7	776	1590.50042477963	0
7	779	1599.013666144167	0
7	791	1631.434037847915	0
7	803	1650.493728198422	0
7	814	1666.068130749241	7.474654379322
7	823	1683.577731479648	18.205038831023
7	824	1689.986613867626	8.70810040061
7	868	1766.04703695457	0
7	877	1773.520726651988	0
7	882	1792.511800644244	12.636131935975
7	885	1803.090722788269	21.928339173238
7	893	1815.390857124158	0
7	911	1862.080332632237	0
7	923	1880.381953975635	0
7	938	1919.782592244217	0
7	949	1945.274415883366	0
7	953	1965.142792458315	0
7	962	2029.457987501145	0
7	967	2034.339112489427	0
7	970	2036.288220455867	0
7	985	2052.514086448142	0
7	989	2064.672210610458	0
7	998	2069.819999846102	2.832186390695
7	1009	2109.822365075834	0
7	1013	2125.829693711752	0
7	1030	2149.756655770248	0
7	1039	2167.166571253802	0
7	1044	2174.916574713006	0
7	1051	2192.895363616005	0
7	1055	2201.892852908397	0
7	1073	2232.882083632135	0
7	1080	2259.559377772673	0.219355013328
7	1093	2277.162737970621	0
7	1103	2296.648678655655	0
7	1108	2303.271497957442	4.696140315714
7	1115	2311.668645009345	8.168063488387
7	1116	2312.728562109598	5.466424127814
7	1145	2388.40867807511	0
7	1166	2422.686534544323	0
7	1172	2432.913250480392	0
7	1175	2438.546595932053	0
7	1186	2463.754640204455	0
7	1189	2467.837102292445	0
7	1200	2475.119593842137	0
8	201	410.473048469001	22
8	239	475.621946692236	23
8	246	482.634120723363	24
8	251	491.688440124482	25
8	252	492.354358169471	26
8	255	499.866230505341	27
8	262	517.033484938125	28
8	271	528.042736923116	29
8	280	536.448784780586	30
8	281	536.512901876118	31
8	303	593.450644041437	32
8	304	596.733177878572	33
8	314	605.813793020028	34
8	319	612.737163345519	35
8	328	643.570812992448	36
8	331	648.896002837359	37
8	336	653.773710425091	38
8	343	671.559554006528	39
8	351	697.741285468155	40
8	360	713.684025465401	41
8	361	716.103947248609	42
8	366	724.068024687054	43
8	369	728.361116824057	44
8	381	743.591645165201	45
8	394	770.300423941104	46
8	397	779.841195753463	47
8	413	809.788621009493	48
8	422	822.553814921187	49
8	451	875.712599305435	50
8	456	882.96622316676	51
8	459	885.592941104177	52
8	464	894.378424353019	53
8	468	903.152273366745	54
8	492	952.376490141072	55
8	531	1041.571048169333	56
8	543	1062.882648021447	57
8	548	1066.933316218007	58
8	556	1076.256302334389	59
8	563	1101.044873966107	60
8	564	1104.97559765938	61
8	569	1108.320265366384	62
8	588	1162.099070769479	63
8	591	1163.599898497981	64
8	608	1208.59109506682	65
8	613	1214.959777917193	66
8	616	1216.418914257317	67
8	619	1216.69539570998	68
8	628	1234.485155119082	69
8	631	1237.180407132712	70
8	640	1252.726239194472	71
8	643	1254.692139136831	72
8	647	1264.253429739185	73
8	662	1306.594944777772	74
8	667	1318.350711012374	75
8	670	1329.912173206269	76
8	673	1336.323561465077	77
8	674	1342.793616709947	78
8	678	1345.406573508716	79
8	686	1372.186271350759	80
8	705	1407.67217438019	81
8	717	1427.014325713149	82
8	732	1457.758561688074	83
8	749	1492.48281635288	84
8	750	1502.189513789901	85
8	751	1510.975680558798	86
8	758	1523.410293211496	87
8	777	1593.720311977243	88
8	780	1606.328363413754	89
8	794	1640.800861504241	90
8	814	1666.068130749241	91
8	823	1683.577731479648	92
8	824	1689.986613867626	93
8	825	1700.330346608656	94
8	869	1766.734498458802	95
8	882	1792.511800644244	96
8	885	1803.090722788269	97
8	888	1807.135319492344	98
8	894	1821.496970385995	99
8	918	1874.130235657824	100
8	924	1883.731439592498	101
8	941	1926.149340147402	102
8	950	1950.377797689256	103
8	956	1980.098509659548	104
8	963	2031.461818523712	105
8	968	2034.975261927626	106
8	971	2037.841515858241	107
8	986	2052.828554651623	108
8	998	2069.819999846102	109
8	999	2075.989212829218	110
8	1010	2113.408142391555	111
8	1014	2132.383754135025	112
8	1035	2163.674840967017	113
8	1040	2169.1360163525	114
8	1045	2176.179168678742	115
8	1052	2194.622402056949	116
8	1062	2215.592114654957	117
8	1080	2259.559377772673	118
8	1083	2261.184820637509	119
8	1094	2281.629446357456	120
8	1108	2303.271497957442	121
8	1115	2311.668645009345	122
8	1116	2312.728562109598	123
8	1117	2314.081630730788	124
8	1150	2397.879916470677	125
8	1169	2430.650935837055	126
8	1173	2433.222892597296	127
8	1176	2443.045118058705	128
8	1187	2466.540138406276	129
8	1196	2473.018103354904	130
8	1203	2493.289642459603	131
9	201	410.473048469001	3.449997122489
9	239	475.621946692236	23.635084472665
9	246	482.634120723363	30.392865941944
9	251	491.688440124482	35.41928664046
9	252	492.354358169471	29.566272482583
9	255	499.866230505341	28.116054662813
9	262	517.033484938125	31.194529724909
9	271	528.042736923116	8.926800908357
9	280	536.448784780586	14.196823088054
9	281	536.512901876118	6.148232830193
9	303	593.450644041437	20.846883146665
9	304	596.733177878572	9.493714948663
9	314	605.813793020028	2.67884274942
9	319	612.737163345519	3.536273360274
9	328	643.570812992448	33.396859957649
9	331	648.896002837359	35.91546166378
9	336	653.773710425091	1.674249690951
9	343	671.559554006528	16.848414295755
9	351	697.741285468155	11.350205404656
9	360	713.684025465401	11.24899555942
9	361	716.103947248609	4.14849369524
9	366	724.068024687054	11.5160900288
9	369	728.361116824057	7.013568638534
9	381	743.591645165201	3.779042717835
9	394	770.300423941104	25.39176524909
9	397	779.841195753463	7.135938649516
9	413	809.788621009493	3.658497894673
9	422	822.553814921187	10.694815983935
9	451	875.712599305435	12.427504583345
9	456	882.96622316676	15.2762297211
9	459	885.592941104177	9.055086697404
9	464	894.378424353019	0.776314162434
9	468	903.152273366745	1.307384240922
9	492	952.376490141072	4.116941934811
9	531	1041.571048169333	0.337423551127
9	543	1062.882648021447	7.126670275801
9	548	1066.933316218007	1.914595341686
9	556	1076.256302334389	0.981074205708
9	563	1101.044873966107	22.59427427658
9	564	1104.97559765938	11.949935529542
9	569	1108.320265366384	2.131116849687
9	588	1162.099070769479	0.492973297701
9	591	1163.599898497981	0.021456078493
9	608	1208.59109506682	7.015749578123
9	613	1214.959777917193	9.745094263353
9	616	1216.418914257317	7.344596009242
9	619	1216.69539570998	0.30494615751
9	628	1234.485155119082	3.422856160264
9	631	1237.180407132712	2.933080281747
9	640	1252.726239194472	4.384055174808
9	643	1254.692139136831	1.305966469075
9	647	1264.253429739185	2.295846481754
9	662	1306.594944777772	29.127767843035
9	667	1318.350711012374	39.413988119902
9	670	1329.912173206269	23.335258354201
9	673	1336.323561465077	12.587058902964
9	674	1342.793616709947	7.873878328151
9	678	1345.406573508716	0.213150966933
9	686	1372.186271350759	24.781387155663
9	705	1407.67217438019	11.791421540751
9	717	1427.014325713149	3.136237810444
9	732	1457.758561688074	0.78282138033
9	749	1492.48281635288	17.273094255173
9	750	1502.189513789901	24.147209569582
9	751	1510.975680558798	19.592422064517
9	758	1523.410293211496	6.931225176408
9	777	1593.720311977243	3.219887197613
9	780	1606.328363413754	7.314697269587
9	794	1640.800861504241	9.366823656326
9	814	1666.068130749241	15.574402550819
9	823	1683.577731479648	24.984255109729
9	824	1689.986613867626	24.613921219001
9	825	1700.330346608656	19.05183314164
9	869	1766.734498458802	0.687461504232
9	882	1792.511800644244	18.991073992256
9	885	1803.090722788269	23.21505408
9	888	1807.135319492344	25.972935877313
9	894	1821.496970385995	6.106113261837
9	918	1874.130235657824	12.049903025587
9	924	1883.731439592498	3.349485616863
9	941	1926.149340147402	6.366747903185
9	950	1950.377797689256	5.10338180589
9	956	1980.098509659548	14.955717201233
9	963	2031.461818523712	2.003831022567
9	968	2034.975261927626	0.636149438199
9	971	2037.841515858241	1.553295402374
9	986	2052.828554651623	0.314468203481
9	998	2069.819999846102	5.147789235644
9	999	2075.989212829218	9.001399373811
9	1010	2113.408142391555	3.585777315721
9	1014	2132.383754135025	6.554060423273
9	1035	2163.674840967017	13.918185196769
9	1040	2169.1360163525	1.969445098698
9	1045	2176.179168678742	1.262593965736
9	1052	2194.622402056949	1.727038440944
9	1062	2215.592114654957	13.69926174656
9	1080	2259.559377772673	26.677294140538
9	1083	2261.184820637509	1.844797878164
9	1094	2281.629446357456	4.466708386835
9	1108	2303.271497957442	6.622819301787
9	1115	2311.668645009345	13.093287367617
9	1116	2312.728562109598	9.22798058864
9	1117	2314.081630730788	6.819492749004
9	1150	2397.879916470677	9.471238395567
9	1169	2430.650935837055	7.964401292732
9	1173	2433.222892597296	0.309642116904
9	1176	2443.045118058705	4.498522126652
9	1187	2466.540138406276	2.785498201821
9	1196	2473.018103354904	5.181001062459
9	1203	2493.289642459603	18.170048617466
10	228	451.986862219571	12
10	266	519.115936014759	13
10	300	572.603760894772	14
10	313	603.134950270608	15
10	316	609.200889985245	16
10	333	652.09946073414	17
10	338	654.711139710773	18
10	350	686.391080063499	19
10	353	702.435029905981	20
10	380	739.812602447366	21
10	385	744.908658692014	22
10	396	772.705257103947	23
10	412	806.13012311482	24
10	415	811.858998937252	25
10	448	863.28509472209	26
10	463	893.602110190585	27
10	540	1055.755977745646	28
10	545	1065.018720876321	29
10	555	1075.275228128681	30
10	558	1078.450599689527	31
10	568	1106.189148516697	32
10	642	1253.386172667756	33
10	646	1261.957583257431	34
10	655	1277.467176934737	35
10	677	1345.193422541783	36
10	683	1347.404884195096	37
10	700	1395.880752839439	38
10	742	1475.209722097707	39
10	757	1516.479068035088	40
10	868	1766.04703695457	41
10	877	1773.520726651988	42
10	893	1815.390857124158	43
10	949	1945.274415883366	44
10	967	2034.339112489427	45
10	970	2036.288220455867	46
10	985	2052.514086448142	47
10	1009	2109.822365075834	48
10	1030	2149.756655770248	49
10	1039	2167.166571253802	50
10	1044	2174.916574713006	51
10	1051	2192.895363616005	52
10	1093	2277.162737970621	53
10	1186	2463.754640204455	54
10	1189	2467.837102292445	55
10	1200	2475.119593842137	56
11	1210	2500	0.108
12	1210	2500	0.0524

