version 2
run experiments_hard_game_mode1-1021-20230311-19:42:59-9957
attr configname experiments_hard_game_mode1
attr datetime 20230311-19:42:59
attr experiment experiments_hard_game_mode1
attr inifile omnetpp.ini
attr iterationvars "$0=9, $1=5, $2=0"
attr iterationvarsf 9,5,0-
attr measurement "$0=9, $1=5, $2=0"
attr network Network
attr processid 9957
attr repetition 1
attr replication #1
attr resultdir results
attr runnumber 1021
attr seedset 1
param *.boss.arrival_mean 20
param *.boss.service_mean 9
param *.minion.arrival_mean 10
param *.minion.service_mean 5
param *.player.recover_rate_x 0
param **.minion.arrival_distribution 0
param **.minion.service_distribution 0
param **.boss.arrival_distribution 0
param **.boss.service_distribution 0

vector 0 Network.player boss_defeated_stat:vector ETV
attr source signal_boss_defeated
vector 1 Network.player boss_jobs_queue_number_stat:vector ETV
attr source signal_boss_jobs_queue_number
vector 2 Network.player boss_response_time_stat:vector ETV
attr source signal_boss_response_time
vector 3 Network.player minion_waiting_time_stat:vector ETV
attr source signal_minion_waiting_time
vector 4 Network.player minion_defeated_stat:vector ETV
attr source signal_minion_defeated
vector 5 Network.player minion_jobs_queue_number_stat:vector ETV
attr source signal_minion_jobs_queue_number
vector 6 Network.player minion_response_time_stat:vector ETV
attr source signal_minion_response_time
vector 7 Network.player minion_jobs_number_stat:vector ETV
attr source signal_minion_jobs_number
vector 8 Network.player boss_jobs_number_stat:vector ETV
attr source signal_boss_jobs_number
vector 9 Network.player minion_recovered_stat:vector ETV
attr source signal_minion_recovered
vector 10 Network.player boss_waiting_time_stat:vector ETV
attr source signal_boss_waiting_time
vector 11 Network.player minion_throughput:vector ETV
attr source signal_minion_throughput
vector 12 Network.player boss_throughput:vector ETV
attr source signal_boss_throughput
0	126	350.034876330738	18
0	142	375.611465164209	19
0	162	411.011076929426	20
0	174	426.021954139626	21
0	182	462.199067510139	22
0	194	485.20166083724	23
0	195	488.817239485644	24
0	199	499.345724305129	25
0	202	505.005750527447	26
0	213	518.423196628103	27
0	218	531.289085201889	28
0	222	544.983939179886	29
0	230	577.737310308474	30
0	267	681.883932828782	31
0	279	720.025090575988	32
0	288	745.807000160321	33
0	293	760.280394878534	34
0	307	772.535748358449	35
0	328	813.688672133386	36
0	346	855.698231935099	37
0	355	866.711498525741	38
0	373	898.915110397139	39
0	388	923.44892752434	40
0	395	931.707903335116	41
0	400	937.120144383068	42
0	416	986.819223964434	43
0	423	1003.971316061927	44
0	428	1006.327139830153	45
0	429	1008.04815928738	46
0	443	1038.099570759012	47
0	456	1064.188857043544	48
0	463	1096.392710120947	49
0	474	1121.364652574624	50
0	477	1122.6508584059	51
0	480	1128.012197660294	52
0	481	1134.682134621781	53
0	484	1139.052204800797	54
0	510	1199.389355687828	55
0	515	1203.370505028493	56
0	524	1213.321597254297	57
0	525	1215.255448648685	58
0	526	1220.931274769454	59
0	543	1247.963440751325	60
0	554	1274.339136792106	61
0	561	1290.539884911528	62
0	604	1393.706026127362	63
0	615	1411.97236364633	64
0	616	1416.164814404483	65
0	639	1467.491670698058	66
0	642	1473.332140902833	67
0	656	1493.345910221193	68
0	666	1511.862039739226	69
0	676	1536.141598370573	70
0	698	1574.875052967364	71
0	706	1595.794272724979	72
0	726	1659.048733212536	73
0	743	1717.110580375987	74
0	744	1720.50240945778	75
0	753	1733.52618163994	76
0	762	1745.246400151548	77
0	763	1746.632271711519	78
0	769	1758.105912073514	79
0	777	1783.342724985204	80
0	789	1815.433755449839	81
0	796	1826.965648174676	82
0	804	1849.504789579013	83
0	810	1861.613740589927	84
0	821	1878.333297866126	85
0	827	1896.443731641496	86
0	865	1988.516512396493	87
0	878	2016.283801894934	88
0	881	2021.814372758002	89
0	895	2062.941288847243	90
0	901	2078.626263442886	91
0	911	2098.423885514056	92
0	919	2123.066944013103	93
0	936	2162.425351196696	94
0	941	2183.7461124973	95
0	952	2197.946257619712	96
0	953	2199.737274275905	97
0	956	2203.522096043013	98
0	963	2215.684572838907	99
0	973	2231.225847400335	100
0	982	2261.893084394001	101
0	987	2276.777360232022	102
0	992	2282.148382172407	103
0	1000	2301.14200503845	104
0	1003	2310.197448431374	105
0	1006	2319.826945565486	106
0	1007	2326.487325017154	107
0	1016	2347.945373308725	108
0	1020	2358.223001412513	109
0	1030	2377.103686438548	110
0	1041	2398.981303716554	111
0	1052	2414.605054784205	112
0	1053	2415.476253642135	113
0	1063	2424.178682284546	114
0	1068	2438.132956952414	115
0	1073	2457.13235791741	116
0	1081	2487.308793641794	117
1	126	350.034876330738	0
1	139	369.375255317272	0
1	142	375.611465164209	0
1	157	404.258574086135	0
1	162	411.011076929426	0
1	171	415.788676091801	0
1	174	426.021954139626	0
1	179	443.919676013075	0
1	182	462.199067510139	0
1	185	470.546870107225	0
1	193	480.431995840156	1
1	194	485.20166083724	1
1	195	488.817239485644	0
1	198	495.029730108993	0
1	199	499.345724305129	0
1	201	500.513567475372	0
1	202	505.005750527447	0
1	212	517.809300423735	0
1	213	518.423196628103	0
1	215	521.192237302952	0
1	218	531.289085201889	0
1	221	541.925002229654	0
1	222	544.983939179886	0
1	227	567.695925539455	0
1	230	577.737310308474	0
1	266	660.252978140038	0
1	267	681.883932828782	0
1	276	709.366630100926	0
1	279	720.025090575988	0
1	287	743.646848964604	0
1	288	745.807000160321	0
1	290	756.458935907148	0
1	293	760.280394878534	0
1	298	767.120392425216	0
1	307	772.535748358449	0
1	317	789.815789590426	0
1	328	813.688672133386	0
1	341	831.608480159845	0
1	346	855.698231935099	0
1	354	863.970073409175	0
1	355	866.711498525741	0
1	372	898.688180290939	0
1	373	898.915110397139	0
1	383	910.944778126664	0
1	385	912.065066633432	1
1	388	923.44892752434	1
1	395	931.707903335116	0
1	397	934.472084532428	0
1	400	937.120144383068	0
1	411	959.834294333765	0
1	413	963.034023953894	1
1	416	986.819223964434	1
1	418	995.44102465029	1
1	423	1003.971316061927	1
1	425	1004.276199296497	1
1	428	1006.327139830153	1
1	429	1008.04815928738	0
1	436	1030.943152599568	0
1	443	1038.099570759012	0
1	453	1050.110245986447	0
1	456	1064.188857043544	0
1	458	1074.807943387107	0
1	462	1086.494175780376	1
1	463	1096.392710120947	1
1	465	1102.06552599861	1
1	471	1119.223715317434	2
1	474	1121.364652574624	2
1	476	1121.890324746436	2
1	477	1122.6508584059	2
1	479	1123.663479696237	2
1	480	1128.012197660294	2
1	481	1134.682134621781	1
1	484	1139.052204800797	0
1	507	1186.897939430832	0
1	509	1191.951539220539	1
1	510	1199.389355687828	1
1	514	1202.276890746692	1
1	515	1203.370505028493	1
1	519	1207.192094069512	1
1	523	1212.083298246598	2
1	524	1213.321597254297	2
1	525	1215.255448648685	1
1	526	1220.931274769454	0
1	542	1247.010455122903	0
1	543	1247.963440751325	0
1	553	1272.276126545475	0
1	554	1274.339136792106	0
1	558	1284.608791838486	0
1	561	1290.539884911528	0
1	603	1387.632399260903	0
1	604	1393.706026127362	0
1	610	1403.412013724196	0
1	614	1409.315926484005	1
1	615	1411.97236364633	1
1	616	1416.164814404483	0
1	632	1440.302525160037	0
1	638	1462.555294735073	1
1	639	1467.491670698058	1
1	642	1473.332140902833	0
1	653	1489.486066902343	0
1	656	1493.345910221193	0
1	665	1507.762238717833	0
1	666	1511.862039739226	0
1	673	1533.228522866138	0
1	676	1536.141598370573	0
1	691	1558.498177338543	0
1	698	1574.875052967364	0
1	703	1590.470735222049	0
1	706	1595.794272724979	0
1	723	1645.874418155944	0
1	726	1659.048733212536	0
1	736	1688.598277283569	0
1	738	1697.269698461538	1
1	743	1717.110580375987	1
1	744	1720.50240945778	0
1	750	1731.744765826945	0
1	753	1733.52618163994	0
1	757	1737.595552176882	0
1	761	1744.899527686484	1
1	762	1745.246400151548	1
1	763	1746.632271711519	0
1	768	1755.198627303625	0
1	769	1758.105912073514	0
1	776	1782.557906561692	0
1	777	1783.342724985204	0
1	784	1810.00658113624	0
1	789	1815.433755449839	0
1	793	1819.834207241802	0
1	796	1826.965648174676	0
1	803	1845.586409673488	0
1	804	1849.504789579013	0
1	809	1858.271437782732	0
1	810	1861.613740589927	0
1	812	1868.692586631094	0
1	821	1878.333297866126	0
1	826	1893.453134115984	0
1	827	1896.443731641496	0
1	864	1984.3531764257	0
1	865	1988.516512396493	0
1	871	1993.439770634155	0
1	877	2005.414674315447	1
1	878	2016.283801894934	1
1	881	2021.814372758002	0
1	890	2057.829292268349	0
1	895	2062.941288847243	0
1	898	2067.19127090892	0
1	901	2078.626263442886	0
1	910	2093.540604683601	0
1	911	2098.423885514056	0
1	916	2118.272495163052	0
1	919	2123.066944013103	0
1	921	2123.862463980623	0
1	923	2125.583614538701	1
1	929	2148.351335550223	2
1	933	2158.513685384924	3
1	935	2159.742235841395	4
1	936	2162.425351196696	4
1	941	2183.7461124973	3
1	943	2189.21250810744	3
1	952	2197.946257619712	3
1	953	2199.737274275905	2
1	956	2203.522096043013	1
1	963	2215.684572838907	0
1	970	2228.011412246586	0
1	973	2231.225847400335	0
1	979	2256.953625658148	0
1	982	2261.893084394001	0
1	984	2270.467559923692	0
1	987	2276.777360232022	0
1	989	2277.145134657383	0
1	992	2282.148382172407	0
1	995	2292.356304954715	0
1	997	2296.559424856657	1
1	999	2299.848805152245	2
1	1000	2301.14200503845	2
1	1003	2310.197448431374	1
1	1005	2312.593632662147	1
1	1006	2319.826945565486	1
1	1007	2326.487325017154	0
1	1015	2345.24593224152	0
1	1016	2347.945373308725	0
1	1019	2353.399464487008	0
1	1020	2358.223001412513	0
1	1029	2372.427930054302	0
1	1030	2377.103686438548	0
1	1040	2398.96845263205	0
1	1041	2398.981303716554	0
1	1047	2404.701489116181	0
1	1049	2408.893875339512	1
1	1052	2414.605054784205	1
1	1053	2415.476253642135	0
1	1058	2418.968326914021	0
1	1063	2424.178682284546	0
1	1065	2427.010862944216	0
1	1068	2438.132956952414	0
1	1072	2443.433928593672	0
1	1073	2457.13235791741	0
1	1080	2480.621220096792	0
1	1081	2487.308793641794	0
1	1084	2496.852317827315	0
2	126	350.034876330738	0.144344588427
2	142	375.611465164209	6.236209846937
2	162	411.011076929426	6.752502843291
2	174	426.021954139626	10.233278047825
2	182	462.199067510139	18.279391497064
2	194	485.20166083724	14.654790730015
2	195	488.817239485644	8.385243645488
2	199	499.345724305129	4.315994196136
2	202	505.005750527447	4.492183052075
2	213	518.423196628103	0.613896204368
2	218	531.289085201889	10.096847898937
2	222	544.983939179886	3.058936950232
2	230	577.737310308474	10.041384769019
2	267	681.883932828782	21.630954688744
2	279	720.025090575988	10.658460475062
2	288	745.807000160321	2.160151195717
2	293	760.280394878534	3.821458971386
2	307	772.535748358449	5.415355933233
2	328	813.688672133386	23.87288254296
2	346	855.698231935099	24.089751775254
2	355	866.711498525741	2.741425116566
2	373	898.915110397139	0.2269301062
2	388	923.44892752434	12.504149397676
2	395	931.707903335116	19.642836701684
2	400	937.120144383068	2.64805985064
2	416	986.819223964434	26.984929630669
2	423	1003.971316061927	40.937292108033
2	428	1006.327139830153	10.886115179863
2	429	1008.04815928738	3.771959990883
2	443	1038.099570759012	7.156418159444
2	456	1064.188857043544	14.078611057097
2	463	1096.392710120947	21.58476673384
2	474	1121.364652574624	34.870476794248
2	477	1122.6508584059	20.58533240729
2	480	1128.012197660294	8.78848234286
2	481	1134.682134621781	12.791809875345
2	484	1139.052204800797	15.38872510456
2	510	1199.389355687828	12.491416256996
2	515	1203.370505028493	11.418965807954
2	524	1213.321597254297	11.044706507605
2	525	1215.255448648685	8.063354579173
2	526	1220.931274769454	8.847976522856
2	543	1247.963440751325	0.952985628422
2	554	1274.339136792106	2.063010246631
2	561	1290.539884911528	5.931093073042
2	604	1393.706026127362	6.073626866459
2	615	1411.97236364633	8.560349922134
2	616	1416.164814404483	6.848887920478
2	639	1467.491670698058	27.189145538021
2	642	1473.332140902833	10.77684616776
2	656	1493.345910221193	3.85984331885
2	666	1511.862039739226	4.099801021393
2	676	1536.141598370573	2.913075504435
2	698	1574.875052967364	16.376875628821
2	706	1595.794272724979	5.32353750293
2	726	1659.048733212536	13.174315056592
2	743	1717.110580375987	28.512303092418
2	744	1720.50240945778	23.232710996242
2	753	1733.52618163994	1.781415812995
2	762	1745.246400151548	7.650847974666
2	763	1746.632271711519	1.732744025035
2	769	1758.105912073514	2.907284769889
2	777	1783.342724985204	0.784818423512
2	789	1815.433755449839	5.427174313599
2	796	1826.965648174676	7.131440932874
2	804	1849.504789579013	3.918379905525
2	810	1861.613740589927	3.342302807195
2	821	1878.333297866126	9.640711235032
2	827	1896.443731641496	2.990597525512
2	865	1988.516512396493	4.163335970793
2	878	2016.283801894934	22.844031260779
2	881	2021.814372758002	16.399698442555
2	895	2062.941288847243	5.111996578894
2	901	2078.626263442886	11.434992533966
2	911	2098.423885514056	4.883280830455
2	919	2123.066944013103	4.794448850051
2	936	2162.425351196696	38.562887216073
2	941	2183.7461124973	58.162497958599
2	952	2197.946257619712	49.594922069489
2	953	2199.737274275905	41.223588890981
2	956	2203.522096043013	43.779860201618
2	963	2215.684572838907	26.472064731467
2	973	2231.225847400335	3.214435153749
2	982	2261.893084394001	4.939458735853
2	987	2276.777360232022	6.30980030833
2	992	2282.148382172407	5.003247515024
2	1000	2301.14200503845	8.785700083735
2	1003	2310.197448431374	13.638023574717
2	1006	2319.826945565486	19.978140413241
2	1007	2326.487325017154	13.893692355007
2	1016	2347.945373308725	2.699441067205
2	1020	2358.223001412513	4.823536925505
2	1030	2377.103686438548	4.675756384246
2	1041	2398.981303716554	0.012851084504
2	1052	2414.605054784205	9.903565668024
2	1053	2415.476253642135	6.582378302623
2	1063	2424.178682284546	5.210355370525
2	1068	2438.132956952414	11.122094008198
2	1073	2457.13235791741	13.698429323738
2	1081	2487.308793641794	6.687573545002
3	126	350.034876330738	40.947934701237
3	127	352.94567199173	39.531882164309
3	128	353.329824793892	39.756604428822
3	131	354.718750223371	26.187630631487
3	132	357.768547506536	21.06579324473
3	133	361.195184624595	11.304652882284
3	142	375.611465164209	21.054313308528
3	143	376.473181877513	12.649287046301
3	146	383.700699602901	18.087424970088
3	147	394.299394383127	24.924139065855
3	152	398.724758691937	28.139524819865
3	153	399.312490822776	19.630779924051
3	154	400.914112668887	4.522047469285
3	155	402.055865275976	5.57353294672
3	162	411.011076929426	6.752502843291
3	163	411.482551300838	5.519170630333
3	164	412.116580795492	1.26628801748
3	167	413.949212177533	0
3	174	426.021954139626	11.62109396179
3	175	430.976862642992	15.188186551191
3	176	439.652099034388	14.925401421534
3	182	462.199067510139	6.087199788563
3	195	488.817239485644	16.042002630651
3	196	492.204947367453	13.700099747026
3	199	499.345724305129	20.648796284118
3	202	505.005750527447	9.976020418454
3	203	506.761536500558	6.247969025186
3	208	512.175130522337	3.72335466657
3	209	513.720129784399	4.862421617126
3	218	531.289085201889	6.999275833739
3	224	553.294729384193	0
3	230	577.737310308474	4.321813458175
3	233	579.327708019238	0
3	240	588.087160128579	6.857945821362
3	243	590.071401390041	3.019892135852
3	246	599.03498336614	11.204414500658
3	249	599.813367639131	11.303119746061
3	252	610.960552865649	13.268812217299
3	253	611.865841774089	12.239937534375
3	256	627.717877405962	26.253079108541
3	259	644.329419699365	22.774212411114
3	260	648.449540135673	13.67501809024
3	267	681.883932828782	28.56062121094
3	268	682.3585019409	23.785203489723
3	269	683.402330545182	23.149352405144
3	272	687.721692515403	3.225280320613
3	279	720.025090575988	28.022846952393
3	280	720.148124778194	10.781494677268
3	281	726.096653795403	13.668599029021
3	284	740.165402144317	0
3	293	760.280394878534	2.081324544659
3	296	766.05496867775	0.480808088004
3	307	772.535748358449	5.415355933233
3	310	777.487582841763	8.889226487414
3	315	786.757095567636	17.013679503244
3	328	813.688672133386	43.581124331602
3	331	818.475861447209	46.64590734934
3	332	818.591862173144	44.164316755104
3	333	822.733118423123	40.426539481721
3	336	827.042875320962	42.364118125236
3	337	829.338488132848	39.522698542422
3	346	855.698231935099	63.587607725249
3	347	855.706449534942	61.602524339669
3	352	861.577406337447	57.323131287733
3	355	866.711498525741	58.657550611037
3	360	875.180154771996	61.992995465985
3	363	880.285566950164	64.340363984191
3	368	893.279986981523	66.842129414969
3	373	898.915110397139	67.771319859582
3	374	898.943868244685	67.33538808484
3	375	901.174800797394	64.974287615837
3	378	902.674232640248	56.458936866062
3	381	909.049063401328	53.054336977785
3	395	931.707903335116	73.189609075893
3	400	937.120144383068	73.150070973893
3	401	938.350383859167	65.247525636626
3	406	948.570103046745	73.973526273809
3	409	949.68435479318	73.11577412659
3	429	1008.04815928738	122.87581928013
3	430	1014.012745553135	124.1311527185
3	431	1014.023828904282	119.80862429153
3	434	1018.307028968289	119.61884867735
3	443	1038.099570759012	136.90210435367
3	444	1041.269137784193	133.76524499379
3	451	1045.60332503678	134.65854691012
3	456	1064.188857043544	145.08007408457
3	484	1139.052204800797	215.49980768031
3	485	1139.385612331181	212.9072116978
3	486	1141.930954890429	214.58423202027
3	487	1142.906445811046	208.43436127862
3	488	1145.641216493429	210.20350522877
3	489	1154.044073186762	215.69067096239
3	490	1156.133232617735	207.97338169332
3	493	1160.086553045802	211.44104253004
3	496	1164.777989812079	204.94369547831
3	497	1167.431566869775	196.20026311086
3	498	1174.79854848131	177.05905072858
3	499	1175.886064393816	173.639008596
3	502	1179.203337196247	174.26255655937
3	503	1179.851309922587	164.76164682135
3	504	1179.999028461007	149.05587586144
3	505	1183.16582749392	151.42111028444
3	526	1220.931274769454	187.06147440212
3	527	1221.38377487885	186.16514676466
3	528	1223.246199205572	181.1401198369
3	529	1223.837042446013	180.94370825566
3	530	1227.052322887946	182.14461278972
3	531	1228.499040911352	178.3887949249
3	532	1230.206409901187	173.72818282252
3	533	1230.527564366232	155.71962097912
3	538	1239.849959028226	158.31455010898
3	543	1247.963440751325	137.0394210935
3	544	1249.573732489517	132.99650623659
3	547	1254.568916549382	134.19848911172
3	548	1255.849758526783	117.74869198923
3	549	1264.33182853753	105.33405916171
3	554	1274.339136792106	109.94952268897
3	555	1278.513635301258	102.14525347387
3	556	1280.881883730889	93.983944300057
3	561	1290.539884911528	90.667648657366
3	562	1295.584056410355	91.305459628277
3	563	1298.005807556662	88.538209211067
3	566	1306.359778932961	73.39791932054
3	567	1308.157473878331	71.17329328904
3	570	1321.222261883275	79.515307641402
3	571	1322.307640514238	75.297185391335
3	572	1331.897094762439	81.700576848925
3	577	1344.084926168632	75.133370396673
3	578	1350.749919730739	78.473793185264
3	585	1357.133839931488	72.525048093002
3	586	1363.317067849276	75.693546840541
3	595	1372.026509145665	71.181385984878
3	600	1385.133720102434	64.554754115293
3	601	1385.628418923462	53.043633141074
3	604	1393.706026127362	52.065553227705
3	605	1395.945659110336	43.233401244073
3	606	1398.705683195311	45.108810734676
3	607	1398.886457261579	44.455994361584
3	608	1403.064060728233	39.538792910659
3	616	1416.164814404483	52.182794182403
3	617	1417.375039868567	50.576633133047
3	620	1425.326715687026	57.527916658769
3	621	1426.180841824704	45.192191523445
3	622	1426.443326671975	43.002953641991
3	627	1435.477108482294	47.844709221391
3	628	1439.236877640538	35.824863916342
3	642	1473.332140902833	67.386973723607
3	643	1474.377528931859	51.980853490117
3	650	1483.700961693876	54.073705937559
3	651	1485.975376452056	55.2902876792
3	656	1493.345910221193	53.408427172637
3	657	1494.746403848209	54.443878688172
3	658	1497.285041922412	56.683474833758
3	659	1498.005783957738	56.731404127552
3	662	1505.931644411463	35.84203319678
3	663	1506.90395384543	29.047429915782
3	666	1511.862039739226	32.227736201019
3	667	1513.782034982698	32.764453735277
3	668	1518.874727710246	29.388660807903
3	669	1520.5236966462	30.54433079065
3	676	1536.141598370573	36.628461390112
3	679	1539.541914655663	31.77967593783
3	680	1540.853685293144	11.312040827861
3	681	1542.138384006697	8.909861140559
3	682	1545.056912549542	10.995197063927
3	683	1549.436253536065	10.805327542507
3	698	1574.875052967364	21.64437172653
3	701	1588.884057341654	35.434818068512
3	706	1595.794272724979	41.847518723593
3	709	1610.165394604563	51.66721726602
3	710	1612.171228167923	50.870722506552
3	711	1612.615958198003	50.152157768399
3	712	1613.208144329274	47.076908248636
3	713	1621.548365350632	43.896263930744
3	716	1630.823618014452	40.352882792403
3	721	1642.722100509043	47.163485185002
3	726	1659.048733212536	56.261191773131
3	727	1661.172188069313	31.881841853091
3	728	1663.347093887809	25.578802394312
3	729	1663.878494544571	24.729812438418
3	730	1667.187321408398	21.312903252454
3	744	1720.50240945778	62.793499835167
3	745	1722.920156764726	47.424664519458
3	748	1729.696657293164	47.511981500364
3	753	1733.52618163994	44.927904356371
3	754	1734.915821444245	37.278097198914
3	755	1737.248065661497	22.99542526938
3	763	1746.632271711519	20.679275252073
3	764	1746.811223755409	15.066457928464
3	765	1748.333486325016	15.242017675482
3	766	1750.655682984203	13.060130807321
3	769	1758.105912073514	14.503611110302
3	770	1758.93419670583	3.735569402205
3	773	1770.277968062115	0.54089776839
3	779	1797.429649869354	0
3	782	1808.423608925901	0
3	789	1815.433755449839	5.427174313599
3	796	1826.965648174676	15.848178994549
3	797	1827.590675029413	14.8629836895
3	798	1828.179588177121	8.884516843041
3	799	1830.40856234394	10.574355102138
3	800	1834.245245470992	10.415905542626
3	806	1850.05842958545	0
3	821	1878.333297866126	8.192496537188
3	824	1887.818232198436	15.724481608297
3	827	1896.443731641496	20.03776301763
3	828	1900.05906292501	21.992214897748
3	829	1903.013551530771	22.851513692756
3	830	1905.971993306585	12.518859190601
3	833	1914.482613606068	0
3	840	1932.141625762438	11.260648003922
3	841	1940.200739997475	15.454079699143
3	842	1943.774775564068	14.039454815668
3	845	1951.433106009163	0
3	848	1961.080825932835	0
3	851	1968.963691792235	0
3	854	1974.704298001108	0
3	857	1979.34222648922	0
3	860	1982.36574677823	0
3	865	1988.516512396493	4.678219283264
3	881	2021.814372758002	37.461196332302
3	884	2040.871275665713	51.714665183236
3	885	2048.953626802926	58.603432285624
3	886	2053.891174317275	60.45140368312
3	887	2056.01934598213	60.238520330785
3	888	2056.296709206704	59.76559530382
3	895	2062.941288847243	43.139157200578
3	896	2063.997844090504	42.048433346052
3	901	2078.626263442886	20.796971174537
3	902	2083.985818203298	23.106228349631
3	903	2086.997041193838	26.088142476536
3	904	2091.454260587893	24.262989678973
3	911	2098.423885514056	27.744785927167
3	912	2104.493026113833	12.875044042596
3	913	2108.022930215708	15.536462054262
3	914	2110.040626148009	16.500021464408
3	919	2123.066944013103	4.794448850051
3	963	2215.684572838907	95.530526251205
3	966	2216.909492515647	93.047028535024
3	967	2224.591602818891	91.232538117148
3	968	2226.822907061729	86.479268355789
3	973	2231.225847400335	79.52886288172
3	974	2243.947256064817	78.487036646555
3	977	2251.561605239358	68.613071561162
3	982	2261.893084394001	72.24690196817
3	987	2276.777360232022	82.862482164236
3	992	2282.148382172407	88.194218064501
3	993	2283.527615246217	88.966603933309
3	1007	2326.487325017154	125.72122266577
3	1010	2336.1411799143	125.91216940651
3	1011	2338.145458074867	126.34450066607
3	1012	2338.914807840405	125.78979164183
3	1013	2339.346621577845	122.52842340166
3	1016	2347.945373308725	119.93396106214
3	1017	2351.024310289194	119.95453231074
3	1020	2358.223001412513	113.16096399828
3	1027	2371.779033353912	114.82540769576
3	1030	2377.103686438548	116.22228747515
3	1031	2382.510167656794	112.0426077331
3	1032	2382.80181900327	107.84076947106
3	1033	2389.095340773225	111.95020611584
3	1034	2391.346155984084	111.13202685639
3	1041	2398.981303716554	106.62499876184
3	1044	2401.59460274498	96.429472302545
3	1045	2402.279726614675	68.326654851198
3	1053	2415.476253642135	70.230321400615
3	1054	2416.710171102065	63.310706615057
3	1055	2418.075331630388	57.285412054733
3	1056	2418.727686307536	56.028827242723
3	1063	2424.178682284546	60.53515891399
3	1068	2438.132956952414	65.705026898112
3	1073	2457.13235791741	64.914188687142
3	1074	2464.249206393953	69.858121211783
3	1081	2487.308793641794	88.340341009744
3	1082	2490.860395404106	90.20526787451
4	127	352.94567199173	21
4	128	353.329824793892	22
4	131	354.718750223371	23
4	132	357.768547506536	24
4	133	361.195184624595	25
4	143	376.473181877513	26
4	146	383.700699602901	27
4	147	394.299394383127	28
4	152	398.724758691937	29
4	153	399.312490822776	30
4	154	400.914112668887	31
4	155	402.055865275976	32
4	163	411.482551300838	33
4	164	412.116580795492	34
4	165	413.872033149072	35
4	175	430.976862642992	36
4	176	439.652099034388	37
4	177	443.360376476546	38
4	183	466.534639871603	39
4	196	492.204947367453	40
4	203	506.761536500558	41
4	208	512.175130522337	42
4	209	513.720129784399	43
4	210	513.793570256714	44
4	219	532.964252748016	45
4	225	553.784795224658	46
4	231	579.199699415478	47
4	240	588.087160128579	48
4	243	590.071401390041	49
4	246	599.03498336614	50
4	249	599.813367639131	51
4	252	610.960552865649	52
4	253	611.865841774089	53
4	256	627.717877405962	54
4	259	644.329419699365	55
4	260	648.449540135673	56
4	268	682.3585019409	57
4	269	683.402330545182	58
4	272	687.721692515403	59
4	280	720.148124778194	60
4	281	726.096653795403	61
4	282	729.341364909036	62
4	285	741.309673436982	63
4	296	766.05496867775	64
4	310	777.487582841763	65
4	315	786.757095567636	66
4	331	818.475861447209	67
4	332	818.591862173144	68
4	333	822.733118423123	69
4	336	827.042875320962	70
4	337	829.338488132848	71
4	347	855.706449534942	72
4	352	861.577406337447	73
4	360	875.180154771996	74
4	363	880.285566950164	75
4	368	893.279986981523	76
4	374	898.943868244685	77
4	375	901.174800797394	78
4	378	902.674232640248	79
4	381	909.049063401328	80
4	401	938.350383859167	81
4	406	948.570103046745	82
4	409	949.68435479318	83
4	430	1014.012745553135	84
4	431	1014.023828904282	85
4	434	1018.307028968289	86
4	444	1041.269137784193	87
4	451	1045.60332503678	88
4	485	1139.385612331181	89
4	486	1141.930954890429	90
4	487	1142.906445811046	91
4	488	1145.641216493429	92
4	489	1154.044073186762	93
4	490	1156.133232617735	94
4	493	1160.086553045802	95
4	496	1164.777989812079	96
4	497	1167.431566869775	97
4	498	1174.79854848131	98
4	499	1175.886064393816	99
4	502	1179.203337196247	100
4	503	1179.851309922587	101
4	504	1179.999028461007	102
4	505	1183.16582749392	103
4	527	1221.38377487885	104
4	528	1223.246199205572	105
4	529	1223.837042446013	106
4	530	1227.052322887946	107
4	531	1228.499040911352	108
4	532	1230.206409901187	109
4	533	1230.527564366232	110
4	538	1239.849959028226	111
4	544	1249.573732489517	112
4	547	1254.568916549382	113
4	548	1255.849758526783	114
4	549	1264.33182853753	115
4	555	1278.513635301258	116
4	556	1280.881883730889	117
4	562	1295.584056410355	118
4	563	1298.005807556662	119
4	566	1306.359778932961	120
4	567	1308.157473878331	121
4	570	1321.222261883275	122
4	571	1322.307640514238	123
4	572	1331.897094762439	124
4	577	1344.084926168632	125
4	578	1350.749919730739	126
4	585	1357.133839931488	127
4	586	1363.317067849276	128
4	595	1372.026509145665	129
4	600	1385.133720102434	130
4	601	1385.628418923462	131
4	605	1395.945659110336	132
4	606	1398.705683195311	133
4	607	1398.886457261579	134
4	608	1403.064060728233	135
4	617	1417.375039868567	136
4	620	1425.326715687026	137
4	621	1426.180841824704	138
4	622	1426.443326671975	139
4	627	1435.477108482294	140
4	628	1439.236877640538	141
4	643	1474.377528931859	142
4	650	1483.700961693876	143
4	651	1485.975376452056	144
4	657	1494.746403848209	145
4	658	1497.285041922412	146
4	659	1498.005783957738	147
4	662	1505.931644411463	148
4	663	1506.90395384543	149
4	667	1513.782034982698	150
4	668	1518.874727710246	151
4	669	1520.5236966462	152
4	679	1539.541914655663	153
4	680	1540.853685293144	154
4	681	1542.138384006697	155
4	682	1545.056912549542	156
4	683	1549.436253536065	157
4	701	1588.884057341654	158
4	709	1610.165394604563	159
4	710	1612.171228167923	160
4	711	1612.615958198003	161
4	712	1613.208144329274	162
4	713	1621.548365350632	163
4	716	1630.823618014452	164
4	721	1642.722100509043	165
4	727	1661.172188069313	166
4	728	1663.347093887809	167
4	729	1663.878494544571	168
4	730	1667.187321408398	169
4	745	1722.920156764726	170
4	748	1729.696657293164	171
4	754	1734.915821444245	172
4	755	1737.248065661497	173
4	764	1746.811223755409	174
4	765	1748.333486325016	175
4	766	1750.655682984203	176
4	770	1758.93419670583	177
4	773	1770.277968062115	178
4	774	1770.340200804716	179
4	780	1799.370454703069	180
4	797	1827.590675029413	181
4	798	1828.179588177121	182
4	799	1830.40856234394	183
4	800	1834.245245470992	184
4	801	1837.498932537575	185
4	807	1856.038425500285	186
4	824	1887.818232198436	187
4	828	1900.05906292501	188
4	829	1903.013551530771	189
4	830	1905.971993306585	190
4	831	1908.193981715037	191
4	840	1932.141625762438	192
4	841	1940.200739997475	193
4	842	1943.774775564068	194
4	843	1943.877786333594	195
4	846	1954.761728804475	196
4	849	1965.33121880096	197
4	852	1969.238152303328	198
4	855	1977.354201067296	199
4	858	1980.756248977826	200
4	884	2040.871275665713	201
4	885	2048.953626802926	202
4	886	2053.891174317275	203
4	887	2056.01934598213	204
4	888	2056.296709206704	205
4	896	2063.997844090504	206
4	902	2083.985818203298	207
4	903	2086.997041193838	208
4	904	2091.454260587893	209
4	912	2104.493026113833	210
4	913	2108.022930215708	211
4	914	2110.040626148009	212
4	966	2216.909492515647	213
4	967	2224.591602818891	214
4	968	2226.822907061729	215
4	974	2243.947256064817	216
4	977	2251.561605239358	217
4	993	2283.527615246217	218
4	1010	2336.1411799143	219
4	1011	2338.145458074867	220
4	1012	2338.914807840405	221
4	1013	2339.346621577845	222
4	1017	2351.024310289194	223
4	1027	2371.779033353912	224
4	1031	2382.510167656794	225
4	1032	2382.80181900327	226
4	1033	2389.095340773225	227
4	1034	2391.346155984084	228
4	1044	2401.59460274498	229
4	1045	2402.279726614675	230
4	1054	2416.710171102065	231
4	1055	2418.075331630388	232
4	1056	2418.727686307536	233
4	1074	2464.249206393953	234
4	1082	2490.860395404106	235
5	127	352.94567199173	5
5	128	353.329824793892	4
5	130	354.557151855681	4
5	131	354.718750223371	4
5	132	357.768547506536	3
5	133	361.195184624595	2
5	135	363.823894831212	2
5	137	365.613274632813	3
5	141	370.585233872072	4
5	143	376.473181877513	4
5	145	379.681710898725	4
5	146	383.700699602901	4
5	147	394.299394383127	3
5	149	396.392065199602	3
5	151	396.482332329256	4
5	152	398.724758691937	4
5	153	399.312490822776	3
5	154	400.914112668887	2
5	155	402.055865275976	1
5	159	405.963380670505	1
5	161	410.850292778012	2
5	163	411.482551300838	2
5	164	412.116580795492	1
5	165	413.872033149072	0
5	167	413.949212177533	0
5	169	414.400860177836	1
5	173	424.726697612854	2
5	175	430.976862642992	2
5	176	439.652099034388	1
5	177	443.360376476546	0
5	181	456.111867721576	0
5	183	466.534639871603	0
5	187	472.775236854993	0
5	189	478.504847620427	1
5	191	478.696928021011	2
5	196	492.204947367453	2
5	203	506.761536500558	1
5	205	508.451775855767	1
5	207	508.857708167273	2
5	208	512.175130522337	2
5	209	513.720129784399	1
5	210	513.793570256714	0
5	217	524.28980936815	0
5	219	532.964252748016	0
5	224	553.294729384193	0
5	225	553.784795224658	0
5	229	573.415496850299	0
5	231	579.199699415478	0
5	233	579.327708019238	0
5	235	581.229214307217	1
5	237	587.051509254189	2
5	239	587.830568865482	3
5	240	588.087160128579	3
5	242	588.51024789307	3
5	243	590.071401390041	3
5	245	597.69174064835	3
5	246	599.03498336614	3
5	248	599.625904239714	3
5	249	599.813367639131	3
5	251	601.464798297421	3
5	252	610.960552865649	3
5	253	611.865841774089	2
5	255	621.555207288251	2
5	256	627.717877405962	2
5	258	634.774522045433	2
5	259	644.329419699365	2
5	260	648.449540135673	1
5	262	653.323311617842	1
5	264	658.573298451177	2
5	268	682.3585019409	2
5	269	683.402330545182	1
5	271	684.49641219479	1
5	272	687.721692515403	1
5	274	692.002243623595	1
5	278	712.428054766382	2
5	280	720.148124778194	2
5	281	726.096653795403	1
5	282	729.341364909036	0
5	284	740.165402144317	0
5	285	741.309673436982	0
5	292	758.199070333875	0
5	295	765.574160589746	1
5	296	766.05496867775	1
5	300	768.598356354349	1
5	302	769.743416064392	2
5	304	770.107547801784	3
5	306	771.829954097869	4
5	309	774.42754541804	5
5	310	777.487582841763	5
5	312	782.306578941402	5
5	314	784.678757195726	6
5	315	786.757095567636	6
5	319	792.11062420985	6
5	321	794.103925195273	7
5	323	804.254275049714	8
5	325	808.053947914704	9
5	327	813.187159306011	10
5	330	815.945202965973	11
5	331	818.475861447209	11
5	332	818.591862173144	10
5	333	822.733118423123	9
5	335	826.437857566554	9
5	336	827.042875320962	9
5	337	829.338488132848	8
5	339	831.143790537557	8
5	343	836.200513181557	9
5	345	846.215295774186	10
5	347	855.706449534942	10
5	349	855.994726423543	10
5	351	858.518294259223	11
5	352	861.577406337447	11
5	357	873.102858222541	11
5	359	874.596576772936	12
5	360	875.180154771996	12
5	362	876.56858066659	12
5	363	880.285566950164	12
5	365	885.172340007252	12
5	367	889.881592834636	13
5	368	893.279986981523	13
5	370	894.21520461275	13
5	374	898.943868244685	13
5	375	901.174800797394	12
5	377	901.197466405341	12
5	378	902.674232640248	12
5	380	907.503892790405	12
5	381	909.049063401328	12
5	387	919.108782958971	12
5	390	923.552397120488	13
5	392	926.478400633381	14
5	394	927.346722870158	15
5	399	935.437711264658	16
5	401	938.350383859167	16
5	403	938.35340222437	16
5	405	948.159850924412	17
5	406	948.570103046745	17
5	408	948.645510515757	17
5	409	949.68435479318	17
5	415	971.23130375891	17
5	420	997.739497752726	18
5	422	1002.247055797812	19
5	427	1004.940780636881	20
5	430	1014.012745553135	20
5	431	1014.023828904282	19
5	433	1015.089663101238	19
5	434	1018.307028968289	19
5	438	1031.744717209477	19
5	440	1033.869800367338	20
5	442	1035.218628114189	21
5	444	1041.269137784193	21
5	446	1042.10607936867	21
5	448	1042.89333419035	22
5	450	1044.907710098221	23
5	451	1045.60332503678	23
5	455	1056.478227078671	23
5	460	1081.535408919244	24
5	467	1110.924019657824	25
5	469	1116.577226252923	26
5	473	1120.370427437659	27
5	483	1138.101066537554	28
5	485	1139.385612331181	28
5	486	1141.930954890429	27
5	487	1142.906445811046	26
5	488	1145.641216493429	25
5	489	1154.044073186762	24
5	490	1156.133232617735	23
5	492	1158.997769375823	23
5	493	1160.086553045802	23
5	495	1164.389614103138	23
5	496	1164.777989812079	23
5	497	1167.431566869775	22
5	498	1174.79854848131	21
5	499	1175.886064393816	20
5	501	1176.368381827385	20
5	502	1179.203337196247	20
5	503	1179.851309922587	19
5	504	1179.999028461007	18
5	505	1183.16582749392	17
5	512	1199.872236254162	17
5	517	1204.278596782078	18
5	521	1209.467598345595	19
5	527	1221.38377487885	19
5	528	1223.246199205572	18
5	529	1223.837042446013	17
5	530	1227.052322887946	16
5	531	1228.499040911352	15
5	532	1230.206409901187	14
5	533	1230.527564366232	13
5	535	1232.961859612421	13
5	537	1236.984180589291	14
5	538	1239.849959028226	14
5	540	1241.706954241873	14
5	544	1249.573732489517	14
5	546	1250.196517913514	14
5	547	1254.568916549382	14
5	548	1255.849758526783	13
5	549	1264.33182853753	12
5	551	1268.951555771959	12
5	555	1278.513635301258	12
5	556	1280.881883730889	11
5	560	1287.623521008735	11
5	562	1295.584056410355	11
5	563	1298.005807556662	10
5	565	1300.845123160787	10
5	566	1306.359778932961	10
5	567	1308.157473878331	9
5	569	1320.578965987141	9
5	570	1321.222261883275	9
5	571	1322.307640514238	8
5	572	1331.897094762439	7
5	574	1332.584785782388	7
5	576	1341.640472899657	8
5	577	1344.084926168632	8
5	578	1350.749919730739	7
5	580	1352.712257866263	7
5	582	1353.596872460635	8
5	584	1354.430462899995	9
5	585	1357.133839931488	9
5	586	1363.317067849276	8
5	588	1363.525267817574	8
5	590	1363.98202022208	9
5	592	1366.79840673552	10
5	594	1367.798799028257	11
5	595	1372.026509145665	11
5	597	1380.988650301259	11
5	599	1383.440373029984	12
5	600	1385.133720102434	12
5	601	1385.628418923462	11
5	605	1395.945659110336	10
5	606	1398.705683195311	9
5	607	1398.886457261579	8
5	608	1403.064060728233	7
5	612	1405.945167179226	7
5	617	1417.375039868567	7
5	619	1422.396675441742	7
5	620	1425.326715687026	7
5	621	1426.180841824704	6
5	622	1426.443326671975	5
5	624	1429.627255756317	5
5	626	1430.685088772856	6
5	627	1435.477108482294	6
5	628	1439.236877640538	5
5	630	1439.937483048556	5
5	634	1440.601567088654	6
5	636	1441.274379830186	7
5	641	1470.089611214683	8
5	643	1474.377528931859	8
5	645	1477.856523929648	8
5	647	1479.634303538207	9
5	649	1481.017581247421	10
5	650	1483.700961693876	10
5	651	1485.975376452056	9
5	655	1489.97936585555	9
5	657	1494.746403848209	9
5	658	1497.285041922412	8
5	659	1498.005783957738	7
5	661	1499.513136980461	7
5	662	1505.931644411463	7
5	663	1506.90395384543	6
5	667	1513.782034982698	5
5	668	1518.874727710246	4
5	669	1520.5236966462	3
5	671	1529.541644465283	3
5	675	1534.061715485615	4
5	678	1538.630925993558	5
5	679	1539.541914655663	5
5	680	1540.853685293144	4
5	681	1542.138384006697	3
5	682	1545.056912549542	2
5	683	1549.436253536065	1
5	685	1553.230681240834	1
5	687	1553.449239273142	2
5	689	1553.946754001386	3
5	693	1561.300505661371	4
5	695	1562.463800429604	5
5	697	1566.131236080638	6
5	700	1577.652101419888	7
5	701	1588.884057341654	7
5	705	1595.558615324041	7
5	708	1602.787541439405	8
5	709	1610.165394604563	8
5	710	1612.171228167923	7
5	711	1612.615958198003	6
5	712	1613.208144329274	5
5	713	1621.548365350632	4
5	715	1629.290346216222	4
5	716	1630.823618014452	4
5	718	1637.768291493497	4
5	720	1639.148682106153	5
5	721	1642.722100509043	5
5	725	1657.708909622613	5
5	727	1661.172188069313	5
5	728	1663.347093887809	4
5	729	1663.878494544571	3
5	730	1667.187321408398	2
5	732	1675.495492245268	2
5	734	1682.1846757928	3
5	740	1697.637724245331	4
5	742	1714.252640392117	5
5	745	1722.920156764726	5
5	747	1725.952996459446	5
5	748	1729.696657293164	5
5	752	1733.091468649534	5
5	754	1734.915821444245	5
5	755	1737.248065661497	4
5	759	1743.602300963212	4
5	764	1746.811223755409	4
5	765	1748.333486325016	3
5	766	1750.655682984203	2
5	770	1758.93419670583	1
5	772	1769.737070293725	1
5	773	1770.277968062115	1
5	774	1770.340200804716	0
5	779	1797.429649869354	0
5	780	1799.370454703069	0
5	782	1808.423608925901	0
5	786	1811.117469180127	1
5	788	1812.727691339913	2
5	791	1819.29507133408	3
5	795	1823.829339928366	4
5	797	1827.590675029413	4
5	798	1828.179588177121	3
5	799	1830.40856234394	2
5	800	1834.245245470992	1
5	801	1837.498932537575	0
5	806	1850.05842958545	0
5	807	1856.038425500285	0
5	814	1870.140801328938	0
5	816	1872.093750590139	1
5	818	1876.405968623866	2
5	820	1878.066848027262	3
5	823	1880.162037838015	4
5	824	1887.818232198436	4
5	828	1900.05906292501	3
5	829	1903.013551530771	2
5	830	1905.971993306585	1
5	831	1908.193981715037	0
5	833	1914.482613606068	0
5	835	1920.880977758516	1
5	837	1924.746660298332	2
5	839	1929.7353207484	3
5	840	1932.141625762438	3
5	841	1940.200739997475	2
5	842	1943.774775564068	1
5	843	1943.877786333594	0
5	845	1951.433106009163	0
5	846	1954.761728804475	0
5	848	1961.080825932835	0
5	849	1965.33121880096	0
5	851	1968.963691792235	0
5	852	1969.238152303328	0
5	854	1974.704298001108	0
5	855	1977.354201067296	0
5	857	1979.34222648922	0
5	858	1980.756248977826	0
5	860	1982.36574677823	0
5	862	1983.838293113229	1
5	867	1989.156610482477	2
5	869	1990.350194517302	3
5	873	1995.780825651345	4
5	875	1996.531113902884	5
5	880	2019.802131646665	6
5	883	2021.949410744452	7
5	884	2040.871275665713	7
5	885	2048.953626802926	6
5	886	2053.891174317275	5
5	887	2056.01934598213	4
5	888	2056.296709206704	3
5	892	2060.879589853667	3
5	894	2060.908898717302	4
5	896	2063.997844090504	4
5	900	2070.679099586889	4
5	902	2083.985818203298	4
5	903	2086.997041193838	3
5	904	2091.454260587893	2
5	906	2091.617982071237	2
5	908	2092.486468161446	3
5	912	2104.493026113833	3
5	913	2108.022930215708	2
5	914	2110.040626148009	1
5	918	2120.154046587702	1
5	925	2133.359064701743	2
5	927	2140.34363870594	3
5	931	2151.696984518615	4
5	938	2165.460219418262	5
5	940	2182.948533678196	6
5	945	2189.646182425831	7
5	947	2193.914878067786	8
5	949	2193.954164107906	9
5	951	2194.561011312908	10
5	955	2200.766102351387	11
5	958	2210.22901050779	12
5	960	2211.800957408794	13
5	962	2213.125016198576	14
5	965	2216.818198176185	15
5	966	2216.909492515647	15
5	967	2224.591602818891	14
5	968	2226.822907061729	13
5	972	2231.069777978458	13
5	974	2243.947256064817	13
5	976	2245.062037414236	13
5	977	2251.561605239358	13
5	981	2260.881398963393	13
5	986	2274.961049532209	14
5	991	2280.214129127697	15
5	993	2283.527615246217	15
5	1002	2305.165130442435	15
5	1009	2333.953071763477	16
5	1010	2336.1411799143	16
5	1011	2338.145458074867	15
5	1012	2338.914807840405	14
5	1013	2339.346621577845	13
5	1017	2351.024310289194	12
5	1022	2360.789919575655	12
5	1024	2362.698859064813	13
5	1026	2363.643523370556	14
5	1027	2371.779033353912	14
5	1031	2382.510167656794	13
5	1032	2382.80181900327	12
5	1033	2389.095340773225	11
5	1034	2391.346155984084	10
5	1036	2392.218169230268	10
5	1038	2394.39108518217	11
5	1043	2400.655127529596	12
5	1044	2401.59460274498	12
5	1045	2402.279726614675	11
5	1051	2408.898363050178	11
5	1054	2416.710171102065	11
5	1055	2418.075331630388	10
5	1056	2418.727686307536	9
5	1060	2423.295046423066	9
5	1062	2423.399860528197	10
5	1067	2437.376253249859	11
5	1070	2439.988562019943	12
5	1074	2464.249206393953	12
5	1076	2479.732826589049	12
5	1078	2480.108407740282	13
5	1082	2490.860395404106	13
6	127	352.94567199173	43.858730362229
6	128	353.329824793892	39.916034966471
6	131	354.718750223371	41.145529858301
6	132	357.768547506536	29.237427914652
6	133	361.195184624595	24.492430362789
6	143	376.473181877513	21.916030021832
6	146	383.700699602901	19.876804771689
6	147	394.299394383127	28.686119750314
6	152	398.724758691937	29.349503374665
6	153	399.312490822776	28.727256950704
6	154	400.914112668887	21.232401770162
6	155	402.055865275976	5.663800076374
6	163	411.482551300838	7.223977214703
6	164	412.116580795492	6.153200124987
6	165	413.872033149072	3.02174037106
6	175	430.976862642992	16.576002465156
6	176	439.652099034388	23.863422942587
6	177	443.360376476546	18.633678863692
6	183	466.534639871603	10.422772150027
6	196	492.204947367453	19.42971051246
6	203	506.761536500558	11.731806391565
6	208	512.175130522337	11.661563046965
6	209	513.720129784399	5.268353928632
6	210	513.793570256714	4.935862089441
6	219	532.964252748016	8.674443379866
6	225	553.784795224658	0.490065840465
6	231	579.199699415478	5.784202565179
6	240	588.087160128579	8.759452109341
6	243	590.071401390041	8.842187082824
6	246	599.03498336614	11.983474111951
6	249	599.813367639131	11.982798773649
6	252	610.960552865649	22.450304972579
6	253	611.865841774089	14.174101125739
6	256	627.717877405962	28.091973166248
6	259	644.329419699365	42.864621401944
6	260	648.449540135673	26.894332847422
6	268	682.3585019409	29.035190323058
6	269	683.402330545182	24.829032094005
6	272	687.721692515403	27.468714375365
6	280	720.148124778194	28.145881154599
6	281	726.096653795403	16.730023694477
6	282	729.341364909036	16.913310142654
6	285	741.309673436982	1.144271292665
6	296	766.05496867775	7.855898343875
6	310	777.487582841763	10.367190416547
6	315	786.757095567636	18.158739213287
6	331	818.475861447209	48.368313645425
6	332	818.591862173144	46.761908075275
6	333	822.733118423123	48.305573005083
6	336	827.042875320962	44.73629637956
6	337	829.338488132848	44.659730937122
6	347	855.706449534942	63.595825325092
6	352	861.577406337447	67.473481142174
6	360	875.180154771996	67.126206857292
6	363	880.285566950164	67.098407644153
6	368	893.279986981523	77.33478401555
6	374	898.943868244685	67.800077707128
6	375	901.174800797394	69.566320637549
6	378	902.674232640248	66.473719458691
6	381	909.049063401328	62.833767627142
6	401	938.350383859167	74.380310449992
6	406	948.570103046745	75.467244824204
6	409	949.68435479318	75.087778020244
6	430	1014.012745553135	128.84040554588
6	431	1014.023828904282	124.14223606965
6	434	1018.307028968289	124.09182435554
6	444	1041.269137784193	140.07167137885
6	451	1045.60332503678	138.09943224637
6	485	1139.385612331181	215.83321521069
6	486	1141.930954890429	215.45255425705
6	487	1142.906445811046	215.55972294089
6	488	1145.641216493429	211.169131961
6	489	1154.044073186762	218.6063619221
6	490	1156.133232617735	217.77983039336
6	493	1160.086553045802	211.92670212139
6	496	1164.777989812079	216.13247929632
6	497	1167.431566869775	207.59727253601
6	498	1174.79854848131	203.5672447224
6	499	1175.886064393816	178.14656664109
6	502	1179.203337196247	176.95628139844
6	503	1179.851309922587	174.91052928571
6	504	1179.999028461007	164.90936535977
6	505	1183.16582749392	152.22267489435
6	527	1221.38377487885	187.51397451151
6	528	1223.246199205572	188.02757109138
6	529	1223.837042446013	181.73096307734
6	530	1227.052322887946	184.1589886976
6	531	1228.499040911352	183.59133081313
6	532	1230.206409901187	180.09616391474
6	533	1230.527564366232	174.04933728756
6	538	1239.849959028226	165.04201564112
6	544	1249.573732489517	138.64971283169
6	547	1254.568916549382	137.99169029646
6	548	1255.849758526783	135.47933108912
6	549	1264.33182853753	126.23076199998
6	555	1278.513635301258	114.12402119812
6	556	1280.881883730889	104.5135019035
6	562	1295.584056410355	95.711820156193
6	563	1298.005807556662	93.727210774584
6	566	1306.359778932961	96.892180587366
6	567	1308.157473878331	75.19561426591
6	570	1321.222261883275	84.238081293984
6	571	1322.307640514238	80.600686272365
6	572	1331.897094762439	84.886639639536
6	577	1344.084926168632	93.888408255118
6	578	1350.749919730739	81.79836395878
6	585	1357.133839931488	84.857713386013
6	586	1363.317067849276	78.70827601079
6	595	1372.026509145665	84.40298813693
6	600	1385.133720102434	84.288596941647
6	601	1385.628418923462	65.049452936321
6	605	1395.945659110336	54.305186210679
6	606	1398.705683195311	45.993425329048
6	607	1398.886457261579	45.289584800944
6	608	1403.064060728233	48.633597828238
6	617	1417.375039868567	53.393019646487
6	620	1425.326715687026	58.528308951506
6	621	1426.180841824704	58.382042796447
6	622	1426.443326671975	45.454676370716
6	627	1435.477108482294	52.03673545231
6	628	1439.236877640538	51.604478379635
6	643	1474.377528931859	68.432361752633
6	650	1483.700961693876	61.304286252134
6	651	1485.975376452056	56.348120695739
6	657	1494.746403848209	54.808920799653
6	658	1497.285041922412	56.982516762375
6	659	1498.005783957738	57.404216869084
6	662	1505.931644411463	64.657264581277
6	663	1506.90395384543	36.814342630747
6	667	1513.782034982698	34.147731444491
6	668	1518.874727710246	37.857146462825
6	669	1520.5236966462	31.037629743857
6	679	1539.541914655663	40.028777675202
6	680	1540.853685293144	33.091446575311
6	681	1542.138384006697	12.596739541414
6	682	1545.056912549542	11.828389683404
6	683	1549.436253536065	15.37453805045
6	701	1588.884057341654	35.65337610082
6	709	1610.165394604563	56.218640603177
6	710	1612.171228167923	53.67305082938
6	711	1612.615958198003	51.315452536632
6	712	1613.208144329274	50.74434389967
6	713	1621.548365350632	55.417129269994
6	716	1630.823618014452	53.171516594564
6	721	1642.722100509043	52.251365286994
6	727	1661.172188069313	58.384646629908
6	728	1663.347093887809	34.056747671587
6	729	1663.878494544571	26.110203051074
6	730	1667.187321408398	28.038639302245
6	745	1722.920156764726	65.211247142113
6	748	1729.696657293164	54.201165047896
6	754	1734.915821444245	46.317544160676
6	755	1737.248065661497	39.610341416166
6	764	1746.811223755409	20.858227295963
6	765	1748.333486325016	16.588720498071
6	766	1750.655682984203	17.564214334669
6	770	1758.93419670583	15.331895742618
6	773	1770.277968062115	15.07934075849
6	774	1770.340200804716	0.603130510991
6	780	1799.370454703069	1.940804833715
6	797	1827.590675029413	16.473205849286
6	798	1828.179588177121	15.451896837208
6	799	1830.40856234394	11.11349100986
6	800	1834.245245470992	14.41103822919
6	801	1837.498932537575	13.669592609209
6	807	1856.038425500285	5.979995914835
6	824	1887.818232198436	17.677430869498
6	828	1900.05906292501	23.653094301144
6	829	1903.013551530771	24.946703503509
6	830	1905.971993306585	25.80995546857
6	831	1908.193981715037	14.740847599053
6	840	1932.141625762438	17.65901215637
6	841	1940.200739997475	19.319762238959
6	842	1943.774775564068	19.028115265736
6	843	1943.877786333594	14.142465585194
6	846	1954.761728804475	3.328622795312
6	849	1965.33121880096	4.250392868125
6	852	1969.238152303328	0.274460511093
6	855	1977.354201067296	2.649903066188
6	858	1980.756248977826	1.414022488606
6	884	2040.871275665713	56.518099240013
6	885	2048.953626802926	59.797016320449
6	886	2053.891174317275	63.540979799973
6	887	2056.01934598213	62.579575347975
6	888	2056.296709206704	60.515883555359
6	896	2063.997844090504	44.195712443839
6	902	2083.985818203298	26.156525934949
6	903	2086.997041193838	26.117451340171
6	904	2091.454260587893	30.545361870591
6	912	2104.493026113833	33.813926526944
6	913	2108.022930215708	16.404948144471
6	914	2110.040626148009	17.554157986563
6	966	2216.909492515647	96.755445927945
6	967	2224.591602818891	100.72913883827
6	968	2226.822907061729	93.463842359986
6	974	2243.947256064817	92.250271546202
6	977	2251.561605239358	86.101385821096
6	993	2283.527615246217	89.573451138311
6	1010	2336.1411799143	135.37507756291
6	1011	2338.145458074867	127.91644756708
6	1012	2338.914807840405	127.11385043161
6	1013	2339.346621577845	126.22160537927
6	1017	2351.024310289194	123.01289804261
6	1027	2371.779033353912	126.71699593968
6	1031	2382.510167656794	121.6287686934
6	1032	2382.80181900327	112.33425907958
6	1033	2389.095340773225	114.13429124102
6	1034	2391.346155984084	114.2010213267
6	1044	2401.59460274498	109.23829779026
6	1045	2402.279726614675	97.11459617224
6	1054	2416.710171102065	71.464238860545
6	1055	2418.075331630388	64.67586714338
6	1056	2418.727686307536	57.937766731881
6	1074	2464.249206393953	72.031037163685
6	1082	2490.860395404106	91.891942772056
7	130	354.557151855681	5
7	135	363.823894831212	3
7	137	365.613274632813	4
7	141	370.585233872072	5
7	145	379.681710898725	5
7	149	396.392065199602	4
7	151	396.482332329256	5
7	159	405.963380670505	2
7	161	410.850292778012	3
7	167	413.949212177533	1
7	169	414.400860177836	2
7	173	424.726697612854	3
7	181	456.111867721576	1
7	187	472.775236854993	1
7	189	478.504847620427	2
7	191	478.696928021011	3
7	205	508.451775855767	2
7	207	508.857708167273	3
7	217	524.28980936815	1
7	224	553.294729384193	1
7	229	573.415496850299	1
7	233	579.327708019238	1
7	235	581.229214307217	2
7	237	587.051509254189	3
7	239	587.830568865482	4
7	242	588.51024789307	4
7	245	597.69174064835	4
7	248	599.625904239714	4
7	251	601.464798297421	4
7	255	621.555207288251	3
7	258	634.774522045433	3
7	262	653.323311617842	2
7	264	658.573298451177	3
7	271	684.49641219479	2
7	274	692.002243623595	2
7	278	712.428054766382	3
7	284	740.165402144317	1
7	292	758.199070333875	1
7	295	765.574160589746	2
7	300	768.598356354349	2
7	302	769.743416064392	3
7	304	770.107547801784	4
7	306	771.829954097869	5
7	309	774.42754541804	6
7	312	782.306578941402	6
7	314	784.678757195726	7
7	319	792.11062420985	7
7	321	794.103925195273	8
7	323	804.254275049714	9
7	325	808.053947914704	10
7	327	813.187159306011	11
7	330	815.945202965973	12
7	335	826.437857566554	10
7	339	831.143790537557	9
7	343	836.200513181557	10
7	345	846.215295774186	11
7	349	855.994726423543	11
7	351	858.518294259223	12
7	357	873.102858222541	12
7	359	874.596576772936	13
7	362	876.56858066659	13
7	365	885.172340007252	13
7	367	889.881592834636	14
7	370	894.21520461275	14
7	377	901.197466405341	13
7	380	907.503892790405	13
7	387	919.108782958971	13
7	390	923.552397120488	14
7	392	926.478400633381	15
7	394	927.346722870158	16
7	399	935.437711264658	17
7	403	938.35340222437	17
7	405	948.159850924412	18
7	408	948.645510515757	18
7	415	971.23130375891	18
7	420	997.739497752726	19
7	422	1002.247055797812	20
7	427	1004.940780636881	21
7	433	1015.089663101238	20
7	438	1031.744717209477	20
7	440	1033.869800367338	21
7	442	1035.218628114189	22
7	446	1042.10607936867	22
7	448	1042.89333419035	23
7	450	1044.907710098221	24
7	455	1056.478227078671	24
7	460	1081.535408919244	25
7	467	1110.924019657824	26
7	469	1116.577226252923	27
7	473	1120.370427437659	28
7	483	1138.101066537554	29
7	492	1158.997769375823	24
7	495	1164.389614103138	24
7	501	1176.368381827385	21
7	512	1199.872236254162	18
7	517	1204.278596782078	19
7	521	1209.467598345595	20
7	535	1232.961859612421	14
7	537	1236.984180589291	15
7	540	1241.706954241873	15
7	546	1250.196517913514	15
7	551	1268.951555771959	13
7	560	1287.623521008735	12
7	565	1300.845123160787	11
7	569	1320.578965987141	10
7	574	1332.584785782388	8
7	576	1341.640472899657	9
7	580	1352.712257866263	8
7	582	1353.596872460635	9
7	584	1354.430462899995	10
7	588	1363.525267817574	9
7	590	1363.98202022208	10
7	592	1366.79840673552	11
7	594	1367.798799028257	12
7	597	1380.988650301259	12
7	599	1383.440373029984	13
7	612	1405.945167179226	8
7	619	1422.396675441742	8
7	624	1429.627255756317	6
7	626	1430.685088772856	7
7	630	1439.937483048556	6
7	634	1440.601567088654	7
7	636	1441.274379830186	8
7	641	1470.089611214683	9
7	645	1477.856523929648	9
7	647	1479.634303538207	10
7	649	1481.017581247421	11
7	655	1489.97936585555	10
7	661	1499.513136980461	8
7	671	1529.541644465283	4
7	675	1534.061715485615	5
7	678	1538.630925993558	6
7	685	1553.230681240834	2
7	687	1553.449239273142	3
7	689	1553.946754001386	4
7	693	1561.300505661371	5
7	695	1562.463800429604	6
7	697	1566.131236080638	7
7	700	1577.652101419888	8
7	705	1595.558615324041	8
7	708	1602.787541439405	9
7	715	1629.290346216222	5
7	718	1637.768291493497	5
7	720	1639.148682106153	6
7	725	1657.708909622613	6
7	732	1675.495492245268	3
7	734	1682.1846757928	4
7	740	1697.637724245331	5
7	742	1714.252640392117	6
7	747	1725.952996459446	6
7	752	1733.091468649534	6
7	759	1743.602300963212	5
7	772	1769.737070293725	2
7	779	1797.429649869354	1
7	782	1808.423608925901	1
7	786	1811.117469180127	2
7	788	1812.727691339913	3
7	791	1819.29507133408	4
7	795	1823.829339928366	5
7	806	1850.05842958545	1
7	814	1870.140801328938	1
7	816	1872.093750590139	2
7	818	1876.405968623866	3
7	820	1878.066848027262	4
7	823	1880.162037838015	5
7	833	1914.482613606068	1
7	835	1920.880977758516	2
7	837	1924.746660298332	3
7	839	1929.7353207484	4
7	845	1951.433106009163	1
7	848	1961.080825932835	1
7	851	1968.963691792235	1
7	854	1974.704298001108	1
7	857	1979.34222648922	1
7	860	1982.36574677823	1
7	862	1983.838293113229	2
7	867	1989.156610482477	3
7	869	1990.350194517302	4
7	873	1995.780825651345	5
7	875	1996.531113902884	6
7	880	2019.802131646665	7
7	883	2021.949410744452	8
7	892	2060.879589853667	4
7	894	2060.908898717302	5
7	900	2070.679099586889	5
7	906	2091.617982071237	3
7	908	2092.486468161446	4
7	918	2120.154046587702	2
7	925	2133.359064701743	3
7	927	2140.34363870594	4
7	931	2151.696984518615	5
7	938	2165.460219418262	6
7	940	2182.948533678196	7
7	945	2189.646182425831	8
7	947	2193.914878067786	9
7	949	2193.954164107906	10
7	951	2194.561011312908	11
7	955	2200.766102351387	12
7	958	2210.22901050779	13
7	960	2211.800957408794	14
7	962	2213.125016198576	15
7	965	2216.818198176185	16
7	972	2231.069777978458	14
7	976	2245.062037414236	14
7	981	2260.881398963393	14
7	986	2274.961049532209	15
7	991	2280.214129127697	16
7	1002	2305.165130442435	16
7	1009	2333.953071763477	17
7	1022	2360.789919575655	13
7	1024	2362.698859064813	14
7	1026	2363.643523370556	15
7	1036	2392.218169230268	11
7	1038	2394.39108518217	12
7	1043	2400.655127529596	13
7	1051	2408.898363050178	12
7	1060	2423.295046423066	10
7	1062	2423.399860528197	11
7	1067	2437.376253249859	12
7	1070	2439.988562019943	13
7	1076	2479.732826589049	13
7	1078	2480.108407740282	14
8	139	369.375255317272	1
8	157	404.258574086135	1
8	171	415.788676091801	1
8	179	443.919676013075	1
8	185	470.546870107225	1
8	193	480.431995840156	2
8	198	495.029730108993	1
8	201	500.513567475372	1
8	212	517.809300423735	1
8	215	521.192237302952	1
8	221	541.925002229654	1
8	227	567.695925539455	1
8	266	660.252978140038	1
8	276	709.366630100926	1
8	287	743.646848964604	1
8	290	756.458935907148	1
8	298	767.120392425216	1
8	317	789.815789590426	1
8	341	831.608480159845	1
8	354	863.970073409175	1
8	372	898.688180290939	1
8	383	910.944778126664	1
8	385	912.065066633432	2
8	397	934.472084532428	1
8	411	959.834294333765	1
8	413	963.034023953894	2
8	418	995.44102465029	2
8	425	1004.276199296497	2
8	436	1030.943152599568	1
8	453	1050.110245986447	1
8	458	1074.807943387107	1
8	462	1086.494175780376	2
8	465	1102.06552599861	2
8	471	1119.223715317434	3
8	476	1121.890324746436	3
8	479	1123.663479696237	3
8	507	1186.897939430832	1
8	509	1191.951539220539	2
8	514	1202.276890746692	2
8	519	1207.192094069512	2
8	523	1212.083298246598	3
8	542	1247.010455122903	1
8	553	1272.276126545475	1
8	558	1284.608791838486	1
8	603	1387.632399260903	1
8	610	1403.412013724196	1
8	614	1409.315926484005	2
8	632	1440.302525160037	1
8	638	1462.555294735073	2
8	653	1489.486066902343	1
8	665	1507.762238717833	1
8	673	1533.228522866138	1
8	691	1558.498177338543	1
8	703	1590.470735222049	1
8	723	1645.874418155944	1
8	736	1688.598277283569	1
8	738	1697.269698461538	2
8	750	1731.744765826945	1
8	757	1737.595552176882	1
8	761	1744.899527686484	2
8	768	1755.198627303625	1
8	776	1782.557906561692	1
8	784	1810.00658113624	1
8	793	1819.834207241802	1
8	803	1845.586409673488	1
8	809	1858.271437782732	1
8	812	1868.692586631094	1
8	826	1893.453134115984	1
8	864	1984.3531764257	1
8	871	1993.439770634155	1
8	877	2005.414674315447	2
8	890	2057.829292268349	1
8	898	2067.19127090892	1
8	910	2093.540604683601	1
8	916	2118.272495163052	1
8	921	2123.862463980623	1
8	923	2125.583614538701	2
8	929	2148.351335550223	3
8	933	2158.513685384924	4
8	935	2159.742235841395	5
8	943	2189.21250810744	4
8	970	2228.011412246586	1
8	979	2256.953625658148	1
8	984	2270.467559923692	1
8	989	2277.145134657383	1
8	995	2292.356304954715	1
8	997	2296.559424856657	2
8	999	2299.848805152245	3
8	1005	2312.593632662147	2
8	1015	2345.24593224152	1
8	1019	2353.399464487008	1
8	1029	2372.427930054302	1
8	1040	2398.96845263205	1
8	1047	2404.701489116181	1
8	1049	2408.893875339512	2
8	1058	2418.968326914021	1
8	1065	2427.010862944216	1
8	1072	2443.433928593672	1
8	1080	2480.621220096792	1
8	1084	2496.852317827315	1
9	139	369.375255317272	11
9	157	404.258574086135	12
9	171	415.788676091801	13
9	198	495.029730108993	14
9	201	500.513567475372	15
9	266	660.252978140038	16
9	276	709.366630100926	17
9	298	767.120392425216	18
9	317	789.815789590426	19
9	341	831.608480159845	20
9	354	863.970073409175	21
9	372	898.688180290939	22
9	383	910.944778126664	23
9	397	934.472084532428	24
9	411	959.834294333765	25
9	436	1030.943152599568	26
9	453	1050.110245986447	27
9	458	1074.807943387107	28
9	507	1186.897939430832	29
9	542	1247.010455122903	30
9	553	1272.276126545475	31
9	558	1284.608791838486	32
9	603	1387.632399260903	33
9	610	1403.412013724196	34
9	632	1440.302525160037	35
9	653	1489.486066902343	36
9	665	1507.762238717833	37
9	673	1533.228522866138	38
9	691	1558.498177338543	39
9	703	1590.470735222049	40
9	723	1645.874418155944	41
9	736	1688.598277283569	42
9	750	1731.744765826945	43
9	757	1737.595552176882	44
9	768	1755.198627303625	45
9	784	1810.00658113624	46
9	793	1819.834207241802	47
9	826	1893.453134115984	48
9	864	1984.3531764257	49
9	871	1993.439770634155	50
9	890	2057.829292268349	51
9	898	2067.19127090892	52
9	910	2093.540604683601	53
9	916	2118.272495163052	54
9	921	2123.862463980623	55
9	970	2228.011412246586	56
9	979	2256.953625658148	57
9	984	2270.467559923692	58
9	989	2277.145134657383	59
9	995	2292.356304954715	60
9	1015	2345.24593224152	61
9	1019	2353.399464487008	62
9	1029	2372.427930054302	63
9	1040	2398.96845263205	64
9	1047	2404.701489116181	65
9	1058	2418.968326914021	66
9	1065	2427.010862944216	67
9	1072	2443.433928593672	68
9	1080	2480.621220096792	69
9	1084	2496.852317827315	70
10	139	369.375255317272	0
10	157	404.258574086135	0
10	171	415.788676091801	0
10	179	443.919676013075	0
10	185	470.546870107225	0
10	194	485.20166083724	4.769664997084
10	198	495.029730108993	0
10	201	500.513567475372	0
10	212	517.809300423735	0
10	215	521.192237302952	0
10	221	541.925002229654	0
10	227	567.695925539455	0
10	266	660.252978140038	0
10	276	709.366630100926	0
10	287	743.646848964604	0
10	290	756.458935907148	0
10	298	767.120392425216	0
10	317	789.815789590426	0
10	341	831.608480159845	0
10	354	863.970073409175	0
10	372	898.688180290939	0
10	383	910.944778126664	0
10	388	923.44892752434	11.383860890908
10	397	934.472084532428	0
10	411	959.834294333765	0
10	416	986.819223964434	23.78520001054
10	423	1003.971316061927	8.530291411637
10	428	1006.327139830153	2.050940533656
10	436	1030.943152599568	0
10	453	1050.110245986447	0
10	458	1074.807943387107	0
10	463	1096.392710120947	9.898534340571
10	474	1121.364652574624	19.299126576014
10	477	1122.6508584059	3.427143088466
10	480	1128.012197660294	6.121872913858
10	481	1134.682134621781	11.018654925544
10	507	1186.897939430832	0
10	510	1199.389355687828	7.437816467289
10	515	1203.370505028493	1.093614281801
10	524	1213.321597254297	6.129503184785
10	525	1215.255448648685	3.172150402087
10	542	1247.010455122903	0
10	553	1272.276126545475	0
10	558	1284.608791838486	0
10	603	1387.632399260903	0
10	610	1403.412013724196	0
10	615	1411.97236364633	2.656437162325
10	632	1440.302525160037	0
10	639	1467.491670698058	4.936375962985
10	653	1489.486066902343	0
10	665	1507.762238717833	0
10	673	1533.228522866138	0
10	691	1558.498177338543	0
10	703	1590.470735222049	0
10	723	1645.874418155944	0
10	736	1688.598277283569	0
10	743	1717.110580375987	19.840881914449
10	750	1731.744765826945	0
10	757	1737.595552176882	0
10	762	1745.246400151548	0.346872465064
10	768	1755.198627303625	0
10	776	1782.557906561692	0
10	784	1810.00658113624	0
10	793	1819.834207241802	0
10	803	1845.586409673488	0
10	809	1858.271437782732	0
10	812	1868.692586631094	0
10	826	1893.453134115984	0
10	864	1984.3531764257	0
10	871	1993.439770634155	0
10	878	2016.283801894934	10.869127579487
10	890	2057.829292268349	0
10	898	2067.19127090892	0
10	910	2093.540604683601	0
10	916	2118.272495163052	0
10	921	2123.862463980623	0
10	936	2162.425351196696	36.841736657995
10	941	2183.7461124973	35.394776947077
10	952	2197.946257619712	39.432572234788
10	953	2199.737274275905	39.99503843451
10	956	2203.522096043013	14.309587935573
10	970	2228.011412246586	0
10	979	2256.953625658148	0
10	984	2270.467559923692	0
10	989	2277.145134657383	0
10	995	2292.356304954715	0
10	1000	2301.14200503845	4.582580181793
10	1003	2310.197448431374	10.348643279129
10	1006	2319.826945565486	7.233312903339
10	1015	2345.24593224152	0
10	1019	2353.399464487008	0
10	1029	2372.427930054302	0
10	1040	2398.96845263205	0
10	1047	2404.701489116181	0
10	1052	2414.605054784205	5.711179444693
10	1058	2418.968326914021	0
10	1065	2427.010862944216	0
10	1072	2443.433928593672	0
10	1080	2480.621220096792	0
10	1084	2496.852317827315	0
11	1085	2500	0.094
12	1085	2500	0.0468

