version 2
run experiments_hard_game_mode1-991-20230311-19:42:52-9807
attr configname experiments_hard_game_mode1
attr datetime 20230311-19:42:52
attr experiment experiments_hard_game_mode1
attr inifile omnetpp.ini
attr iterationvars "$0=9, $1=4, $2=100"
attr iterationvarsf 9,4,100-
attr measurement "$0=9, $1=4, $2=100"
attr network Network
attr processid 9807
attr repetition 1
attr replication #1
attr resultdir results
attr runnumber 991
attr seedset 1
param *.boss.arrival_mean 20
param *.boss.service_mean 9
param *.minion.arrival_mean 10
param *.minion.service_mean 4
param *.player.recover_rate_x 100
param **.minion.arrival_distribution 0
param **.minion.service_distribution 0
param **.boss.arrival_distribution 0
param **.boss.service_distribution 0

vector 0 Network.player boss_defeated_stat:vector ETV
attr source signal_boss_defeated
vector 1 Network.player boss_jobs_queue_number_stat:vector ETV
attr source signal_boss_jobs_queue_number
vector 2 Network.player boss_response_time_stat:vector ETV
attr source signal_boss_response_time
vector 3 Network.player minion_waiting_time_stat:vector ETV
attr source signal_minion_waiting_time
vector 4 Network.player minion_defeated_stat:vector ETV
attr source signal_minion_defeated
vector 5 Network.player minion_jobs_queue_number_stat:vector ETV
attr source signal_minion_jobs_queue_number
vector 6 Network.player minion_response_time_stat:vector ETV
attr source signal_minion_response_time
vector 7 Network.player minion_jobs_number_stat:vector ETV
attr source signal_minion_jobs_number
vector 8 Network.player boss_jobs_number_stat:vector ETV
attr source signal_boss_jobs_number
vector 9 Network.player minion_recovered_stat:vector ETV
attr source signal_minion_recovered
vector 10 Network.player boss_waiting_time_stat:vector ETV
attr source signal_boss_waiting_time
vector 11 Network.player minion_throughput:vector ETV
attr source signal_minion_throughput
vector 12 Network.player boss_throughput:vector ETV
attr source signal_boss_throughput
0	128	350.034876330738	18
0	144	375.611465164209	19
0	163	411.011076929426	20
0	174	426.021954139626	21
0	182	462.199067510139	22
0	194	485.20166083724	23
0	195	488.817239485644	24
0	199	499.345724305129	25
0	202	505.005750527447	26
0	213	518.423196628103	27
0	218	531.289085201889	28
0	222	544.983939179886	29
0	230	577.737310308474	30
0	270	681.883932828782	31
0	281	720.025090575988	32
0	288	745.807000160321	33
0	293	760.280394878534	34
0	307	772.535748358449	35
0	328	813.688672133386	36
0	348	855.698231935099	37
0	356	866.711498525741	38
0	375	898.915110397139	39
0	388	923.44892752434	40
0	395	931.707903335116	41
0	400	937.120144383068	42
0	417	986.819223964434	43
0	424	1003.971316061927	44
0	429	1006.327139830153	45
0	430	1008.04815928738	46
0	447	1038.099570759012	47
0	462	1064.188857043544	48
0	472	1096.392710120947	49
0	483	1121.364652574624	50
0	486	1122.6508584059	51
0	489	1128.012197660294	52
0	490	1134.682134621781	53
0	493	1139.052204800797	54
0	519	1199.389355687828	55
0	524	1203.370505028493	56
0	533	1213.321597254297	57
0	534	1215.255448648685	58
0	535	1220.931274769454	59
0	549	1247.963440751325	60
0	562	1274.339136792106	61
0	569	1290.539884911528	62
0	614	1393.706026127362	63
0	622	1411.97236364633	64
0	623	1416.164814404483	65
0	644	1467.491670698058	66
0	647	1473.332140902833	67
0	665	1493.345910221193	68
0	671	1511.862039739226	69
0	680	1536.141598370573	70
0	699	1574.875052967364	71
0	707	1595.794272724979	72
0	726	1659.048733212536	73
0	747	1717.110580375987	74
0	748	1720.50240945778	75
0	756	1733.52618163994	76
0	764	1745.246400151548	77
0	765	1746.632271711519	78
0	771	1758.105912073514	79
0	777	1783.342724985204	80
0	789	1815.433755449839	81
0	796	1826.965648174676	82
0	804	1849.504789579013	83
0	810	1861.613740589927	84
0	821	1878.333297866126	85
0	828	1896.443731641496	86
0	865	1988.516512396493	87
0	878	2016.283801894934	88
0	881	2021.814372758002	89
0	897	2062.941288847243	90
0	902	2078.626263442886	91
0	911	2098.423885514056	92
0	919	2123.066944013103	93
0	936	2162.425351196696	94
0	941	2183.7461124973	95
0	952	2197.946257619712	96
0	953	2199.737274275905	97
0	956	2203.522096043013	98
0	963	2215.684572838907	99
0	974	2231.225847400335	100
0	984	2261.893084394001	101
0	990	2276.777360232022	102
0	995	2282.148382172407	103
0	1006	2301.14200503845	104
0	1009	2310.197448431374	105
0	1012	2319.826945565486	106
0	1013	2326.487325017154	107
0	1021	2347.945373308725	108
0	1025	2358.223001412513	109
0	1035	2377.103686438548	110
0	1045	2398.981303716554	111
0	1056	2414.605054784205	112
0	1057	2415.476253642135	113
0	1064	2424.178682284546	114
0	1069	2438.132956952414	115
0	1074	2457.13235791741	116
0	1083	2487.308793641794	117
1	128	350.034876330738	0
1	141	369.375255317272	0
1	144	375.611465164209	0
1	158	404.258574086135	0
1	163	411.011076929426	0
1	171	415.788676091801	0
1	174	426.021954139626	0
1	179	443.919676013075	0
1	182	462.199067510139	0
1	185	470.546870107225	0
1	193	480.431995840156	1
1	194	485.20166083724	1
1	195	488.817239485644	0
1	198	495.029730108993	0
1	199	499.345724305129	0
1	201	500.513567475372	0
1	202	505.005750527447	0
1	212	517.809300423735	0
1	213	518.423196628103	0
1	215	521.192237302952	0
1	218	531.289085201889	0
1	221	541.925002229654	0
1	222	544.983939179886	0
1	227	567.695925539455	0
1	230	577.737310308474	0
1	269	660.252978140038	0
1	270	681.883932828782	0
1	278	709.366630100926	0
1	281	720.025090575988	0
1	287	743.646848964604	0
1	288	745.807000160321	0
1	290	756.458935907148	0
1	293	760.280394878534	0
1	298	767.120392425216	0
1	307	772.535748358449	0
1	317	789.815789590426	0
1	328	813.688672133386	0
1	343	831.608480159845	0
1	348	855.698231935099	0
1	355	863.970073409175	0
1	356	866.711498525741	0
1	374	898.688180290939	0
1	375	898.915110397139	0
1	383	910.944778126664	0
1	385	912.065066633432	1
1	388	923.44892752434	1
1	395	931.707903335116	0
1	397	934.472084532428	0
1	400	937.120144383068	0
1	412	959.834294333765	0
1	414	963.034023953894	1
1	417	986.819223964434	1
1	419	995.44102465029	1
1	424	1003.971316061927	1
1	426	1004.276199296497	1
1	429	1006.327139830153	1
1	430	1008.04815928738	0
1	440	1030.943152599568	0
1	447	1038.099570759012	0
1	459	1050.110245986447	0
1	462	1064.188857043544	0
1	467	1074.807943387107	0
1	471	1086.494175780376	1
1	472	1096.392710120947	1
1	474	1102.06552599861	1
1	480	1119.223715317434	2
1	483	1121.364652574624	2
1	485	1121.890324746436	2
1	486	1122.6508584059	2
1	488	1123.663479696237	2
1	489	1128.012197660294	2
1	490	1134.682134621781	1
1	493	1139.052204800797	0
1	516	1186.897939430832	0
1	518	1191.951539220539	1
1	519	1199.389355687828	1
1	523	1202.276890746692	1
1	524	1203.370505028493	1
1	528	1207.192094069512	1
1	532	1212.083298246598	2
1	533	1213.321597254297	2
1	534	1215.255448648685	1
1	535	1220.931274769454	0
1	548	1247.010455122903	0
1	549	1247.963440751325	0
1	561	1272.276126545475	0
1	562	1274.339136792106	0
1	566	1284.608791838486	0
1	569	1290.539884911528	0
1	613	1387.632399260903	0
1	614	1393.706026127362	0
1	617	1403.412013724196	0
1	621	1409.315926484005	1
1	622	1411.97236364633	1
1	623	1416.164814404483	0
1	637	1440.302525160037	0
1	643	1462.555294735073	1
1	644	1467.491670698058	1
1	647	1473.332140902833	0
1	662	1489.486066902343	0
1	665	1493.345910221193	0
1	670	1507.762238717833	0
1	671	1511.862039739226	0
1	677	1533.228522866138	0
1	680	1536.141598370573	0
1	692	1558.498177338543	0
1	699	1574.875052967364	0
1	704	1590.470735222049	0
1	707	1595.794272724979	0
1	723	1645.874418155944	0
1	726	1659.048733212536	0
1	740	1688.598277283569	0
1	742	1697.269698461538	1
1	747	1717.110580375987	1
1	748	1720.50240945778	0
1	753	1731.744765826945	0
1	756	1733.52618163994	0
1	759	1737.595552176882	0
1	763	1744.899527686484	1
1	764	1745.246400151548	1
1	765	1746.632271711519	0
1	770	1755.198627303625	0
1	771	1758.105912073514	0
1	776	1782.557906561692	0
1	777	1783.342724985204	0
1	784	1810.00658113624	0
1	789	1815.433755449839	0
1	793	1819.834207241802	0
1	796	1826.965648174676	0
1	803	1845.586409673488	0
1	804	1849.504789579013	0
1	809	1858.271437782732	0
1	810	1861.613740589927	0
1	812	1868.692586631094	0
1	821	1878.333297866126	0
1	827	1893.453134115984	0
1	828	1896.443731641496	0
1	864	1984.3531764257	0
1	865	1988.516512396493	0
1	871	1993.439770634155	0
1	877	2005.414674315447	1
1	878	2016.283801894934	1
1	881	2021.814372758002	0
1	892	2057.829292268349	0
1	897	2062.941288847243	0
1	899	2067.19127090892	0
1	902	2078.626263442886	0
1	910	2093.540604683601	0
1	911	2098.423885514056	0
1	916	2118.272495163052	0
1	919	2123.066944013103	0
1	921	2123.862463980623	0
1	923	2125.583614538701	1
1	929	2148.351335550223	2
1	933	2158.513685384924	3
1	935	2159.742235841395	4
1	936	2162.425351196696	4
1	941	2183.7461124973	3
1	943	2189.21250810744	3
1	952	2197.946257619712	3
1	953	2199.737274275905	2
1	956	2203.522096043013	1
1	963	2215.684572838907	0
1	971	2228.011412246586	0
1	974	2231.225847400335	0
1	981	2256.953625658148	0
1	984	2261.893084394001	0
1	987	2270.467559923692	0
1	990	2276.777360232022	0
1	992	2277.145134657383	0
1	995	2282.148382172407	0
1	1001	2292.356304954715	0
1	1003	2296.559424856657	1
1	1005	2299.848805152245	2
1	1006	2301.14200503845	2
1	1009	2310.197448431374	1
1	1011	2312.593632662147	1
1	1012	2319.826945565486	1
1	1013	2326.487325017154	0
1	1020	2345.24593224152	0
1	1021	2347.945373308725	0
1	1024	2353.399464487008	0
1	1025	2358.223001412513	0
1	1034	2372.427930054302	0
1	1035	2377.103686438548	0
1	1044	2398.96845263205	0
1	1045	2398.981303716554	0
1	1051	2404.701489116181	0
1	1053	2408.893875339512	1
1	1056	2414.605054784205	1
1	1057	2415.476253642135	0
1	1059	2418.968326914021	0
1	1064	2424.178682284546	0
1	1066	2427.010862944216	0
1	1069	2438.132956952414	0
1	1073	2443.433928593672	0
1	1074	2457.13235791741	0
1	1082	2480.621220096792	0
1	1083	2487.308793641794	0
1	1086	2496.852317827315	0
2	128	350.034876330738	0.144344588427
2	144	375.611465164209	6.236209846937
2	163	411.011076929426	6.752502843291
2	174	426.021954139626	10.233278047825
2	182	462.199067510139	18.279391497064
2	194	485.20166083724	14.654790730015
2	195	488.817239485644	8.385243645488
2	199	499.345724305129	4.315994196136
2	202	505.005750527447	4.492183052075
2	213	518.423196628103	0.613896204368
2	218	531.289085201889	10.096847898937
2	222	544.983939179886	3.058936950232
2	230	577.737310308474	10.041384769019
2	270	681.883932828782	21.630954688744
2	281	720.025090575988	10.658460475062
2	288	745.807000160321	2.160151195717
2	293	760.280394878534	3.821458971386
2	307	772.535748358449	5.415355933233
2	328	813.688672133386	23.87288254296
2	348	855.698231935099	24.089751775254
2	356	866.711498525741	2.741425116566
2	375	898.915110397139	0.2269301062
2	388	923.44892752434	12.504149397676
2	395	931.707903335116	19.642836701684
2	400	937.120144383068	2.64805985064
2	417	986.819223964434	26.984929630669
2	424	1003.971316061927	40.937292108033
2	429	1006.327139830153	10.886115179863
2	430	1008.04815928738	3.771959990883
2	447	1038.099570759012	7.156418159444
2	462	1064.188857043544	14.078611057097
2	472	1096.392710120947	21.58476673384
2	483	1121.364652574624	34.870476794248
2	486	1122.6508584059	20.58533240729
2	489	1128.012197660294	8.78848234286
2	490	1134.682134621781	12.791809875345
2	493	1139.052204800797	15.38872510456
2	519	1199.389355687828	12.491416256996
2	524	1203.370505028493	11.418965807954
2	533	1213.321597254297	11.044706507605
2	534	1215.255448648685	8.063354579173
2	535	1220.931274769454	8.847976522856
2	549	1247.963440751325	0.952985628422
2	562	1274.339136792106	2.063010246631
2	569	1290.539884911528	5.931093073042
2	614	1393.706026127362	6.073626866459
2	622	1411.97236364633	8.560349922134
2	623	1416.164814404483	6.848887920478
2	644	1467.491670698058	27.189145538021
2	647	1473.332140902833	10.77684616776
2	665	1493.345910221193	3.85984331885
2	671	1511.862039739226	4.099801021393
2	680	1536.141598370573	2.913075504435
2	699	1574.875052967364	16.376875628821
2	707	1595.794272724979	5.32353750293
2	726	1659.048733212536	13.174315056592
2	747	1717.110580375987	28.512303092418
2	748	1720.50240945778	23.232710996242
2	756	1733.52618163994	1.781415812995
2	764	1745.246400151548	7.650847974666
2	765	1746.632271711519	1.732744025035
2	771	1758.105912073514	2.907284769889
2	777	1783.342724985204	0.784818423512
2	789	1815.433755449839	5.427174313599
2	796	1826.965648174676	7.131440932874
2	804	1849.504789579013	3.918379905525
2	810	1861.613740589927	3.342302807195
2	821	1878.333297866126	9.640711235032
2	828	1896.443731641496	2.990597525512
2	865	1988.516512396493	4.163335970793
2	878	2016.283801894934	22.844031260779
2	881	2021.814372758002	16.399698442555
2	897	2062.941288847243	5.111996578894
2	902	2078.626263442886	11.434992533966
2	911	2098.423885514056	4.883280830455
2	919	2123.066944013103	4.794448850051
2	936	2162.425351196696	38.562887216073
2	941	2183.7461124973	58.162497958599
2	952	2197.946257619712	49.594922069489
2	953	2199.737274275905	41.223588890981
2	956	2203.522096043013	43.779860201618
2	963	2215.684572838907	26.472064731467
2	974	2231.225847400335	3.214435153749
2	984	2261.893084394001	4.939458735853
2	990	2276.777360232022	6.30980030833
2	995	2282.148382172407	5.003247515024
2	1006	2301.14200503845	8.785700083735
2	1009	2310.197448431374	13.638023574717
2	1012	2319.826945565486	19.978140413241
2	1013	2326.487325017154	13.893692355007
2	1021	2347.945373308725	2.699441067205
2	1025	2358.223001412513	4.823536925505
2	1035	2377.103686438548	4.675756384246
2	1045	2398.981303716554	0.012851084504
2	1056	2414.605054784205	9.903565668024
2	1057	2415.476253642135	6.582378302623
2	1064	2424.178682284546	5.210355370525
2	1069	2438.132956952414	11.122094008198
2	1074	2457.13235791741	13.698429323738
2	1083	2487.308793641794	6.687573545002
3	128	350.034876330738	36.461655965668
3	129	351.146016674321	22.614897082437
3	132	358.770826972345	22.068072710539
3	135	364.048302452972	14.157770710661
3	136	365.483471034979	10.926319179298
3	139	366.172844405622	2.34894957441
3	144	375.611465164209	9.998190531396
3	147	384.09042098839	14.715165671118
3	148	388.098756425025	17.513522552953
3	149	388.568942129696	8.887231230971
3	152	396.392065199602	0
3	155	397.305467285273	0.823134956017
3	163	411.011076929426	5.047696258921
3	164	411.518300525149	0.668007747137
3	167	413.949212177533	0
3	174	426.021954139626	11.62109396179
3	175	429.985880942319	14.197204850518
3	176	437.995391551382	13.268693938528
3	182	462.199067510139	6.087199788563
3	195	488.817239485644	16.042002630651
3	196	491.527405791091	13.022558170664
3	199	499.345724305129	20.648796284118
3	202	505.005750527447	9.976020418454
3	203	505.322838503941	4.809271028569
3	208	510.328953332781	1.877177477014
3	209	511.564952742431	2.707244575158
3	218	531.289085201889	6.999275833739
3	224	553.294729384193	0
3	230	577.737310308474	4.321813458175
3	233	579.327708019238	0
3	236	586.33526970671	5.106055399493
3	241	587.922662715879	0.87115346169
3	244	595.093528296758	7.262959431276
3	245	595.716235715151	7.205987822081
3	252	604.633983896365	6.942243248015
3	253	605.358215023117	5.732310783403
3	254	618.039843528615	16.575045231194
3	257	631.329077363337	9.773870075086
3	260	634.774522045433	0
3	263	653.323311617842	0
3	266	658.573298451177	0
3	272	684.49641219479	0
3	275	706.571185476976	14.568941853381
3	281	720.025090575988	7.597035809606
3	284	740.165402144317	0
3	293	760.280394878534	2.081324544659
3	296	765.574160589746	0
3	307	772.535748358449	5.415355933233
3	310	776.852893341267	8.254536986918
3	313	784.268503521965	14.525087457573
3	328	813.688672133386	43.581124331602
3	331	817.518423584445	45.688469486576
3	332	817.611224165193	43.183678747153
3	333	820.924229165176	38.617650223774
3	334	824.372034683447	39.693277487721
3	335	826.208524932956	36.39273534253
3	338	827.167936869802	35.057312659952
3	339	827.174510949677	33.070585754404
3	348	855.698231935099	51.443956885385
3	353	858.59655717336	50.542609258656
3	356	866.711498525741	53.52433921973
3	357	870.795828268276	54.850625302303
3	364	881.191364293364	54.75350672681
3	371	898.16025707225	67.016466534693
3	372	898.183263350287	66.574783190442
3	375	898.915110397139	62.714597215582
3	376	900.114655871422	53.899360097236
3	379	905.214520480286	49.219794056743
3	395	931.707903335116	73.189609075893
3	400	937.120144383068	73.150070973893
3	403	939.633077291626	66.530219069085
3	404	947.808852641688	73.212275868752
3	409	948.700254038836	72.131673372246
3	410	958.943067317461	73.770727310209
3	430	1008.04815928738	118.16656645274
3	431	1008.057025968297	113.84182135555
3	432	1011.483586019503	112.79540572856
3	433	1011.495459006083	110.29799260074
3	434	1014.031112626228	106.52721983582
3	437	1017.498462428297	106.55368430163
3	438	1018.925456017231	99.81667305826
3	447	1038.099570759012	114.54717363852
3	448	1038.366296783319	111.88789614994
3	449	1040.402570830717	113.05584796056
3	450	1041.182963567211	106.71087903478
3	455	1043.845271880837	108.40756061618
3	462	1064.188857043544	125.83545481917
3	463	1065.860184588322	117.70033366391
3	464	1069.022840930776	120.37733041502
3	465	1072.775990343798	112.94169601003
3	493	1139.052204800797	167.82090104189
3	494	1144.945790090025	147.2062923373
3	495	1145.81580282003	143.56874702222
3	496	1148.469621061975	143.52884042509
3	497	1148.987999243047	133.89833614181
3	498	1149.106174073783	118.16302147422
3	499	1156.006305653083	124.26158844361
3	504	1166.920104022921	133.05030365558
3	505	1167.282104110438	132.06347599625
3	506	1168.772043571816	126.66596420315
3	507	1169.244718164168	126.35138397382
3	508	1171.816942517715	126.90923241949
3	509	1172.97431693644	122.86407094999
3	510	1173.857828946402	117.37960186773
3	511	1174.114752518438	99.306809131331
3	514	1177.823405968396	96.287997049152
3	535	1220.931274769454	110.00725511163
3	536	1222.219508160008	105.64228190708
3	537	1226.2156554079	105.84522797024
3	538	1227.240328989821	89.139262452267
3	541	1234.025984998418	75.028215622595
3	546	1245.488559565373	81.098945462235
3	549	1247.963440751325	71.59505892394
3	550	1249.85803949503	62.960100064198
3	553	1257.112671285083	57.240435030921
3	554	1261.148008484145	56.869411702067
3	555	1263.08540940119	53.617811055595
3	558	1269.768586502229	36.806726889808
3	559	1271.206742458525	34.222561869234
3	562	1274.339136792106	32.632182550233
3	563	1275.207439696877	28.196984573974
3	564	1277.853492296465	27.656974382951
3	569	1290.539884911528	21.588329139569
3	570	1295.871879761214	23.595753215739
3	573	1306.214295614681	21.605503776195
3	574	1311.284270376467	23.660749367732
3	575	1318.251823413578	17.406700252791
3	578	1328.737592178993	8.158626191852
3	581	1332.584785782388	0
3	584	1341.640472899657	0
3	587	1352.712257866263	0
3	592	1354.920277134243	1.323404673608
3	593	1355.064896387257	0.634433487262
3	596	1363.525267817574	0
3	599	1366.687058689306	2.705038467226
3	602	1367.655239060573	0.856832325053
3	605	1374.01657971534	6.217780687083
3	608	1380.988650301259	0
3	611	1383.440373029984	0
3	614	1393.706026127362	6.073626866459
3	623	1416.164814404483	10.219647225257
3	626	1422.396675441742	0
3	629	1429.855421651356	0.228165895039
3	632	1431.6749534579	0.989864685044
3	635	1439.937483048556	0
3	647	1473.332140902833	33.029615742796
3	648	1474.333599398207	33.732032309553
3	649	1474.910193026468	33.635813196282
3	656	1481.250881389448	11.161270174765
3	657	1482.028728936622	4.172205006974
3	658	1483.764773344529	4.130469806322
3	659	1485.300769539307	4.283188291886
3	665	1493.345910221193	3.366544365643
3	668	1505.84459403142	6.331457050959
3	671	1511.862039739226	4.099801021393
3	674	1529.541644465283	0
3	680	1536.141598370573	2.079882884958
3	683	1539.645071159792	1.014145166234
3	686	1553.230681240834	0
3	699	1574.875052967364	21.425813694222
3	702	1585.663181267353	31.716427265967
3	707	1595.794272724979	37.296095386436
3	710	1604.52570114449	43.225195483119
3	711	1604.881485168554	42.41768473895
3	712	1605.355234073571	39.223997992933
3	713	1612.027410890657	34.375309470769
3	714	1619.447613021713	28.976877799664
3	715	1628.934179040709	33.375563716668
3	726	1659.048733212536	56.261191773131
3	727	1660.747497097958	31.457150881736
3	728	1662.487421752755	24.719130259258
3	729	1662.912542278165	23.763860172012
3	730	1665.559603769226	19.685185613282
3	731	1672.500186478874	14.791276856261
3	734	1675.495492245268	0
3	737	1682.1846757928	0
3	748	1720.50240945778	22.864685212449
3	749	1722.368204831582	8.115564439465
3	756	1733.52618163994	7.573185180494
3	757	1733.669343275052	1.924577448107
3	765	1746.632271711519	13.540803061985
3	766	1748.490029038868	10.894476861986
3	767	1752.228513915198	8.626212951986
3	773	1769.737070293725	0
3	779	1797.429649869354	0
3	782	1808.423608925901	0
3	789	1815.433755449839	5.427174313599
3	796	1826.965648174676	15.848178994549
3	797	1827.465669658466	14.737978318553
3	798	1827.936800176632	8.641728842552
3	799	1829.719979510088	9.885772268286
3	800	1834.687955180721	10.858615252355
3	806	1850.05842958545	0
3	821	1878.333297866126	8.192496537188
3	824	1885.921245331974	13.827494741835
3	825	1892.206757592774	15.800788968908
3	828	1896.443731641496	18.376883614234
3	829	1898.807322526105	18.64528468809
3	830	1901.174075946756	7.720941830772
3	833	1914.482613606068	0
3	838	1928.609823331164	7.728845572648
3	841	1935.057114719194	10.310454420862
3	842	1937.916343172469	8.181022424069
3	845	1951.433106009163	0
3	848	1961.080825932835	0
3	851	1968.963691792235	0
3	854	1974.704298001108	0
3	857	1979.34222648922	0
3	860	1982.36574677823	0
3	865	1988.516512396493	4.678219283264
3	881	2021.814372758002	37.461196332302
3	884	2038.415222392157	49.25861190968
3	885	2044.881103301927	54.530908784625
3	886	2048.831141313406	55.391370679251
3	887	2050.17555535048	54.394729699135
3	888	2050.397445930139	53.866332027255
3	889	2055.911156187784	36.109024541119
3	890	2056.756400382393	34.806989637941
3	897	2062.941288847243	5.111996578894
3	902	2078.626263442886	17.746673589219
3	903	2081.035241835318	20.126343118016
3	904	2084.601017350562	17.409746441642
3	911	2098.423885514056	27.744785927167
3	912	2103.279197993877	11.66121592264
3	913	2106.103121275377	13.616653113931
3	914	2107.717278021217	14.176673337616
3	919	2123.066944013103	4.794448850051
3	963	2215.684572838907	95.530526251205
3	964	2216.664508580299	92.802044599676
3	967	2218.449190069363	85.09012536762
3	968	2220.234233463634	79.890594757694
3	969	2223.648187195894	71.951202677279
3	974	2231.225847400335	65.765627982073
3	975	2237.317326739968	54.368793061772
3	978	2249.60178077695	59.955598351119
3	979	2256.694682277883	62.779804210097
3	984	2261.893084394001	67.938920286095
3	985	2262.996470853049	68.435459540141
3	990	2276.777360232022	76.011257880635
3	995	2282.148382172407	71.919371664617
3	996	2283.751804700861	71.950847292067
3	997	2284.367284513292	71.242268314716
3	998	2284.712735503244	67.894537327059
3	999	2290.419318002128	62.407905755542
3	1013	2326.487325017154	95.417547038696
3	1014	2329.479576798063	84.417539383827
3	1017	2340.324402351182	83.370776693034
3	1018	2342.387266527716	81.505867564323
3	1021	2347.945373308725	77.477813385033
3	1022	2351.001120078876	76.040070546667
3	1025	2358.223001412513	81.07786675513
3	1032	2365.928571856414	85.714442728717
3	1035	2377.103686438548	84.747381483833
3	1036	2384.958488836793	79.793358394358
3	1037	2385.506587932549	51.553516169072
3	1042	2398.934262904273	53.688330662753
3	1045	2398.981303716554	45.581839229546
3	1048	2402.873665423626	42.083745847971
3	1049	2403.395549165344	40.696690100531
3	1057	2415.476253642135	51.832730271579
3	1064	2424.178682284546	51.750752230244
3	1069	2438.132956952414	45.914787722146
3	1074	2457.13235791741	62.74127273524
3	1075	2473.573420738512	74.604968106462
3	1076	2476.008733865186	75.35360633559
3	1083	2487.308793641794	82.607304525613
3	1084	2492.896157583855	83.997794533677
4	129	351.146016674321	23
4	132	358.770826972345	24
4	135	364.048302452972	25
4	136	365.483471034979	26
4	139	366.172844405622	27
4	147	384.09042098839	28
4	148	388.098756425025	29
4	149	388.568942129696	30
4	150	389.850239606585	31
4	155	397.305467285273	32
4	156	399.44481383053	33
4	164	411.518300525149	34
4	165	412.922662408013	35
4	175	429.985880942319	36
4	176	437.995391551382	37
4	177	440.962013505108	38
4	183	465.66752539931	39
4	196	491.527405791091	40
4	203	505.322838503941	41
4	208	510.328953332781	42
4	209	511.564952742431	43
4	210	511.623705120283	44
4	219	532.629219238791	45
4	225	553.686782056565	46
4	231	578.907221594078	47
4	236	586.33526970671	48
4	241	587.922662715879	49
4	244	595.093528296758	50
4	245	595.716235715151	51
4	252	604.633983896365	52
4	253	605.358215023117	53
4	254	618.039843528615	54
4	257	631.329077363337	55
4	258	634.625173712384	56
4	261	647.672762025102	57
4	264	653.702966907537	58
4	267	659.408361334603	59
4	275	706.571185476976	60
4	276	706.669612838741	61
4	282	722.620859466895	62
4	285	741.080819178449	63
4	294	764.900053917907	64
4	310	776.852893341267	65
4	313	784.268503521965	66
4	331	817.518423584445	67
4	332	817.611224165193	68
4	333	820.924229165176	69
4	334	824.372034683447	70
4	335	826.208524932956	71
4	338	827.167936869802	72
4	339	827.174510949677	73
4	353	858.59655717336	74
4	357	870.795828268276	75
4	364	881.191364293364	76
4	371	898.16025707225	77
4	372	898.183263350287	78
4	376	900.114655871422	79
4	379	905.214520480286	80
4	403	939.633077291626	81
4	404	947.808852641688	82
4	409	948.700254038836	83
4	410	958.943067317461	84
4	431	1008.057025968297	85
4	432	1011.483586019503	86
4	433	1011.495459006083	87
4	434	1014.031112626228	88
4	437	1017.498462428297	89
4	438	1018.925456017231	90
4	448	1038.366296783319	91
4	449	1040.402570830717	92
4	450	1041.182963567211	93
4	455	1043.845271880837	94
4	463	1065.860184588322	95
4	464	1069.022840930776	96
4	465	1072.775990343798	97
4	494	1144.945790090025	98
4	495	1145.81580282003	99
4	496	1148.469621061975	100
4	497	1148.987999243047	101
4	498	1149.106174073783	102
4	499	1156.006305653083	103
4	504	1166.920104022921	104
4	505	1167.282104110438	105
4	506	1168.772043571816	106
4	507	1169.244718164168	107
4	508	1171.816942517715	108
4	509	1172.97431693644	109
4	510	1173.857828946402	110
4	511	1174.114752518438	111
4	514	1177.823405968396	112
4	536	1222.219508160008	113
4	537	1226.2156554079	114
4	538	1227.240328989821	115
4	541	1234.025984998418	116
4	546	1245.488559565373	117
4	550	1249.85803949503	118
4	553	1257.112671285083	119
4	554	1261.148008484145	120
4	555	1263.08540940119	121
4	558	1269.768586502229	122
4	559	1271.206742458525	123
4	563	1275.207439696877	124
4	564	1277.853492296465	125
4	570	1295.871879761214	126
4	573	1306.214295614681	127
4	574	1311.284270376467	128
4	575	1318.251823413578	129
4	578	1328.737592178993	130
4	579	1329.133351235815	131
4	582	1337.195785378936	132
4	585	1343.432179286036	133
4	592	1354.920277134243	134
4	593	1355.064896387257	135
4	594	1358.40697916058	136
4	599	1366.687058689306	137
4	602	1367.655239060573	138
4	605	1374.01657971534	139
4	606	1374.699880625482	140
4	609	1381.198638179076	141
4	615	1398.50147249143	142
4	624	1417.001124827704	143
4	629	1429.855421651356	144
4	632	1431.6749534579	145
4	633	1435.802680966893	146
4	648	1474.333599398207	147
4	649	1474.910193026468	148
4	656	1481.250881389448	149
4	657	1482.028728936622	150
4	658	1483.764773344529	151
4	659	1485.300769539307	152
4	660	1489.374923721345	153
4	668	1505.84459403142	154
4	672	1513.23044751412	155
4	675	1530.569403436126	156
4	683	1539.645071159792	157
4	684	1548.499277052462	158
4	702	1585.663181267353	159
4	710	1604.52570114449	160
4	711	1604.881485168554	161
4	712	1605.355234073571	162
4	713	1612.027410890657	163
4	714	1619.447613021713	164
4	715	1628.934179040709	165
4	727	1660.747497097958	166
4	728	1662.487421752755	167
4	729	1662.912542278165	168
4	730	1665.559603769226	169
4	731	1672.500186478874	170
4	732	1674.434384324431	171
4	735	1680.916692668018	172
4	738	1685.04097267551	173
4	749	1722.368204831582	174
4	757	1733.669343275052	175
4	766	1748.490029038868	176
4	767	1752.228513915198	177
4	768	1752.89114162105	178
4	774	1769.786856487806	179
4	780	1798.982293736326	180
4	797	1827.465669658466	181
4	798	1827.936800176632	182
4	799	1829.719979510088	183
4	800	1834.687955180721	184
4	801	1837.290904833987	185
4	807	1854.842426317318	186
4	824	1885.921245331974	187
4	825	1892.206757592774	188
4	829	1898.807322526105	189
4	830	1901.174075946756	190
4	831	1903.529234441763	191
4	838	1928.609823331164	192
4	841	1935.057114719194	193
4	842	1937.916343172469	194
4	843	1937.998751788089	195
4	846	1954.096004245413	196
4	849	1964.481140227335	197
4	852	1969.18326020111	198
4	855	1976.824220454058	199
4	858	1980.473444480105	200
4	884	2038.415222392157	201
4	885	2044.881103301927	202
4	886	2048.831141313406	203
4	887	2050.17555535048	204
4	888	2050.397445930139	205
4	889	2055.911156187784	206
4	890	2056.756400382393	207
4	903	2081.035241835318	208
4	904	2084.601017350562	209
4	912	2103.279197993877	210
4	913	2106.103121275377	211
4	914	2107.717278021217	212
4	964	2216.664508580299	213
4	967	2218.449190069363	214
4	968	2220.234233463634	215
4	969	2223.648187195894	216
4	975	2237.317326739968	217
4	978	2249.60178077695	218
4	979	2256.694682277883	219
4	985	2262.996470853049	220
4	996	2283.751804700861	221
4	997	2284.367284513292	222
4	998	2284.712735503244	223
4	999	2290.419318002128	224
4	1014	2329.479576798063	225
4	1017	2340.324402351182	226
4	1018	2342.387266527716	227
4	1022	2351.001120078876	228
4	1032	2365.928571856414	229
4	1036	2384.958488836793	230
4	1037	2385.506587932549	231
4	1042	2398.934262904273	232
4	1048	2402.873665423626	233
4	1049	2403.395549165344	234
4	1075	2473.573420738512	235
4	1076	2476.008733865186	236
4	1084	2492.896157583855	237
5	129	351.146016674321	3
5	131	354.557151855681	3
5	132	358.770826972345	3
5	134	363.823894831212	3
5	135	364.048302452972	3
5	136	365.483471034979	2
5	138	365.613274632813	2
5	139	366.172844405622	2
5	143	370.585233872072	2
5	146	379.681710898725	3
5	147	384.09042098839	3
5	148	388.098756425025	2
5	149	388.568942129696	1
5	150	389.850239606585	0
5	152	396.392065199602	0
5	154	396.482332329256	1
5	155	397.305467285273	1
5	156	399.44481383053	0
5	160	405.963380670505	0
5	162	410.850292778012	1
5	164	411.518300525149	1
5	165	412.922662408013	0
5	167	413.949212177533	0
5	169	414.400860177836	1
5	173	424.726697612854	2
5	175	429.985880942319	2
5	176	437.995391551382	1
5	177	440.962013505108	0
5	181	456.111867721576	0
5	183	465.66752539931	0
5	187	472.775236854993	0
5	189	478.504847620427	1
5	191	478.696928021011	2
5	196	491.527405791091	2
5	203	505.322838503941	1
5	205	508.451775855767	1
5	207	508.857708167273	2
5	208	510.328953332781	2
5	209	511.564952742431	1
5	210	511.623705120283	0
5	217	524.28980936815	0
5	219	532.629219238791	0
5	224	553.294729384193	0
5	225	553.686782056565	0
5	229	573.415496850299	0
5	231	578.907221594078	0
5	233	579.327708019238	0
5	235	581.229214307217	1
5	236	586.33526970671	1
5	238	587.051509254189	1
5	240	587.830568865482	2
5	241	587.922662715879	2
5	243	588.51024789307	2
5	244	595.093528296758	2
5	245	595.716235715151	1
5	247	597.69174064835	1
5	249	599.625904239714	2
5	251	601.464798297421	3
5	252	604.633983896365	3
5	253	605.358215023117	2
5	254	618.039843528615	1
5	256	621.555207288251	1
5	257	631.329077363337	1
5	258	634.625173712384	0
5	260	634.774522045433	0
5	261	647.672762025102	0
5	263	653.323311617842	0
5	264	653.702966907537	0
5	266	658.573298451177	0
5	267	659.408361334603	0
5	272	684.49641219479	0
5	274	692.002243623595	1
5	275	706.571185476976	1
5	276	706.669612838741	0
5	280	712.428054766382	0
5	282	722.620859466895	0
5	284	740.165402144317	0
5	285	741.080819178449	0
5	292	758.199070333875	0
5	294	764.900053917907	0
5	296	765.574160589746	0
5	300	768.598356354349	1
5	302	769.743416064392	2
5	304	770.107547801784	3
5	306	771.829954097869	4
5	309	774.42754541804	5
5	310	776.852893341267	5
5	312	782.306578941402	5
5	313	784.268503521965	5
5	315	784.678757195726	5
5	319	792.11062420985	6
5	321	794.103925195273	7
5	323	804.254275049714	8
5	325	808.053947914704	9
5	327	813.187159306011	10
5	330	815.945202965973	11
5	331	817.518423584445	11
5	332	817.611224165193	10
5	333	820.924229165176	9
5	334	824.372034683447	8
5	335	826.208524932956	7
5	337	826.437857566554	7
5	338	827.167936869802	7
5	339	827.174510949677	6
5	341	831.143790537557	6
5	345	836.200513181557	7
5	347	846.215295774186	8
5	350	855.994726423543	9
5	352	858.518294259223	10
5	353	858.59655717336	10
5	357	870.795828268276	9
5	359	873.102858222541	9
5	361	874.596576772936	10
5	363	876.56858066659	11
5	364	881.191364293364	11
5	366	885.172340007252	11
5	368	889.881592834636	12
5	370	894.21520461275	13
5	371	898.16025707225	13
5	372	898.183263350287	12
5	376	900.114655871422	11
5	378	901.197466405341	11
5	379	905.214520480286	11
5	381	907.503892790405	11
5	387	919.108782958971	12
5	390	923.552397120488	13
5	392	926.478400633381	14
5	394	927.346722870158	15
5	399	935.437711264658	16
5	402	938.35340222437	17
5	403	939.633077291626	17
5	404	947.808852641688	16
5	406	948.159850924412	16
5	408	948.645510515757	17
5	409	948.700254038836	17
5	410	958.943067317461	16
5	416	971.23130375891	16
5	421	997.739497752726	17
5	423	1002.247055797812	18
5	428	1004.940780636881	19
5	431	1008.057025968297	19
5	432	1011.483586019503	18
5	433	1011.495459006083	17
5	434	1014.031112626228	16
5	436	1015.089663101238	16
5	437	1017.498462428297	16
5	438	1018.925456017231	15
5	442	1031.744717209477	15
5	444	1033.869800367338	16
5	446	1035.218628114189	17
5	448	1038.366296783319	17
5	449	1040.402570830717	16
5	450	1041.182963567211	15
5	452	1042.10607936867	15
5	454	1042.89333419035	16
5	455	1043.845271880837	16
5	457	1044.907710098221	16
5	461	1056.478227078671	17
5	463	1065.860184588322	17
5	464	1069.022840930776	16
5	465	1072.775990343798	15
5	469	1081.535408919244	15
5	476	1110.924019657824	16
5	478	1116.577226252923	17
5	482	1120.370427437659	18
5	492	1138.101066537554	19
5	494	1144.945790090025	19
5	495	1145.81580282003	18
5	496	1148.469621061975	17
5	497	1148.987999243047	16
5	498	1149.106174073783	15
5	499	1156.006305653083	14
5	501	1158.997769375823	14
5	503	1164.389614103138	15
5	504	1166.920104022921	15
5	505	1167.282104110438	14
5	506	1168.772043571816	13
5	507	1169.244718164168	12
5	508	1171.816942517715	11
5	509	1172.97431693644	10
5	510	1173.857828946402	9
5	511	1174.114752518438	8
5	513	1176.368381827385	8
5	514	1177.823405968396	8
5	521	1199.872236254162	8
5	526	1204.278596782078	9
5	530	1209.467598345595	10
5	536	1222.219508160008	10
5	537	1226.2156554079	9
5	538	1227.240328989821	8
5	540	1232.961859612421	8
5	541	1234.025984998418	8
5	543	1236.984180589291	8
5	545	1241.706954241873	9
5	546	1245.488559565373	9
5	550	1249.85803949503	8
5	552	1250.196517913514	8
5	553	1257.112671285083	8
5	554	1261.148008484145	7
5	555	1263.08540940119	6
5	557	1268.951555771959	6
5	558	1269.768586502229	6
5	559	1271.206742458525	5
5	563	1275.207439696877	4
5	564	1277.853492296465	3
5	568	1287.623521008735	3
5	570	1295.871879761214	3
5	572	1300.845123160787	3
5	573	1306.214295614681	3
5	574	1311.284270376467	2
5	575	1318.251823413578	1
5	577	1320.578965987141	1
5	578	1328.737592178993	1
5	579	1329.133351235815	0
5	581	1332.584785782388	0
5	582	1337.195785378936	0
5	584	1341.640472899657	0
5	585	1343.432179286036	0
5	587	1352.712257866263	0
5	589	1353.596872460635	1
5	591	1354.430462899995	2
5	592	1354.920277134243	2
5	593	1355.064896387257	1
5	594	1358.40697916058	0
5	596	1363.525267817574	0
5	598	1363.98202022208	1
5	599	1366.687058689306	1
5	601	1366.79840673552	1
5	602	1367.655239060573	1
5	604	1367.798799028257	1
5	605	1374.01657971534	1
5	606	1374.699880625482	0
5	608	1380.988650301259	0
5	609	1381.198638179076	0
5	611	1383.440373029984	0
5	615	1398.50147249143	0
5	619	1405.945167179226	0
5	624	1417.001124827704	0
5	626	1422.396675441742	0
5	628	1429.627255756317	1
5	629	1429.855421651356	1
5	631	1430.685088772856	1
5	632	1431.6749534579	1
5	633	1435.802680966893	0
5	635	1439.937483048556	0
5	639	1440.601567088654	1
5	641	1441.274379830186	2
5	646	1470.089611214683	3
5	648	1474.333599398207	3
5	649	1474.910193026468	2
5	651	1477.856523929648	2
5	653	1479.634303538207	3
5	655	1481.017581247421	4
5	656	1481.250881389448	4
5	657	1482.028728936622	3
5	658	1483.764773344529	2
5	659	1485.300769539307	1
5	660	1489.374923721345	0
5	664	1489.97936585555	0
5	667	1499.513136980461	1
5	668	1505.84459403142	1
5	672	1513.23044751412	0
5	674	1529.541644465283	0
5	675	1530.569403436126	0
5	679	1534.061715485615	0
5	682	1538.630925993558	1
5	683	1539.645071159792	1
5	684	1548.499277052462	0
5	686	1553.230681240834	0
5	688	1553.449239273142	1
5	690	1553.946754001386	2
5	694	1561.300505661371	3
5	696	1562.463800429604	4
5	698	1566.131236080638	5
5	701	1577.652101419888	6
5	702	1585.663181267353	6
5	706	1595.558615324041	6
5	709	1602.787541439405	7
5	710	1604.52570114449	7
5	711	1604.881485168554	6
5	712	1605.355234073571	5
5	713	1612.027410890657	4
5	714	1619.447613021713	3
5	715	1628.934179040709	2
5	717	1629.290346216222	2
5	719	1637.768291493497	3
5	721	1639.148682106153	4
5	725	1657.708909622613	5
5	727	1660.747497097958	5
5	728	1662.487421752755	4
5	729	1662.912542278165	3
5	730	1665.559603769226	2
5	731	1672.500186478874	1
5	732	1674.434384324431	0
5	734	1675.495492245268	0
5	735	1680.916692668018	0
5	737	1682.1846757928	0
5	738	1685.04097267551	0
5	744	1697.637724245331	0
5	746	1714.252640392117	1
5	749	1722.368204831582	1
5	751	1725.952996459446	1
5	755	1733.091468649534	2
5	757	1733.669343275052	2
5	761	1743.602300963212	2
5	766	1748.490029038868	2
5	767	1752.228513915198	1
5	768	1752.89114162105	0
5	773	1769.737070293725	0
5	774	1769.786856487806	0
5	779	1797.429649869354	0
5	780	1798.982293736326	0
5	782	1808.423608925901	0
5	786	1811.117469180127	1
5	788	1812.727691339913	2
5	791	1819.29507133408	3
5	795	1823.829339928366	4
5	797	1827.465669658466	4
5	798	1827.936800176632	3
5	799	1829.719979510088	2
5	800	1834.687955180721	1
5	801	1837.290904833987	0
5	806	1850.05842958545	0
5	807	1854.842426317318	0
5	814	1870.140801328938	0
5	816	1872.093750590139	1
5	818	1876.405968623866	2
5	820	1878.066848027262	3
5	823	1880.162037838015	4
5	824	1885.921245331974	4
5	825	1892.206757592774	3
5	829	1898.807322526105	2
5	830	1901.174075946756	1
5	831	1903.529234441763	0
5	833	1914.482613606068	0
5	835	1920.880977758516	1
5	837	1924.746660298332	2
5	838	1928.609823331164	2
5	840	1929.7353207484	2
5	841	1935.057114719194	2
5	842	1937.916343172469	1
5	843	1937.998751788089	0
5	845	1951.433106009163	0
5	846	1954.096004245413	0
5	848	1961.080825932835	0
5	849	1964.481140227335	0
5	851	1968.963691792235	0
5	852	1969.18326020111	0
5	854	1974.704298001108	0
5	855	1976.824220454058	0
5	857	1979.34222648922	0
5	858	1980.473444480105	0
5	860	1982.36574677823	0
5	862	1983.838293113229	1
5	867	1989.156610482477	2
5	869	1990.350194517302	3
5	873	1995.780825651345	4
5	875	1996.531113902884	5
5	880	2019.802131646665	6
5	883	2021.949410744452	7
5	884	2038.415222392157	7
5	885	2044.881103301927	6
5	886	2048.831141313406	5
5	887	2050.17555535048	4
5	888	2050.397445930139	3
5	889	2055.911156187784	2
5	890	2056.756400382393	1
5	894	2060.879589853667	1
5	896	2060.908898717302	2
5	901	2070.679099586889	3
5	903	2081.035241835318	3
5	904	2084.601017350562	2
5	906	2091.617982071237	2
5	908	2092.486468161446	3
5	912	2103.279197993877	3
5	913	2106.103121275377	2
5	914	2107.717278021217	1
5	918	2120.154046587702	1
5	925	2133.359064701743	2
5	927	2140.34363870594	3
5	931	2151.696984518615	4
5	938	2165.460219418262	5
5	940	2182.948533678196	6
5	945	2189.646182425831	7
5	947	2193.914878067786	8
5	949	2193.954164107906	9
5	951	2194.561011312908	10
5	955	2200.766102351387	11
5	958	2210.22901050779	12
5	960	2211.800957408794	13
5	962	2213.125016198576	14
5	964	2216.664508580299	14
5	966	2216.818198176185	14
5	967	2218.449190069363	14
5	968	2220.234233463634	13
5	969	2223.648187195894	12
5	973	2231.069777978458	12
5	975	2237.317326739968	12
5	977	2245.062037414236	12
5	978	2249.60178077695	12
5	979	2256.694682277883	11
5	983	2260.881398963393	11
5	985	2262.996470853049	11
5	989	2274.961049532209	11
5	994	2280.214129127697	12
5	996	2283.751804700861	12
5	997	2284.367284513292	11
5	998	2284.712735503244	10
5	999	2290.419318002128	9
5	1008	2305.165130442435	9
5	1014	2329.479576798063	9
5	1016	2333.953071763477	9
5	1017	2340.324402351182	9
5	1018	2342.387266527716	8
5	1022	2351.001120078876	7
5	1027	2360.789919575655	7
5	1029	2362.698859064813	8
5	1031	2363.643523370556	9
5	1032	2365.928571856414	9
5	1036	2384.958488836793	8
5	1037	2385.506587932549	7
5	1039	2392.218169230268	7
5	1041	2394.39108518217	8
5	1042	2398.934262904273	8
5	1047	2400.655127529596	8
5	1048	2402.873665423626	8
5	1049	2403.395549165344	7
5	1055	2408.898363050178	7
5	1061	2423.295046423066	8
5	1063	2423.399860528197	9
5	1068	2437.376253249859	10
5	1071	2439.988562019943	11
5	1075	2473.573420738512	11
5	1076	2476.008733865186	10
5	1078	2479.732826589049	10
5	1080	2480.108407740282	11
5	1084	2492.896157583855	11
6	129	351.146016674321	37.572796309251
6	132	358.770826972345	30.239707380461
6	135	364.048302452972	27.345548191166
6	136	365.483471034979	15.592939292668
6	139	366.172844405622	11.615692549941
6	147	384.09042098839	18.477146355577
6	148	388.098756425025	18.723501107753
6	149	388.568942129696	17.983708257624
6	150	389.850239606585	10.16852870786
6	155	397.305467285273	0.913402085671
6	156	399.44481383053	2.962481501274
6	164	411.518300525149	5.554919854644
6	165	412.922662408013	2.072369630001
6	175	429.985880942319	15.585020764483
6	176	437.995391551382	22.206715459581
6	177	440.962013505108	16.235315892254
6	183	465.66752539931	9.555657677734
6	196	491.527405791091	18.752168936098
6	203	505.322838503941	10.293108394948
6	208	510.328953332781	9.815385857409
6	209	511.564952742431	3.113176886664
6	210	511.623705120283	2.76599695301
6	219	532.629219238791	8.339409870641
6	225	553.686782056565	0.392052672372
6	231	578.907221594078	5.491724743779
6	236	586.33526970671	7.007561687472
6	241	587.922662715879	6.693448408662
6	244	595.093528296758	8.042019042569
6	245	595.716235715151	7.885666849669
6	252	604.633983896365	16.123736003295
6	253	605.358215023117	7.666474374767
6	254	618.039843528615	18.413939288901
6	257	631.329077363337	29.864279065916
6	258	634.625173712384	13.069966424133
6	261	647.672762025102	12.898239979669
6	264	653.702966907537	0.379655289695
6	267	659.408361334603	0.835062883426
6	275	706.571185476976	22.074773282186
6	276	706.669612838741	14.667369215146
6	282	722.620859466895	10.192804700513
6	285	741.080819178449	0.915417034132
6	294	764.900053917907	6.700983584032
6	310	776.852893341267	9.732500916051
6	313	784.268503521965	15.670147167616
6	331	817.518423584445	47.410875782661
6	332	817.611224165193	45.781270067324
6	333	820.924229165176	46.496683747136
6	334	824.372034683447	42.065455742045
6	335	826.208524932956	41.52976773723
6	338	827.167936869802	37.352147279376
6	339	827.174510949677	35.063886739827
6	353	858.59655717336	54.342282123646
6	357	870.795828268276	57.608668962265
6	364	881.191364293364	65.246161327391
6	371	898.16025707225	71.722399505696
6	372	898.183263350287	67.03947281273
6	376	900.114655871422	63.914142689865
6	379	905.214520480286	58.9992247061
6	403	939.633077291626	75.663003882451
6	404	947.808852641688	74.705994419147
6	409	948.700254038836	74.1036772659
6	410	958.943067317461	82.374486650871
6	431	1008.057025968297	118.17543313366
6	432	1011.483586019503	117.26838140675
6	433	1011.495459006083	112.80727871514
6	434	1014.031112626228	112.83364622089
6	437	1017.498462428297	109.99456963789
6	438	1018.925456017231	107.98067789057
6	448	1038.366296783319	114.81389966283
6	449	1040.402570830717	113.92417019734
6	450	1041.182963567211	113.83624069705
6	455	1043.845271880837	109.37318734841
6	463	1065.860184588322	127.50678236395
6	464	1069.022840930776	120.86299000636
6	465	1072.775990343798	124.13047982804
6	494	1144.945790090025	173.71448633111
6	495	1145.81580282003	148.0763050673
6	496	1148.469621061975	146.22256526416
6	497	1148.987999243047	144.04721860617
6	498	1149.106174073783	134.01651097255
6	499	1156.006305653083	125.06315305351
6	504	1166.920104022921	135.17538681344
6	505	1167.282104110438	133.4123037431
6	506	1168.772043571816	133.55341545763
6	507	1169.244718164168	127.1386387955
6	508	1171.816942517715	128.92360832737
6	509	1172.97431693644	128.06660683822
6	510	1173.857828946402	123.74758295995
6	511	1174.114752518438	117.63652543977
6	514	1177.823405968396	103.01546258129
6	536	1222.219508160008	111.29548850218
6	537	1226.2156554079	109.63842915498
6	538	1227.240328989821	106.86990155216
6	541	1234.025984998418	95.924918460864
6	546	1245.488559565373	86.49079018955
6	550	1249.85803949503	73.489657667645
6	553	1257.112671285083	70.214731854251
6	554	1261.148008484145	61.275772229983
6	555	1263.08540940119	58.806812619112
6	558	1269.768586502229	60.300988156634
6	559	1271.206742458525	38.244882846104
6	563	1275.207439696877	33.500485455004
6	564	1277.853492296465	30.843037173562
6	570	1295.871879761214	26.920323989255
6	573	1306.214295614681	33.938169069206
6	574	1311.284270376467	26.675478537981
6	575	1318.251823413578	30.628302404843
6	578	1328.737592178993	27.892469018206
6	579	1329.133351235815	8.554385248674
6	582	1337.195785378936	4.610999596548
6	585	1343.432179286036	1.791706386379
6	592	1354.920277134243	2.20801926798
6	593	1355.064896387257	1.468023926622
6	594	1358.40697916058	3.976516260585
6	599	1366.687058689306	3.161790871732
6	602	1367.655239060573	3.673218838493
6	605	1374.01657971534	7.21817297982
6	606	1374.699880625482	6.901081597225
6	609	1381.198638179076	0.209987877817
6	615	1398.50147249143	10.869073230527
6	624	1417.001124827704	11.055957648478
6	629	1429.855421651356	7.458746209614
6	632	1431.6749534579	2.047697701583
6	633	1435.802680966893	5.117592194037
6	648	1474.333599398207	34.03107423817
6	649	1474.910193026468	34.308625937814
6	656	1481.250881389448	39.976501559262
6	657	1482.028728936622	11.939117721939
6	658	1483.764773344529	5.908249414881
6	659	1485.300769539307	5.6664660011
6	660	1489.374923721345	8.357342473924
6	668	1505.84459403142	15.86522817587
6	672	1513.23044751412	5.468208796287
6	675	1530.569403436126	1.027758970843
6	683	1539.645071159792	5.583355674177
6	684	1548.499277052462	9.868351058904
6	702	1585.663181267353	32.213941994211
6	710	1604.52570114449	46.027523805947
6	711	1604.881485168554	43.580979507183
6	712	1605.355234073571	42.891433643967
6	713	1612.027410890657	45.896174810019
6	714	1619.447613021713	41.795511601825
6	715	1628.934179040709	38.46344381866
6	727	1660.747497097958	57.959955658553
6	728	1662.487421752755	33.197075536533
6	729	1662.912542278165	25.144250784668
6	730	1665.559603769226	26.410921663073
6	731	1672.500186478874	26.62576832293
6	732	1674.434384324431	16.725474701818
6	735	1680.916692668018	5.42120042275
6	738	1685.04097267551	2.85629688271
6	749	1722.368204831582	24.730480586251
6	757	1733.669343275052	7.716346815606
6	766	1748.490029038868	15.398560389334
6	767	1752.228513915198	14.632961738316
6	768	1752.89114162105	9.288840657838
6	774	1769.786856487806	0.049786194081
6	780	1798.982293736326	1.552643866972
6	797	1827.465669658466	16.348200478339
6	798	1827.936800176632	15.209108836719
6	799	1829.719979510088	10.424908176008
6	800	1834.687955180721	14.853747938919
6	801	1837.290904833987	13.461564905621
6	807	1854.842426317318	4.783996731868
6	824	1885.921245331974	15.780444003036
6	825	1892.206757592774	20.113007002635
6	829	1898.807322526105	20.740474498843
6	830	1901.174075946756	21.012038108741
6	831	1903.529234441763	10.076100325779
6	838	1928.609823331164	14.127209725096
6	841	1935.057114719194	14.176136960678
6	842	1937.916343172469	13.169682874137
6	843	1937.998751788089	8.263431039689
6	846	1954.096004245413	2.66289823625
6	849	1964.481140227335	3.4003142945
6	852	1969.18326020111	0.219568408875
6	855	1976.824220454058	2.11992245295
6	858	1980.473444480105	1.131217990885
6	884	2038.415222392157	54.062045966457
6	885	2044.881103301927	55.72449281945
6	886	2048.831141313406	58.480946796104
6	887	2050.17555535048	56.735784716325
6	888	2050.397445930139	54.616620278794
6	889	2055.911156187784	59.3800422849
6	890	2056.756400382393	36.954268735728
6	903	2081.035241835318	20.155651981651
6	904	2084.601017350562	23.69211863326
6	912	2103.279197993877	32.600098406988
6	913	2106.103121275377	14.48513920414
6	914	2107.717278021217	15.230809859771
6	964	2216.664508580299	96.510461992597
6	967	2218.449190069363	94.58672608874
6	968	2220.234233463634	86.875168761891
6	969	2223.648187195894	83.304548489954
6	975	2237.317326739968	71.857107321706
6	978	2249.60178077695	66.653247098754
6	979	2256.694682277883	67.048499852052
6	985	2262.996470853049	69.042306745143
6	996	2283.751804700861	73.522794193071
6	997	2284.367284513292	72.566327104498
6	998	2284.712735503244	71.587719304668
6	999	2290.419318002128	73.601119825943
6	1014	2329.479576798063	98.409798819605
6	1017	2340.324402351182	95.262364936946
6	1018	2342.387266527716	85.433640869568
6	1022	2351.001120078876	80.533560155184
6	1032	2365.928571856414	88.783437199031
6	1036	2384.958488836793	92.602183882078
6	1037	2385.506587932549	80.341457490114
6	1042	2398.934262904273	64.981191140796
6	1048	2402.873665423626	49.474200936618
6	1049	2403.395549165344	42.605629589689
6	1075	2473.573420738512	79.182335556342
6	1076	2476.008733865186	77.040281233136
6	1084	2492.896157583855	88.194668467674
7	131	354.557151855681	4
7	134	363.823894831212	4
7	138	365.613274632813	3
7	143	370.585233872072	3
7	146	379.681710898725	4
7	152	396.392065199602	1
7	154	396.482332329256	2
7	160	405.963380670505	1
7	162	410.850292778012	2
7	167	413.949212177533	1
7	169	414.400860177836	2
7	173	424.726697612854	3
7	181	456.111867721576	1
7	187	472.775236854993	1
7	189	478.504847620427	2
7	191	478.696928021011	3
7	205	508.451775855767	2
7	207	508.857708167273	3
7	217	524.28980936815	1
7	224	553.294729384193	1
7	229	573.415496850299	1
7	233	579.327708019238	1
7	235	581.229214307217	2
7	238	587.051509254189	2
7	240	587.830568865482	3
7	243	588.51024789307	3
7	247	597.69174064835	2
7	249	599.625904239714	3
7	251	601.464798297421	4
7	256	621.555207288251	2
7	260	634.774522045433	1
7	263	653.323311617842	1
7	266	658.573298451177	1
7	272	684.49641219479	1
7	274	692.002243623595	2
7	280	712.428054766382	1
7	284	740.165402144317	1
7	292	758.199070333875	1
7	296	765.574160589746	1
7	300	768.598356354349	2
7	302	769.743416064392	3
7	304	770.107547801784	4
7	306	771.829954097869	5
7	309	774.42754541804	6
7	312	782.306578941402	6
7	315	784.678757195726	6
7	319	792.11062420985	7
7	321	794.103925195273	8
7	323	804.254275049714	9
7	325	808.053947914704	10
7	327	813.187159306011	11
7	330	815.945202965973	12
7	337	826.437857566554	8
7	341	831.143790537557	7
7	345	836.200513181557	8
7	347	846.215295774186	9
7	350	855.994726423543	10
7	352	858.518294259223	11
7	359	873.102858222541	10
7	361	874.596576772936	11
7	363	876.56858066659	12
7	366	885.172340007252	12
7	368	889.881592834636	13
7	370	894.21520461275	14
7	378	901.197466405341	12
7	381	907.503892790405	12
7	387	919.108782958971	13
7	390	923.552397120488	14
7	392	926.478400633381	15
7	394	927.346722870158	16
7	399	935.437711264658	17
7	402	938.35340222437	18
7	406	948.159850924412	17
7	408	948.645510515757	18
7	416	971.23130375891	17
7	421	997.739497752726	18
7	423	1002.247055797812	19
7	428	1004.940780636881	20
7	436	1015.089663101238	17
7	442	1031.744717209477	16
7	444	1033.869800367338	17
7	446	1035.218628114189	18
7	452	1042.10607936867	16
7	454	1042.89333419035	17
7	457	1044.907710098221	17
7	461	1056.478227078671	18
7	469	1081.535408919244	16
7	476	1110.924019657824	17
7	478	1116.577226252923	18
7	482	1120.370427437659	19
7	492	1138.101066537554	20
7	501	1158.997769375823	15
7	503	1164.389614103138	16
7	513	1176.368381827385	9
7	521	1199.872236254162	9
7	526	1204.278596782078	10
7	530	1209.467598345595	11
7	540	1232.961859612421	9
7	543	1236.984180589291	9
7	545	1241.706954241873	10
7	552	1250.196517913514	9
7	557	1268.951555771959	7
7	568	1287.623521008735	4
7	572	1300.845123160787	4
7	577	1320.578965987141	2
7	581	1332.584785782388	1
7	584	1341.640472899657	1
7	587	1352.712257866263	1
7	589	1353.596872460635	2
7	591	1354.430462899995	3
7	596	1363.525267817574	1
7	598	1363.98202022208	2
7	601	1366.79840673552	2
7	604	1367.798799028257	2
7	608	1380.988650301259	1
7	611	1383.440373029984	1
7	619	1405.945167179226	1
7	626	1422.396675441742	1
7	628	1429.627255756317	2
7	631	1430.685088772856	2
7	635	1439.937483048556	1
7	639	1440.601567088654	2
7	641	1441.274379830186	3
7	646	1470.089611214683	4
7	651	1477.856523929648	3
7	653	1479.634303538207	4
7	655	1481.017581247421	5
7	664	1489.97936585555	1
7	667	1499.513136980461	2
7	674	1529.541644465283	1
7	679	1534.061715485615	1
7	682	1538.630925993558	2
7	686	1553.230681240834	1
7	688	1553.449239273142	2
7	690	1553.946754001386	3
7	694	1561.300505661371	4
7	696	1562.463800429604	5
7	698	1566.131236080638	6
7	701	1577.652101419888	7
7	706	1595.558615324041	7
7	709	1602.787541439405	8
7	717	1629.290346216222	3
7	719	1637.768291493497	4
7	721	1639.148682106153	5
7	725	1657.708909622613	6
7	734	1675.495492245268	1
7	737	1682.1846757928	1
7	744	1697.637724245331	1
7	746	1714.252640392117	2
7	751	1725.952996459446	2
7	755	1733.091468649534	3
7	761	1743.602300963212	3
7	773	1769.737070293725	1
7	779	1797.429649869354	1
7	782	1808.423608925901	1
7	786	1811.117469180127	2
7	788	1812.727691339913	3
7	791	1819.29507133408	4
7	795	1823.829339928366	5
7	806	1850.05842958545	1
7	814	1870.140801328938	1
7	816	1872.093750590139	2
7	818	1876.405968623866	3
7	820	1878.066848027262	4
7	823	1880.162037838015	5
7	833	1914.482613606068	1
7	835	1920.880977758516	2
7	837	1924.746660298332	3
7	840	1929.7353207484	3
7	845	1951.433106009163	1
7	848	1961.080825932835	1
7	851	1968.963691792235	1
7	854	1974.704298001108	1
7	857	1979.34222648922	1
7	860	1982.36574677823	1
7	862	1983.838293113229	2
7	867	1989.156610482477	3
7	869	1990.350194517302	4
7	873	1995.780825651345	5
7	875	1996.531113902884	6
7	880	2019.802131646665	7
7	883	2021.949410744452	8
7	894	2060.879589853667	2
7	896	2060.908898717302	3
7	901	2070.679099586889	4
7	906	2091.617982071237	3
7	908	2092.486468161446	4
7	918	2120.154046587702	2
7	925	2133.359064701743	3
7	927	2140.34363870594	4
7	931	2151.696984518615	5
7	938	2165.460219418262	6
7	940	2182.948533678196	7
7	945	2189.646182425831	8
7	947	2193.914878067786	9
7	949	2193.954164107906	10
7	951	2194.561011312908	11
7	955	2200.766102351387	12
7	958	2210.22901050779	13
7	960	2211.800957408794	14
7	962	2213.125016198576	15
7	966	2216.818198176185	15
7	973	2231.069777978458	13
7	977	2245.062037414236	13
7	983	2260.881398963393	12
7	989	2274.961049532209	12
7	994	2280.214129127697	13
7	1008	2305.165130442435	10
7	1016	2333.953071763477	10
7	1027	2360.789919575655	8
7	1029	2362.698859064813	9
7	1031	2363.643523370556	10
7	1039	2392.218169230268	8
7	1041	2394.39108518217	9
7	1047	2400.655127529596	9
7	1055	2408.898363050178	8
7	1061	2423.295046423066	9
7	1063	2423.399860528197	10
7	1068	2437.376253249859	11
7	1071	2439.988562019943	12
7	1078	2479.732826589049	11
7	1080	2480.108407740282	12
8	141	369.375255317272	1
8	158	404.258574086135	1
8	171	415.788676091801	1
8	179	443.919676013075	1
8	185	470.546870107225	1
8	193	480.431995840156	2
8	198	495.029730108993	1
8	201	500.513567475372	1
8	212	517.809300423735	1
8	215	521.192237302952	1
8	221	541.925002229654	1
8	227	567.695925539455	1
8	269	660.252978140038	1
8	278	709.366630100926	1
8	287	743.646848964604	1
8	290	756.458935907148	1
8	298	767.120392425216	1
8	317	789.815789590426	1
8	343	831.608480159845	1
8	355	863.970073409175	1
8	374	898.688180290939	1
8	383	910.944778126664	1
8	385	912.065066633432	2
8	397	934.472084532428	1
8	412	959.834294333765	1
8	414	963.034023953894	2
8	419	995.44102465029	2
8	426	1004.276199296497	2
8	440	1030.943152599568	1
8	459	1050.110245986447	1
8	467	1074.807943387107	1
8	471	1086.494175780376	2
8	474	1102.06552599861	2
8	480	1119.223715317434	3
8	485	1121.890324746436	3
8	488	1123.663479696237	3
8	516	1186.897939430832	1
8	518	1191.951539220539	2
8	523	1202.276890746692	2
8	528	1207.192094069512	2
8	532	1212.083298246598	3
8	548	1247.010455122903	1
8	561	1272.276126545475	1
8	566	1284.608791838486	1
8	613	1387.632399260903	1
8	617	1403.412013724196	1
8	621	1409.315926484005	2
8	637	1440.302525160037	1
8	643	1462.555294735073	2
8	662	1489.486066902343	1
8	670	1507.762238717833	1
8	677	1533.228522866138	1
8	692	1558.498177338543	1
8	704	1590.470735222049	1
8	723	1645.874418155944	1
8	740	1688.598277283569	1
8	742	1697.269698461538	2
8	753	1731.744765826945	1
8	759	1737.595552176882	1
8	763	1744.899527686484	2
8	770	1755.198627303625	1
8	776	1782.557906561692	1
8	784	1810.00658113624	1
8	793	1819.834207241802	1
8	803	1845.586409673488	1
8	809	1858.271437782732	1
8	812	1868.692586631094	1
8	827	1893.453134115984	1
8	864	1984.3531764257	1
8	871	1993.439770634155	1
8	877	2005.414674315447	2
8	892	2057.829292268349	1
8	899	2067.19127090892	1
8	910	2093.540604683601	1
8	916	2118.272495163052	1
8	921	2123.862463980623	1
8	923	2125.583614538701	2
8	929	2148.351335550223	3
8	933	2158.513685384924	4
8	935	2159.742235841395	5
8	943	2189.21250810744	4
8	971	2228.011412246586	1
8	981	2256.953625658148	1
8	987	2270.467559923692	1
8	992	2277.145134657383	1
8	1001	2292.356304954715	1
8	1003	2296.559424856657	2
8	1005	2299.848805152245	3
8	1011	2312.593632662147	2
8	1020	2345.24593224152	1
8	1024	2353.399464487008	1
8	1034	2372.427930054302	1
8	1044	2398.96845263205	1
8	1051	2404.701489116181	1
8	1053	2408.893875339512	2
8	1059	2418.968326914021	1
8	1066	2427.010862944216	1
8	1073	2443.433928593672	1
8	1082	2480.621220096792	1
8	1086	2496.852317827315	1
9	141	369.375255317272	11
9	171	415.788676091801	12
9	198	495.029730108993	13
9	201	500.513567475372	14
9	298	767.120392425216	15
9	317	789.815789590426	16
9	343	831.608480159845	17
9	355	863.970073409175	18
9	374	898.688180290939	19
9	383	910.944778126664	20
9	397	934.472084532428	21
9	412	959.834294333765	22
9	440	1030.943152599568	23
9	459	1050.110245986447	24
9	467	1074.807943387107	25
9	516	1186.897939430832	26
9	548	1247.010455122903	27
9	561	1272.276126545475	28
9	566	1284.608791838486	29
9	613	1387.632399260903	30
9	637	1440.302525160037	31
9	670	1507.762238717833	32
9	692	1558.498177338543	33
9	704	1590.470735222049	34
9	723	1645.874418155944	35
9	753	1731.744765826945	36
9	759	1737.595552176882	37
9	784	1810.00658113624	38
9	793	1819.834207241802	39
9	827	1893.453134115984	40
9	864	1984.3531764257	41
9	871	1993.439770634155	42
9	892	2057.829292268349	43
9	899	2067.19127090892	44
9	910	2093.540604683601	45
9	916	2118.272495163052	46
9	921	2123.862463980623	47
9	971	2228.011412246586	48
9	981	2256.953625658148	49
9	987	2270.467559923692	50
9	992	2277.145134657383	51
9	1001	2292.356304954715	52
9	1020	2345.24593224152	53
9	1024	2353.399464487008	54
9	1034	2372.427930054302	55
9	1044	2398.96845263205	56
9	1051	2404.701489116181	57
9	1059	2418.968326914021	58
9	1066	2427.010862944216	59
9	1073	2443.433928593672	60
9	1082	2480.621220096792	61
9	1086	2496.852317827315	62
10	141	369.375255317272	0
10	158	404.258574086135	0
10	171	415.788676091801	0
10	179	443.919676013075	0
10	185	470.546870107225	0
10	194	485.20166083724	4.769664997084
10	198	495.029730108993	0
10	201	500.513567475372	0
10	212	517.809300423735	0
10	215	521.192237302952	0
10	221	541.925002229654	0
10	227	567.695925539455	0
10	269	660.252978140038	0
10	278	709.366630100926	0
10	287	743.646848964604	0
10	290	756.458935907148	0
10	298	767.120392425216	0
10	317	789.815789590426	0
10	343	831.608480159845	0
10	355	863.970073409175	0
10	374	898.688180290939	0
10	383	910.944778126664	0
10	388	923.44892752434	11.383860890908
10	397	934.472084532428	0
10	412	959.834294333765	0
10	417	986.819223964434	23.78520001054
10	424	1003.971316061927	8.530291411637
10	429	1006.327139830153	2.050940533656
10	440	1030.943152599568	0
10	459	1050.110245986447	0
10	467	1074.807943387107	0
10	472	1096.392710120947	9.898534340571
10	483	1121.364652574624	19.299126576014
10	486	1122.6508584059	3.427143088466
10	489	1128.012197660294	6.121872913858
10	490	1134.682134621781	11.018654925544
10	516	1186.897939430832	0
10	519	1199.389355687828	7.437816467289
10	524	1203.370505028493	1.093614281801
10	533	1213.321597254297	6.129503184785
10	534	1215.255448648685	3.172150402087
10	548	1247.010455122903	0
10	561	1272.276126545475	0
10	566	1284.608791838486	0
10	613	1387.632399260903	0
10	617	1403.412013724196	0
10	622	1411.97236364633	2.656437162325
10	637	1440.302525160037	0
10	644	1467.491670698058	4.936375962985
10	662	1489.486066902343	0
10	670	1507.762238717833	0
10	677	1533.228522866138	0
10	692	1558.498177338543	0
10	704	1590.470735222049	0
10	723	1645.874418155944	0
10	740	1688.598277283569	0
10	747	1717.110580375987	19.840881914449
10	753	1731.744765826945	0
10	759	1737.595552176882	0
10	764	1745.246400151548	0.346872465064
10	770	1755.198627303625	0
10	776	1782.557906561692	0
10	784	1810.00658113624	0
10	793	1819.834207241802	0
10	803	1845.586409673488	0
10	809	1858.271437782732	0
10	812	1868.692586631094	0
10	827	1893.453134115984	0
10	864	1984.3531764257	0
10	871	1993.439770634155	0
10	878	2016.283801894934	10.869127579487
10	892	2057.829292268349	0
10	899	2067.19127090892	0
10	910	2093.540604683601	0
10	916	2118.272495163052	0
10	921	2123.862463980623	0
10	936	2162.425351196696	36.841736657995
10	941	2183.7461124973	35.394776947077
10	952	2197.946257619712	39.432572234788
10	953	2199.737274275905	39.99503843451
10	956	2203.522096043013	14.309587935573
10	971	2228.011412246586	0
10	981	2256.953625658148	0
10	987	2270.467559923692	0
10	992	2277.145134657383	0
10	1001	2292.356304954715	0
10	1006	2301.14200503845	4.582580181793
10	1009	2310.197448431374	10.348643279129
10	1012	2319.826945565486	7.233312903339
10	1020	2345.24593224152	0
10	1024	2353.399464487008	0
10	1034	2372.427930054302	0
10	1044	2398.96845263205	0
10	1051	2404.701489116181	0
10	1056	2414.605054784205	5.711179444693
10	1059	2418.968326914021	0
10	1066	2427.010862944216	0
10	1073	2443.433928593672	0
10	1082	2480.621220096792	0
10	1086	2496.852317827315	0
11	1087	2500	0.0948
12	1087	2500	0.0468

