version 2
run experiments_hard_game_mode1-1632-20230311-19:45:27-13235
attr configname experiments_hard_game_mode1
attr datetime 20230311-19:45:27
attr experiment experiments_hard_game_mode1
attr inifile omnetpp.ini
attr iterationvars "$0=10, $1=5, $2=0"
attr iterationvarsf 10,5,0-
attr measurement "$0=10, $1=5, $2=0"
attr network Network
attr processid 13235
attr repetition 12
attr replication #12
attr resultdir results
attr runnumber 1632
attr seedset 12
param *.boss.arrival_mean 20
param *.boss.service_mean 10
param *.minion.arrival_mean 10
param *.minion.service_mean 5
param *.player.recover_rate_x 0
param **.minion.arrival_distribution 0
param **.minion.service_distribution 0
param **.boss.arrival_distribution 0
param **.boss.service_distribution 0

vector 0 Network.player minion_defeated_stat:vector ETV
attr source signal_minion_defeated
vector 1 Network.player minion_jobs_queue_number_stat:vector ETV
attr source signal_minion_jobs_queue_number
vector 2 Network.player minion_response_time_stat:vector ETV
attr source signal_minion_response_time
vector 3 Network.player minion_waiting_time_stat:vector ETV
attr source signal_minion_waiting_time
vector 4 Network.player boss_jobs_number_stat:vector ETV
attr source signal_boss_jobs_number
vector 5 Network.player boss_jobs_queue_number_stat:vector ETV
attr source signal_boss_jobs_queue_number
vector 6 Network.player minion_recovered_stat:vector ETV
attr source signal_minion_recovered
vector 7 Network.player boss_waiting_time_stat:vector ETV
attr source signal_boss_waiting_time
vector 8 Network.player minion_jobs_number_stat:vector ETV
attr source signal_minion_jobs_number
vector 9 Network.player boss_defeated_stat:vector ETV
attr source signal_boss_defeated
vector 10 Network.player boss_response_time_stat:vector ETV
attr source signal_boss_response_time
vector 11 Network.player minion_throughput:vector ETV
attr source signal_minion_throughput
vector 12 Network.player boss_throughput:vector ETV
attr source signal_boss_throughput
0	153	353.223842551253	31
0	201	410.956700969635	32
0	204	413.208680778711	33
0	205	413.512307598825	34
0	206	414.234442861347	35
0	207	415.945752879474	36
0	214	444.195542712961	37
0	215	446.06656795149	38
0	220	458.523393767805	39
0	223	464.575130343999	40
0	224	467.997337913232	41
0	227	474.145652139776	42
0	228	479.552929923878	43
0	233	493.878973946672	44
0	234	497.283137828901	45
0	244	520.944060988898	46
0	247	523.138348022697	47
0	250	530.360443708684	48
0	251	533.090974303336	49
0	252	534.388596202481	50
0	255	535.811073784935	51
0	262	547.660020501953	52
0	263	548.419109721428	53
0	264	549.870396696879	54
0	265	551.894087916217	55
0	266	553.698366584759	56
0	267	557.476955106175	57
0	268	557.713437569851	58
0	269	558.108911309979	59
0	272	569.427063025666	60
0	283	575.435209517867	61
0	288	587.510373004453	62
0	297	609.855762193662	63
0	298	619.133840079793	64
0	305	637.114662613694	65
0	328	677.661866253124	66
0	333	687.314830843333	67
0	336	693.013007860335	68
0	337	705.713763003479	69
0	338	705.725298231665	70
0	339	709.114143818839	71
0	340	709.151423224737	72
0	341	710.948484008898	73
0	363	774.240099938364	74
0	369	785.229181471167	75
0	377	809.011560574301	76
0	391	829.455301048777	77
0	392	831.16475786357	78
0	401	849.995005649089	79
0	404	860.648071656908	80
0	405	863.921087684121	81
0	410	871.307788451256	82
0	411	872.540176839848	83
0	412	874.78285808727	84
0	413	875.483573675216	85
0	414	876.394826256991	86
0	415	878.036136830309	87
0	416	880.739472598518	88
0	417	892.005653612899	89
0	418	892.029950662105	90
0	421	895.946029295962	91
0	422	896.181332914213	92
0	433	913.106860710564	93
0	463	966.649857052189	94
0	464	972.246800823719	95
0	465	972.280269972309	96
0	494	1046.041850703855	97
0	502	1059.782723242982	98
0	503	1063.771804009097	99
0	506	1071.090163919194	100
0	507	1072.166377346822	101
0	508	1074.093732460521	102
0	509	1075.501240637868	103
0	514	1086.126854316792	104
0	515	1086.266070333023	105
0	518	1091.151384084857	106
0	524	1106.721367530401	107
0	525	1118.728372725899	108
0	526	1120.205689442949	109
0	532	1150.023853950317	110
0	533	1150.249526412122	111
0	534	1150.72377842593	112
0	535	1159.619773814619	113
0	540	1167.122998458012	114
0	541	1167.174096508366	115
0	542	1172.242945796499	116
0	543	1178.02053477262	117
0	544	1181.70972152757	118
0	560	1218.256685907421	119
0	561	1218.993803566311	120
0	562	1220.950121939369	121
0	563	1234.150835803651	122
0	575	1240.440598091344	123
0	578	1245.301761724896	124
0	581	1257.776690853833	125
0	610	1314.302583153081	126
0	611	1315.885318002846	127
0	612	1317.50315518797	128
0	615	1324.66909131458	129
0	616	1329.17985959591	130
0	641	1390.235840227385	131
0	642	1396.863174656531	132
0	648	1403.433118548668	133
0	649	1404.456432873299	134
0	680	1466.609066571003	135
0	683	1484.125192958158	136
0	684	1485.978609522838	137
0	687	1491.195884840315	138
0	711	1536.586218105315	139
0	712	1538.130699225044	140
0	713	1543.609411463175	141
0	723	1559.486281075403	142
0	728	1566.652304128456	143
0	731	1571.944198097203	144
0	732	1575.885105701342	145
0	733	1580.1541925183	146
0	734	1580.494431336857	147
0	735	1591.177187929037	148
0	753	1637.209238049594	149
0	765	1656.666747226014	150
0	768	1668.172281332238	151
0	769	1668.244420420765	152
0	770	1672.022631286402	153
0	771	1675.926336552409	154
0	772	1675.952891714	155
0	775	1679.839281340763	156
0	776	1680.168209303457	157
0	777	1688.32450769065	158
0	780	1692.331741478541	159
0	781	1696.509378805591	160
0	782	1699.434516805307	161
0	785	1712.402316001406	162
0	786	1715.183838572487	163
0	787	1715.871657564874	164
0	792	1729.80383102159	165
0	793	1730.234552330557	166
0	794	1731.683973469582	167
0	804	1743.35644501978	168
0	805	1743.571383531631	169
0	808	1746.823134283162	170
0	809	1747.196416101598	171
0	812	1756.208413765155	172
0	813	1761.691618725562	173
0	814	1765.310454539939	174
0	815	1766.776852658381	175
0	819	1789.169957574356	176
0	820	1792.168114075639	177
0	821	1794.221448067532	178
0	824	1797.7793249191	179
0	827	1805.853570652573	180
0	830	1820.176266124317	181
0	844	1858.694888047754	182
0	845	1861.810545567815	183
0	848	1873.166806897678	184
0	849	1876.360385528229	185
0	850	1881.815646730164	186
0	851	1885.47653540076	187
0	862	1894.624811958063	188
0	865	1899.290377111671	189
0	868	1900.699200690915	190
0	871	1904.685502999368	191
0	872	1904.741432085848	192
0	873	1905.085232798759	193
0	874	1907.484354042982	194
0	875	1910.602765025334	195
0	876	1918.894654189559	196
0	877	1921.121558806326	197
0	889	1954.279533232619	198
0	890	1960.250037453512	199
0	891	1963.389612460654	200
0	907	1987.066226400043	201
0	921	2013.970244623561	202
0	922	2014.66341986511	203
0	930	2021.070040950787	204
0	935	2031.315373805735	205
0	936	2032.139632325056	206
0	937	2034.432565242373	207
0	938	2043.466593303369	208
0	941	2046.845648063023	209
0	944	2054.279051388354	210
0	945	2061.423469855508	211
0	948	2063.552087036475	212
0	962	2091.48979356888	213
0	963	2101.146217583817	214
0	964	2101.892174848379	215
0	973	2116.588981510469	216
0	974	2121.17657288612	217
0	978	2143.986476024907	218
0	989	2157.40739536253	219
0	990	2160.072291899721	220
0	991	2163.079891716295	221
0	1007	2184.081197996446	222
0	1014	2193.044917181144	223
0	1015	2202.491830076494	224
0	1016	2205.007992472731	225
0	1017	2207.727380090888	226
0	1032	2245.544565242446	227
0	1033	2246.155218048445	228
0	1034	2258.153688366063	229
0	1035	2258.451540017902	230
0	1036	2263.755333232121	231
0	1037	2267.907235688645	232
0	1038	2268.033492008648	233
0	1039	2270.125331305274	234
0	1040	2274.642051915577	235
0	1041	2276.548762604782	236
0	1042	2277.652912043273	237
0	1054	2300.950225015671	238
0	1055	2303.346176666699	239
0	1060	2305.987084904468	240
0	1061	2309.430176229454	241
0	1062	2311.582129802574	242
0	1063	2312.58337040592	243
0	1067	2316.526455336731	244
0	1068	2321.829563210018	245
0	1073	2335.214998912204	246
0	1074	2342.563316081238	247
0	1075	2353.099034995415	248
0	1078	2359.788151724284	249
0	1081	2362.656832900474	250
0	1082	2367.733553234482	251
0	1083	2368.289473448931	252
0	1116	2459.730429016377	253
0	1117	2462.795284012369	254
0	1122	2471.170418927927	255
0	1123	2471.676934938296	256
0	1124	2476.668099954467	257
0	1125	2486.843040434102	258
0	1126	2487.54416709279	259
0	1129	2488.466868754215	260
0	1130	2488.797339629075	261
0	1131	2491.33063605029	262
0	1134	2495.59384219634	263
1	153	353.223842551253	6
1	157	356.275138873474	6
1	161	361.531743559315	7
1	164	367.553763951342	8
1	168	368.970575265093	9
1	171	379.927922828233	10
1	173	380.306087155442	11
1	177	382.080972587445	12
1	179	382.936418932786	13
1	182	387.510257431181	14
1	186	389.911119545815	15
1	190	393.455530514951	16
1	194	401.335149171264	17
1	196	401.485334148296	18
1	201	410.956700969635	18
1	203	412.129365972685	18
1	204	413.208680778711	18
1	205	413.512307598825	17
1	206	414.234442861347	16
1	207	415.945752879474	15
1	214	444.195542712961	14
1	215	446.06656795149	13
1	217	446.532072824088	13
1	219	455.418534664674	14
1	220	458.523393767805	14
1	222	459.485586021208	14
1	223	464.575130343999	14
1	224	467.997337913232	13
1	226	468.041860974414	13
1	227	474.145652139776	13
1	228	479.552929923878	12
1	230	480.239443259427	12
1	232	484.314394665896	13
1	233	493.878973946672	13
1	234	497.283137828901	12
1	239	511.606946428544	12
1	241	516.396541660431	13
1	243	517.029377089414	14
1	244	520.944060988898	14
1	246	522.165015742967	14
1	247	523.138348022697	14
1	249	523.706183755885	14
1	250	530.360443708684	14
1	251	533.090974303336	13
1	252	534.388596202481	12
1	254	535.079449780043	12
1	255	535.811073784935	12
1	257	542.924549707891	12
1	259	544.504856593887	13
1	261	545.10126394541	14
1	262	547.660020501953	14
1	263	548.419109721428	13
1	264	549.870396696879	12
1	265	551.894087916217	11
1	266	553.698366584759	10
1	267	557.476955106175	9
1	268	557.713437569851	8
1	269	558.108911309979	7
1	271	560.650013804625	7
1	272	569.427063025666	7
1	276	571.503968412171	7
1	278	571.885422676681	8
1	283	575.435209517867	8
1	285	576.531670043592	8
1	287	586.041278199781	9
1	288	587.510373004453	9
1	290	591.842793986612	9
1	292	593.492340352836	10
1	294	593.822627101554	11
1	296	608.601332355442	12
1	297	609.855762193662	12
1	298	619.133840079793	11
1	305	637.114662613694	10
1	307	642.500478591344	10
1	312	645.553767806205	11
1	319	658.72291101783	12
1	325	673.50565802358	13
1	327	674.664452820824	14
1	328	677.661866253124	14
1	330	678.053537741583	14
1	332	679.276270559373	15
1	333	687.314830843333	15
1	335	689.822589290019	15
1	336	693.013007860335	15
1	337	705.713763003479	14
1	338	705.725298231665	13
1	339	709.114143818839	12
1	340	709.151423224737	11
1	341	710.948484008898	10
1	349	722.812043553386	10
1	356	752.887833589075	11
1	360	754.865825694057	12
1	363	774.240099938364	12
1	367	779.934200981398	12
1	369	785.229181471167	12
1	371	786.323076486688	12
1	373	788.123718112885	13
1	377	809.011560574301	13
1	379	811.826066980366	13
1	381	815.947848581462	14
1	383	820.44480297725	15
1	385	821.388645718781	16
1	390	828.891794095329	17
1	391	829.455301048777	17
1	392	831.16475786357	16
1	396	840.695604552115	16
1	401	849.995005649089	16
1	403	857.256330799712	16
1	404	860.648071656908	16
1	405	863.921087684121	15
1	407	868.648008226734	15
1	409	870.702630473908	16
1	410	871.307788451256	16
1	411	872.540176839848	15
1	412	874.78285808727	14
1	413	875.483573675216	13
1	414	876.394826256991	12
1	415	878.036136830309	11
1	416	880.739472598518	10
1	417	892.005653612899	9
1	418	892.029950662105	8
1	420	894.689810098196	8
1	421	895.946029295962	8
1	422	896.181332914213	7
1	428	903.133171413273	7
1	431	906.787099258618	8
1	433	913.106860710564	8
1	439	924.958018129097	8
1	441	926.96826182913	9
1	445	938.47093182519	10
1	447	938.824901339621	11
1	455	946.970759347724	12
1	457	951.594273986105	13
1	461	958.366921324126	14
1	463	966.649857052189	14
1	464	972.246800823719	13
1	465	972.280269972309	12
1	474	991.294130417434	12
1	479	1007.904452093689	13
1	482	1016.561505806223	14
1	484	1023.68614644825	15
1	493	1045.719007057478	16
1	494	1046.041850703855	16
1	496	1046.141772985728	16
1	500	1053.433658907636	17
1	502	1059.782723242982	17
1	503	1063.771804009097	16
1	505	1067.124123066431	16
1	506	1071.090163919194	16
1	507	1072.166377346822	15
1	508	1074.093732460521	14
1	509	1075.501240637868	13
1	511	1080.147366110922	13
1	513	1085.663846851348	14
1	514	1086.126854316792	14
1	515	1086.266070333023	13
1	517	1090.489287960552	13
1	518	1091.151384084857	13
1	520	1092.101482329185	13
1	524	1106.721367530401	13
1	525	1118.728372725899	12
1	526	1120.205689442949	11
1	530	1140.083382758178	11
1	532	1150.023853950317	11
1	533	1150.249526412122	10
1	534	1150.72377842593	9
1	535	1159.619773814619	8
1	537	1160.613482617548	8
1	539	1165.599748141268	9
1	540	1167.122998458012	9
1	541	1167.174096508366	8
1	542	1172.242945796499	7
1	543	1178.02053477262	6
1	544	1181.70972152757	5
1	550	1184.832306587143	5
1	552	1186.37157715356	6
1	557	1211.343419140701	7
1	560	1218.256685907421	7
1	561	1218.993803566311	6
1	562	1220.950121939369	5
1	563	1234.150835803651	4
1	565	1235.09717362252	4
1	567	1236.164658714414	5
1	569	1236.791656967319	6
1	574	1240.13416520579	7
1	575	1240.440598091344	7
1	577	1241.095342600622	7
1	578	1245.301761724896	7
1	580	1255.132693136419	7
1	581	1257.776690853833	7
1	583	1261.420735924344	7
1	587	1265.523657481921	8
1	589	1265.53163369834	9
1	593	1269.672344984342	10
1	599	1281.365090834462	11
1	603	1299.931884046393	12
1	605	1304.724605843547	13
1	607	1305.322714708422	14
1	610	1314.302583153081	14
1	611	1315.885318002846	13
1	612	1317.50315518797	12
1	614	1317.789257898108	12
1	615	1324.66909131458	12
1	616	1329.17985959591	11
1	618	1330.070538396107	11
1	622	1339.403950450485	12
1	625	1341.489957657103	13
1	632	1367.584745697833	14
1	637	1380.920423930158	15
1	639	1381.753183424919	16
1	641	1390.235840227385	16
1	642	1396.863174656531	15
1	647	1402.299300518417	15
1	648	1403.433118548668	15
1	649	1404.456432873299	14
1	653	1411.883606823326	14
1	655	1412.663953516089	15
1	657	1421.810878278908	16
1	659	1422.579160929986	17
1	663	1426.932312804626	18
1	669	1446.708472722902	19
1	673	1450.82885761971	20
1	675	1455.574463608922	21
1	677	1455.730999947189	22
1	680	1466.609066571003	22
1	682	1471.269624064226	22
1	683	1484.125192958158	22
1	684	1485.978609522838	21
1	686	1489.047028911997	21
1	687	1491.195884840315	21
1	693	1501.003251163954	21
1	695	1514.643396132198	22
1	697	1515.115288514532	23
1	700	1519.425740557147	24
1	704	1524.898422388147	25
1	706	1531.528094648684	26
1	710	1535.210731051848	27
1	711	1536.586218105315	27
1	712	1538.130699225044	26
1	713	1543.609411463175	25
1	715	1543.742296043003	25
1	720	1554.127229392814	26
1	722	1557.389591053862	27
1	723	1559.486281075403	27
1	725	1559.510693161534	27
1	727	1562.792788404847	28
1	728	1566.652304128456	28
1	730	1567.742571124257	28
1	731	1571.944198097203	28
1	732	1575.885105701342	27
1	733	1580.1541925183	26
1	734	1580.494431336857	25
1	735	1591.177187929037	24
1	739	1609.196141096314	24
1	741	1610.986066775387	25
1	743	1616.904226737302	26
1	745	1623.299458895717	27
1	747	1623.989388436137	28
1	749	1626.095454983176	29
1	751	1630.575454856278	30
1	753	1637.209238049594	30
1	757	1649.186861691882	30
1	759	1649.593474439688	31
1	762	1654.678995133334	32
1	764	1654.924764420721	33
1	765	1656.666747226014	33
1	767	1660.428087577648	33
1	768	1668.172281332238	33
1	769	1668.244420420765	32
1	770	1672.022631286402	31
1	771	1675.926336552409	30
1	772	1675.952891714	29
1	774	1676.477283815076	29
1	775	1679.839281340763	29
1	776	1680.168209303457	28
1	777	1688.32450769065	27
1	779	1690.768281401143	27
1	780	1692.331741478541	27
1	781	1696.509378805591	26
1	782	1699.434516805307	25
1	784	1707.193064526369	25
1	785	1712.402316001406	25
1	786	1715.183838572487	24
1	787	1715.871657564874	23
1	789	1726.215648249001	23
1	791	1729.345563490037	24
1	792	1729.80383102159	24
1	793	1730.234552330557	23
1	794	1731.683973469582	22
1	799	1737.490455389247	22
1	801	1740.254922656132	23
1	803	1741.252134770375	24
1	804	1743.35644501978	24
1	805	1743.571383531631	23
1	807	1744.241500984743	23
1	808	1746.823134283162	23
1	809	1747.196416101598	22
1	811	1752.815041703053	22
1	812	1756.208413765155	22
1	813	1761.691618725562	21
1	814	1765.310454539939	20
1	815	1766.776852658381	19
1	819	1789.169957574356	18
1	820	1792.168114075639	17
1	821	1794.221448067532	16
1	823	1797.208591200755	16
1	824	1797.7793249191	16
1	826	1804.485709461222	16
1	827	1805.853570652573	16
1	829	1817.024796108276	16
1	830	1820.176266124317	16
1	834	1822.667217348664	16
1	836	1832.014805444614	17
1	844	1858.694888047754	17
1	845	1861.810545567815	16
1	847	1863.728023762385	16
1	848	1873.166806897678	16
1	849	1876.360385528229	15
1	850	1881.815646730164	14
1	851	1885.47653540076	13
1	855	1890.325002330053	13
1	860	1892.911421496219	14
1	862	1894.624811958063	14
1	864	1897.909856720685	14
1	865	1899.290377111671	14
1	867	1900.228729364245	14
1	868	1900.699200690915	14
1	870	1902.394972575954	14
1	871	1904.685502999368	14
1	872	1904.741432085848	13
1	873	1905.085232798759	12
1	874	1907.484354042982	11
1	875	1910.602765025334	10
1	876	1918.894654189559	9
1	877	1921.121558806326	8
1	881	1923.105917349807	8
1	883	1936.930188235271	9
1	885	1945.527027404059	10
1	888	1951.529515973467	11
1	889	1954.279533232619	11
1	890	1960.250037453512	10
1	891	1963.389612460654	9
1	895	1978.121877551877	9
1	898	1979.34124746618	10
1	900	1979.762433639967	11
1	902	1980.054325816748	12
1	904	1980.804055573983	13
1	906	1984.075517845662	14
1	907	1987.066226400043	14
1	909	1987.134381859309	14
1	914	2004.51657132158	15
1	921	2013.970244623561	15
1	922	2014.66341986511	14
1	926	2016.414489280249	14
1	928	2019.355225779663	15
1	930	2021.070040950787	15
1	932	2021.296189842671	15
1	934	2027.04262790873	16
1	935	2031.315373805735	16
1	936	2032.139632325056	15
1	937	2034.432565242373	14
1	938	2043.466593303369	13
1	940	2046.560566042738	13
1	941	2046.845648063023	13
1	943	2049.309392990112	13
1	944	2054.279051388354	13
1	945	2061.423469855508	12
1	947	2061.485768394387	12
1	948	2063.552087036475	12
1	952	2066.837198190048	12
1	957	2079.137475032824	13
1	962	2091.48979356888	13
1	963	2101.146217583817	12
1	964	2101.892174848379	11
1	968	2104.013738594891	11
1	973	2116.588981510469	11
1	974	2121.17657288612	10
1	978	2143.986476024907	9
1	985	2153.081210459794	9
1	988	2156.356740043825	10
1	989	2157.40739536253	10
1	990	2160.072291899721	9
1	991	2163.079891716295	8
1	995	2173.045091011533	8
1	997	2173.616005250678	9
1	999	2175.034293339372	10
1	1001	2177.084121156678	11
1	1003	2180.5173811797	12
1	1005	2181.868862810189	13
1	1007	2184.081197996446	13
1	1009	2189.076723022662	13
1	1011	2190.77130714992	14
1	1013	2192.37424995934	15
1	1014	2193.044917181144	15
1	1015	2202.491830076494	14
1	1016	2205.007992472731	13
1	1017	2207.727380090888	12
1	1023	2219.717478738328	12
1	1025	2221.871233968395	13
1	1028	2230.071724645932	14
1	1030	2230.935555957897	15
1	1032	2245.544565242446	15
1	1033	2246.155218048445	14
1	1034	2258.153688366063	13
1	1035	2258.451540017902	12
1	1036	2263.755333232121	11
1	1037	2267.907235688645	10
1	1038	2268.033492008648	9
1	1039	2270.125331305274	8
1	1040	2274.642051915577	7
1	1041	2276.548762604782	6
1	1042	2277.652912043273	5
1	1046	2282.93439780404	5
1	1048	2285.416402302551	6
1	1051	2298.293892914577	7
1	1053	2299.2747170942	8
1	1054	2300.950225015671	8
1	1055	2303.346176666699	7
1	1057	2303.439979488083	7
1	1059	2305.47910729848	8
1	1060	2305.987084904468	8
1	1061	2309.430176229454	7
1	1062	2311.582129802574	6
1	1063	2312.58337040592	5
1	1067	2316.526455336731	4
1	1068	2321.829563210018	3
1	1070	2332.303734596903	3
1	1072	2334.907025363425	4
1	1073	2335.214998912204	4
1	1074	2342.563316081238	3
1	1075	2353.099034995415	2
1	1077	2357.875581853046	2
1	1078	2359.788151724284	2
1	1080	2359.875021229818	2
1	1081	2362.656832900474	2
1	1082	2367.733553234482	1
1	1083	2368.289473448931	0
1	1085	2395.018293745815	0
1	1089	2396.55827791462	1
1	1093	2404.75453472669	2
1	1099	2426.276812347666	3
1	1102	2430.731895255457	4
1	1105	2436.181161132906	5
1	1107	2441.666214032224	6
1	1109	2442.032794299837	7
1	1111	2443.172972015987	8
1	1114	2444.959135336682	9
1	1116	2459.730429016377	9
1	1117	2462.795284012369	8
1	1119	2462.964472082763	8
1	1121	2463.231614912147	9
1	1122	2471.170418927927	9
1	1123	2471.676934938296	8
1	1124	2476.668099954467	7
1	1125	2486.843040434102	6
1	1126	2487.54416709279	5
1	1128	2487.671983780769	5
1	1129	2488.466868754215	5
1	1130	2488.797339629075	4
1	1131	2491.33063605029	3
1	1133	2494.931331030283	3
1	1134	2495.59384219634	3
1	1136	2498.796688845567	3
2	153	353.223842551253	49.487044013717
2	201	410.956700969635	86.051610763664
2	204	413.208680778711	82.843903788734
2	205	413.512307598825	77.088329039221
2	206	414.234442861347	67.26745293516
2	207	415.945752879474	66.906949483768
2	214	444.195542712961	87.920403839487
2	215	446.06656795149	84.534824392175
2	220	458.523393767805	90.969629816463
2	223	464.575130343999	95.604555078906
2	224	467.997337913232	88.069415084999
2	227	474.145652139776	93.839564984334
2	228	479.552929923878	97.471957336433
2	233	493.878973946672	110.94255501389
2	234	497.283137828901	109.77288039772
2	244	520.944060988898	127.48853047395
2	247	523.138348022697	121.80319885143
2	250	530.360443708684	128.87510956039
2	251	533.090974303336	120.96160833065
2	252	534.388596202481	115.89771744531
2	255	535.811073784935	89.279000960847
2	262	547.660020501953	92.241485837279
2	263	548.419109721428	88.93352370022
2	264	549.870396696879	81.828535722465
2	265	551.894087916217	71.65464465679
2	266	553.698366584759	69.383971918863
2	267	557.476955106175	59.3105191125
2	268	557.713437569851	46.106491141307
2	269	558.108911309979	41.712369649548
2	272	569.427063025666	52.397685936252
2	283	575.435209517867	51.729025761982
2	288	587.510373004453	52.43092322441
2	297	609.855762193662	66.931212485771
2	298	619.133840079793	74.628983485906
2	305	637.114662613694	66.956707442486
2	328	677.661866253124	85.819072266512
2	333	687.314830843333	93.822490490497
2	336	693.013007860335	99.190380758781
2	337	705.713763003479	97.112430648037
2	338	705.725298231665	85.734428404001
2	339	709.114143818839	82.162146939374
2	340	709.151423224737	66.650944633393
2	341	710.948484008898	67.578825682531
2	363	774.240099938364	115.51718892053
2	369	785.229181471167	111.72352344759
2	377	809.011560574301	130.95802283272
2	391	829.455301048777	139.63271175876
2	392	831.16475786357	116.44629989082
2	401	849.995005649089	111.88297648674
2	404	860.648071656908	116.38763117315
2	405	863.921087684121	111.03325409505
2	410	871.307788451256	116.4419627572
2	411	872.540176839848	96.101868832275
2	412	874.78285808727	94.848657105872
2	413	875.483573675216	89.160497188528
2	414	876.394826256991	88.271108144106
2	415	878.036136830309	87.445435753995
2	416	880.739472598518	68.913405618152
2	417	892.005653612899	76.057805031437
2	418	892.029950662105	71.585147684855
2	421	895.946029295962	74.557383577181
2	422	896.181332914213	74.447062371791
2	433	913.106860710564	76.521492433564
2	463	966.649857052189	98.001848825455
2	464	972.246800823719	101.54417034981
2	465	972.280269972309	77.590459874113
2	494	1046.041850703855	142.90867929058
2	502	1059.782723242982	142.15972312736
2	503	1063.771804009097	138.81378588
2	506	1071.090163919194	144.12190209006
2	507	1072.166377346822	133.69544552163
2	508	1074.093732460521	135.2688311209
2	509	1075.501240637868	132.15605206551
2	514	1086.126854316792	139.15609496907
2	515	1086.266070333023	134.67179634692
2	518	1091.151384084857	132.78446276073
2	524	1106.721367530401	115.42723711297
2	525	1118.728372725899	110.82392063221
2	526	1120.205689442949	103.64418363673
2	532	1150.023853950317	104.30484689284
2	533	1150.249526412122	104.10775342639
2	534	1150.72377842593	100.21427280452
2	535	1159.619773814619	106.18611490698
2	540	1167.122998458012	99.998875391581
2	541	1167.174096508366	87.026730397444
2	542	1172.242945796499	86.579098945151
2	543	1178.02053477262	87.531246812068
2	544	1181.70972152757	89.608239198385
2	560	1218.256685907421	92.078358464339
2	561	1218.993803566311	78.910420808133
2	562	1220.950121939369	60.336639321821
2	563	1234.150835803651	68.551087662383
2	575	1240.440598091344	55.608291504201
2	578	1245.301761724896	58.930184571336
2	581	1257.776690853833	46.433271713132
2	610	1314.302583153081	78.137924438667
2	611	1315.885318002846	79.093661035527
2	612	1317.50315518797	79.910750648733
2	615	1324.66909131458	84.53492610879
2	616	1329.17985959591	88.084516995288
2	641	1390.235840227385	124.71218274546
2	642	1396.863174656531	131.33154095819
2	648	1403.433118548668	122.06802771421
2	649	1404.456432873299	104.52454882691
2	680	1466.609066571003	161.28635186258
2	683	1484.125192958158	166.33593506005
2	684	1485.978609522838	155.90807112673
2	687	1491.195884840315	156.41408061126
2	711	1536.586218105315	195.09626044821
2	712	1538.130699225044	195.69513418644
2	713	1543.609411463175	176.02466576534
2	723	1559.486281075403	178.56585714524
2	728	1566.652304128456	184.89912070354
2	731	1571.944198097203	173.64455593492
2	732	1575.885105701342	173.58580518292
2	733	1580.1541925183	175.37676600221
2	734	1580.494431336857	168.61082451353
2	735	1591.177187929037	178.51323441295
2	753	1637.209238049594	214.63007711961
2	765	1656.666747226014	209.95827450311
2	768	1668.172281332238	217.34342371253
2	769	1668.244420420765	212.66995681184
2	770	1672.022631286402	216.29163133921
2	771	1675.926336552409	204.65671248818
2	772	1675.952891714	186.905862802
2	775	1679.839281340763	187.82425957624
2	776	1680.168209303457	179.1649581395
2	777	1688.32450769065	173.68111155845
2	780	1692.331741478541	177.21645296401
2	781	1696.509378805591	177.08363824844
2	782	1699.434516805307	174.53609441716
2	785	1712.402316001406	180.87422135272
2	786	1715.183838572487	179.97310752064
2	787	1715.871657564874	172.12936152187
2	792	1729.80383102159	183.5373996606
2	793	1730.234552330557	176.10732293774
2	794	1731.683973469582	174.29438241572
2	804	1743.35644501978	180.56365661493
2	805	1743.571383531631	175.82881240737
2	808	1746.823134283162	148.4838462446
2	809	1747.196416101598	138.00027500528
2	812	1756.208413765155	145.22234698977
2	813	1761.691618725562	144.78739198826
2	814	1765.310454539939	142.01099564422
2	815	1766.776852658381	142.78746422224
2	819	1789.169957574356	158.59450271808
2	820	1792.168114075639	151.74491000184
2	821	1794.221448067532	145.03458637565
2	824	1797.7793249191	148.18585047941
2	827	1805.853570652573	151.17457551924
2	830	1820.176266124317	165.2515017036
2	844	1858.694888047754	182.21760423268
2	845	1861.810545567815	171.04226416667
2	848	1873.166806897678	165.97374237131
2	849	1876.360385528229	150.14473727923
2	850	1881.815646730164	152.47008324013
2	851	1885.47653540076	150.00916542051
2	862	1894.624811958063	153.37267718769
2	865	1899.290377111671	155.04887612693
2	868	1900.699200690915	147.88415898786
2	871	1904.685502999368	137.35498413717
2	872	1904.741432085848	107.53284088509
2	873	1905.085232798759	100.59952333754
2	874	1907.484354042982	90.459557934706
2	875	1910.602765025334	88.306411313207
2	876	1918.894654189559	96.227436840895
2	877	1921.121558806326	89.106753361712
2	889	1954.279533232619	66.456282392212
2	890	1960.250037453512	69.925035123459
2	891	1963.389612460654	72.17133964424
2	907	1987.066226400043	89.156369679358
2	921	2013.970244623561	92.302021096408
2	922	2014.66341986511	91.557502515303
2	930	2021.070040950787	75.543013546728
2	935	2031.315373805735	79.785857832268
2	936	2032.139632325056	64.743198181621
2	937	2034.432565242373	56.310687690496
2	938	2043.466593303369	64.125345837189
2	941	2046.845648063023	67.083214423056
2	944	2054.279051388354	74.224725571606
2	945	2061.423469855508	80.619414281525
2	948	2063.552087036475	79.476569190813
2	962	2091.48979356888	98.219035777397
2	963	2101.146217583817	96.629646262237
2	964	2101.892174848379	96.467091554952
2	973	2116.588981510469	97.233755730806
2	974	2121.17657288612	99.880383043449
2	978	2143.986476024907	97.425909982169
2	989	2157.40739536253	92.844132488347
2	990	2160.072291899721	93.235093709673
2	991	2163.079891716295	83.942416683471
2	1007	2184.081197996446	80.067459401555
2	1014	2193.044917181144	82.709178771298
2	1015	2202.491830076494	77.447090035189
2	1016	2205.007992472731	60.782867117285
2	1017	2207.727380090888	57.200322648111
2	1032	2245.544565242446	89.187825198621
2	1033	2246.155218048445	83.011704913204
2	1034	2258.153688366063	85.10859735453
2	1035	2258.451540017902	84.835534767224
2	1036	2263.755333232121	88.721039892749
2	1037	2267.907235688645	90.823114531967
2	1038	2268.033492008648	87.516110828948
2	1039	2270.125331305274	88.256468495085
2	1040	2274.642051915577	85.565328892915
2	1041	2276.548762604782	85.777455454862
2	1042	2277.652912043273	85.278662083933
2	1054	2300.950225015671	81.232746277343
2	1055	2303.346176666699	81.474942698304
2	1060	2305.987084904468	75.915360258536
2	1061	2309.430176229454	78.494620271557
2	1062	2311.582129802574	33.702034938934
2	1063	2312.58337040592	29.64897260188
2	1067	2316.526455336731	18.232562422154
2	1068	2321.829563210018	22.554846115818
2	1073	2335.214998912204	31.775019424121
2	1074	2342.563316081238	37.084208782758
2	1075	2353.099034995415	38.692433157113
2	1078	2359.788151724284	27.484417127381
2	1081	2362.656832900474	27.749807537049
2	1082	2367.733553234482	9.857971381436
2	1083	2368.289473448931	8.414452219113
2	1116	2459.730429016377	63.57767818652
2	1117	2462.795284012369	66.237006097749
2	1122	2471.170418927927	66.415884201237
2	1123	2471.676934938296	45.40012259063
2	1124	2476.668099954467	45.93620469901
2	1125	2486.843040434102	50.661879301196
2	1126	2487.54416709279	45.877953060566
2	1129	2488.466868754215	46.434074454378
2	1130	2488.797339629075	45.624367613088
2	1131	2491.33063605029	46.371500713608
2	1134	2495.59384219634	32.629370113577
3	153	353.223842551253	33.919118369486
3	200	409.095771916698	84.190681710727
3	201	410.956700969635	80.591923979658
3	204	413.208680778711	76.784702219107
3	205	413.512307598825	66.545317672638
3	206	414.234442861347	65.195639465641
3	207	415.945752879474	62.453561545619
3	213	439.430015124644	83.15487625117
3	214	444.195542712961	82.663799153646
3	215	446.06656795149	78.512804000148
3	220	458.523393767805	89.552818502712
3	223	464.575130343999	84.647207515766
3	224	467.997337913232	87.69125075779
3	227	474.145652139776	92.064679552331
3	228	479.552929923878	96.616510991092
3	233	493.878973946672	106.36871651549
3	234	497.283137828901	107.37201828309
3	237	505.873773467992	112.41824295304
3	244	520.944060988898	119.60891181763
3	247	523.138348022697	121.6530138744
3	250	530.360443708684	118.231077736
3	251	533.090974303336	114.60009554617
3	252	534.388596202481	87.856523378393
3	255	535.811073784935	80.392539120261
3	262	547.660020501953	88.174434480745
3	263	548.419109721428	80.377248747014
3	264	549.870396696879	69.630953437452
3	265	551.894087916217	67.579693250321
3	266	553.698366584759	55.531930591084
3	267	557.476955106175	45.870008677631
3	268	557.713437569851	41.31689590942
3	269	558.108911309979	41.079534220565
3	272	569.427063025666	47.262047282699
3	282	574.289550401185	50.5833666453
3	283	575.435209517867	40.355759737824
3	288	587.510373004453	44.585823296562
3	297	609.855762193662	65.350905599775
3	298	619.133840079793	74.032576134383
3	301	625.271401307817	64.621387503192
3	304	636.397180873239	66.239225702031
3	305	637.114662613694	65.610694201523
3	310	643.858680771533	71.973258094852
3	315	650.586335774137	74.054665730545
3	320	660.267819712264	74.226541512483
3	323	673.032213882216	81.189419895604
3	328	677.661866253124	84.169525900288
3	333	687.314830843333	93.492203741779
3	336	693.013007860335	84.411675504893
3	337	705.713763003479	85.722893175815
3	338	705.725298231665	78.7733013522
3	339	709.114143818839	66.613665227495
3	340	709.151423224737	65.78176489837
3	341	710.948484008898	65.394716202693
3	347	720.057909763009	71.224657245895
3	352	744.007299994824	87.648422535041
3	362	758.015291861637	99.292380843807
3	363	774.240099938364	103.34252423178
3	368	782.732592828247	109.22693480467
3	369	785.229181471167	110.56472865034
3	376	804.640923047044	126.58738530546
3	377	809.011560574301	129.73529001493
3	388	827.085950334168	137.26336104415
3	391	829.455301048777	114.73684307602
3	392	831.16475786357	108.35271431018
3	400	849.943988922082	111.83195975974
3	401	849.995005649089	105.73456516533
3	404	860.648071656908	107.76023806783
3	405	863.921087684121	109.05526199006
3	410	871.307788451256	94.869480443683
3	411	872.540176839848	92.60597585845
3	412	874.78285808727	88.459781600582
3	413	875.483573675216	87.359855562331
3	414	876.394826256991	85.804125180677
3	415	878.036136830309	66.210069849943
3	416	880.739472598518	64.791624017056
3	417	892.005653612899	71.560850635649
3	418	892.029950662105	70.641304943324
3	421	895.946029295962	74.21175875354
3	422	896.181332914213	67.289538818884
3	432	907.195848383631	70.610480106631
3	433	913.106860710564	72.411256158449
3	443	932.481562072145	75.225231272433
3	462	962.455108305734	93.807100079
3	463	966.649857052189	95.947226578281
3	464	972.246800823719	77.556990725523
3	465	972.280269972309	74.008533927225
3	491	1045.492398257608	142.35922684433
3	494	1046.041850703855	139.25475144524
3	501	1055.632318184165	138.00931806855
3	502	1059.782723242982	134.82470511388
3	503	1063.771804009097	136.80354217997
3	506	1071.090163919194	132.619232094
3	507	1072.166377346822	133.3414760072
3	508	1074.093732460521	130.74854388816
3	509	1075.501240637868	128.53048129014
3	514	1086.126854316792	134.53258033069
3	515	1086.266070333023	127.8991490089
3	518	1091.151384084857	115.28717829234
3	523	1106.245500727506	114.95137031007
3	524	1106.721367530401	98.816915436712
3	525	1118.728372725899	102.16686691968
3	526	1120.205689442949	96.519542994699
3	531	1145.222944813624	99.503937756146
3	532	1150.023853950317	103.88208096459
3	533	1150.249526412122	99.740020790711
3	534	1150.72377842593	97.290119518294
3	535	1159.619773814619	92.495650748188
3	540	1167.122998458012	86.97563234709
3	541	1167.174096508366	81.510249657018
3	542	1172.242945796499	81.753657835947
3	543	1178.02053477262	85.919052443435
3	544	1181.70972152757	79.144465097094
3	559	1217.875983199745	91.697655756663
3	560	1218.256685907421	78.173303149243
3	561	1218.993803566311	58.380320948763
3	562	1220.950121939369	55.350373798101
3	563	1234.150835803651	52.355179379085
3	572	1237.86931330908	53.037006721937
3	575	1240.440598091344	54.069020937784
3	578	1245.301761724896	33.958342584195
3	581	1257.776690853833	22.679517231313
3	609	1307.750464646705	71.585805932291
3	610	1314.302583153081	77.510926185762
3	611	1315.885318002846	78.292913463609
3	612	1317.50315518797	77.36898998218
3	615	1324.66909131458	83.573748713958
3	616	1329.17985959591	74.047166459491
3	623	1340.281399189762	78.860663265418
3	633	1375.256703761937	111.27755320475
3	640	1389.491434289944	123.96777680802
3	641	1390.235840227385	124.70420652904
3	642	1396.863174656531	127.19082967219
3	645	1398.49252239422	117.12743155976
3	648	1403.433118548668	103.50123450227
3	649	1404.456432873299	99.731827029752
3	679	1458.387900814583	153.06518610616
3	680	1466.609066571003	148.81980867289
3	683	1484.125192958158	154.05465456205
3	684	1485.978609522838	151.19680529378
3	687	1491.195884840315	151.79193438983
3	708	1535.035157525196	193.54519986809
3	711	1536.586218105315	194.15065306672
3	712	1538.130699225044	170.54595352721
3	713	1543.609411463175	168.29982595877
3	718	1547.595527893521	166.67510396336
3	723	1559.486281075403	177.73309765048
3	728	1566.652304128456	168.35266196617
3	731	1571.944198097203	169.64489757879
3	732	1575.885105701342	171.10767918525
3	733	1580.1541925183	168.27058569497
3	734	1580.494431336857	167.83047782077
3	735	1591.177187929037	169.36630965013
3	752	1636.871570911999	214.29240998201
3	753	1637.209238049594	210.27692524497
3	760	1654.006904755885	207.29843203298
3	765	1656.666747226014	205.8378896063
3	768	1668.172281332238	212.59781772332
3	769	1668.244420420765	212.51342047358
3	770	1672.022631286402	200.75300722218
3	771	1675.926336552409	186.87930764041
3	772	1675.952891714	183.93786994948
3	775	1679.839281340763	178.83603017681
3	776	1680.168209303457	165.52481317126
3	777	1688.32450769065	173.20921917612
3	780	1692.331741478541	172.90600092139
3	781	1696.509378805591	171.61095641744
3	782	1699.434516805307	167.90642215662
3	785	1712.402316001406	177.19158494956
3	786	1715.183838572487	171.44154252948
3	787	1715.871657564874	169.60522620388
3	792	1729.80383102159	175.67660162878
3	793	1730.234552330557	172.84496127669
3	794	1731.683973469582	172.17328030805
3	797	1736.585951457572	173.79316305272
3	804	1743.35644501978	175.61387389552
3	805	1743.571383531631	145.23209549307
3	808	1746.823134283162	137.62699318685
3	809	1747.196416101598	136.21034932621
3	812	1756.208413765155	139.30418702785
3	813	1761.691618725562	138.39215982984
3	814	1765.310454539939	141.3210661038
3	815	1766.776852658381	140.68139767521
3	818	1786.143054395339	155.56759953906
3	819	1789.169957574356	148.74675350056
3	820	1792.168114075639	142.98125238376
3	821	1794.221448067532	144.62797362784
3	824	1797.7793249191	143.10032978577
3	827	1805.853570652573	150.92880623185
3	830	1820.176266124317	159.74817854667
3	843	1854.644599813605	178.16731599853
3	844	1858.694888047754	167.92660664661
3	845	1861.810545567815	154.61748104145
3	848	1873.166806897678	146.95115864868
3	849	1876.360385528229	147.01482203819
3	850	1881.815646730164	146.34827674991
3	851	1885.47653540076	147.98608001151
3	856	1890.989732533903	150.73480987777
3	861	1894.140231233449	152.88809646307
3	862	1894.624811958063	150.38331097332
3	865	1899.290377111671	146.47533540862
3	868	1900.699200690915	133.36868182872
3	871	1904.685502999368	107.47691179861
3	872	1904.741432085848	100.25572262463
3	873	1905.085232798759	88.060436690483
3	874	1907.484354042982	85.188000330855
3	875	1910.602765025334	87.93554767667
3	876	1918.894654189559	86.879848744945
3	877	1921.121558806326	57.393535043941
3	886	1947.105003033353	59.281752192946
3	889	1954.279533232619	63.954530902566
3	890	1960.250037453512	69.031764637098
3	891	1963.389612460654	70.478190964435
3	896	1978.758818508911	80.848961788226
3	907	1987.066226400043	86.837497035798
3	912	2003.756049662211	101.36107708626
3	920	2011.979253420491	90.311029893338
3	921	2013.970244623561	90.864327273754
3	922	2014.66341986511	77.733231629839
3	929	2020.556684739468	75.029657335409
3	930	2021.070040950787	69.54052497732
3	935	2031.315373805735	63.9189396623
3	936	2032.139632325056	54.017754773179
3	937	2034.432565242373	55.091317776193
3	938	2043.466593303369	63.704159663402
3	941	2046.845648063023	66.791322246275
3	944	2054.279051388354	73.474995814371
3	945	2061.423469855508	77.347952009846
3	948	2063.552087036475	76.417705177166
3	961	2091.157313556532	97.886555765049
3	962	2091.48979356888	86.9732222473
3	963	2101.146217583817	95.72113429039
3	964	2101.892174848379	86.941256954761
3	969	2104.310803662381	87.896314382132
3	972	2112.522387209838	93.167161430175
3	973	2116.588981510469	95.292791667798
3	974	2121.17657288612	94.13394497739
3	977	2136.100931585843	89.540365543105
3	978	2143.986476024907	94.677083034795
3	981	2146.421497905544	84.935729511157
3	986	2155.88537224925	91.322109375067
3	989	2157.40739536253	90.570197172482
3	990	2160.072291899721	80.934816866897
3	991	2163.079891716295	59.733304137627
3	1006	2182.288406344815	78.274667749924
3	1007	2184.081197996446	73.7454595866
3	1014	2193.044917181144	68.000177139839
3	1015	2202.491830076494	58.266704721048
3	1016	2205.007992472731	54.480935029954
3	1017	2207.727380090888	54.646169631094
3	1031	2237.567830569629	81.211090525804
3	1032	2245.544565242446	82.401052107205
3	1033	2246.155218048445	73.110127036912
3	1034	2258.153688366063	84.537683115385
3	1035	2258.451540017902	83.41724667853
3	1036	2263.755333232121	86.671212075443
3	1037	2267.907235688645	87.389854508945
3	1038	2268.033492008648	86.164629198459
3	1039	2270.125331305274	81.048608282612
3	1040	2274.642051915577	83.870744765657
3	1041	2276.548762604782	84.174512645442
3	1042	2277.652912043273	66.955517790669
3	1049	2297.264069063714	77.546590325386
3	1054	2300.950225015671	79.078991047276
3	1055	2303.346176666699	73.274452020767
3	1060	2305.987084904468	75.051528946571
3	1061	2309.430176229454	31.550081365814
3	1062	2311.582129802574	28.647731998534
3	1063	2312.58337040592	27.166968103369
3	1066	2315.484610134357	17.19071721978
3	1067	2316.526455336731	17.251738242531
3	1068	2321.829563210018	18.389583721935
3	1073	2335.214998912204	29.735891613724
3	1074	2342.563316081238	28.156714242936
3	1075	2353.099034995415	20.795300398512
3	1078	2359.788151724284	24.881126360859
3	1081	2362.656832900474	4.781251047428
3	1082	2367.733553234482	7.858532004664
3	1085	2395.018293745815	0
3	1115	2452.127965234678	55.975214404821
3	1116	2459.730429016377	63.172151101757
3	1117	2462.795284012369	58.040749285679
3	1122	2471.170418927927	44.893606580261
3	1123	2471.676934938296	40.945039682839
3	1124	2476.668099954467	40.486938821561
3	1125	2486.843040434102	45.176826401878
3	1126	2487.54416709279	45.511372792953
3	1129	2488.466868754215	45.293896738228
3	1130	2488.797339629075	43.838204292393
3	1131	2491.33063605029	28.366163967527
3	1134	2495.59384219634	32.362227284193
4	155	353.492191333855	1
4	159	361.358890033519	2
4	166	368.78043457168	2
4	175	380.352000414881	2
4	184	388.861516406107	2
4	188	391.757141693541	3
4	192	400.427176001047	4
4	209	418.490878757168	1
4	211	421.634878531556	2
4	236	498.166435993675	1
4	274	570.157955171208	1
4	280	572.013697630046	2
4	300	619.990869827664	1
4	303	626.951996879465	1
4	309	643.369658326367	1
4	314	648.833252517114	1
4	317	656.358877459783	1
4	322	670.89757570658	1
4	343	714.718457972752	1
4	345	715.659682895607	2
4	351	738.112029162346	1
4	354	744.260440483758	1
4	358	754.18205261004	2
4	365	776.438308007573	1
4	375	790.590701076314	1
4	387	821.734270542422	1
4	394	836.585368277	1
4	398	845.649693670463	2
4	424	898.271736045084	1
4	426	900.679632703256	2
4	435	917.623000115617	1
4	437	921.272436396995	2
4	449	943.345188572361	1
4	451	943.713555040912	2
4	453	944.787028829265	3
4	467	975.864205792521	1
4	469	983.786107803526	2
4	472	990.276985011205	2
4	476	991.438078315617	3
4	486	1031.498604334519	2
4	489	1035.463420870607	2
4	498	1050.509505621411	1
4	522	1102.565256430476	1
4	528	1126.178327443082	1
4	546	1181.795656424566	1
4	548	1182.879317771439	2
4	555	1207.921071308651	2
4	571	1237.592404539237	1
4	585	1263.979150557185	1
4	591	1268.471674512885	2
4	595	1280.860231261121	3
4	597	1281.213159268324	4
4	620	1334.781804229055	1
4	627	1342.435565038599	1
4	629	1352.867238912116	2
4	635	1375.309585504405	1
4	644	1398.299642162285	1
4	651	1404.77742651609	1
4	661	1425.76906201151	2
4	665	1430.384050855711	3
4	671	1448.648219502481	2
4	689	1492.015021764522	1
4	691	1497.036609395997	2
4	702	1523.329877500482	2
4	717	1546.266431360994	1
4	737	1598.33928803856	1
4	755	1640.4232040738	1
4	796	1735.467369980249	1
4	817	1767.330518862194	1
4	832	1822.296353712127	1
4	838	1833.60911008917	2
4	840	1837.832209965198	3
4	853	1887.823250840407	1
4	858	1891.218272816414	1
4	879	1921.668223527153	1
4	893	1967.396434143435	1
4	911	1993.270757791483	1
4	916	2005.425083293427	1
4	918	2008.092390160378	2
4	924	2014.950917893618	1
4	950	2064.563262874183	1
4	954	2069.515851758278	2
4	959	2079.326869143163	2
4	966	2103.346587578668	1
4	971	2110.335738409846	1
4	976	2125.044740041305	1
4	980	2144.225125355446	1
4	983	2150.527057442777	1
4	993	2163.143513135241	1
4	1019	2210.697394252604	1
4	1021	2216.593915740708	2
4	1044	2277.88009486364	1
4	1065	2314.406601838302	1
4	1087	2396.152750829857	1
4	1091	2400.088119842539	2
4	1095	2414.679708258506	3
4	1097	2419.832186906069	4
5	155	353.492191333855	0
5	159	361.358890033519	1
5	162	362.408018322216	1
5	166	368.78043457168	1
5	169	378.037431471048	1
5	175	380.352000414881	1
5	180	384.72775032375	1
5	184	388.861516406107	1
5	188	391.757141693541	2
5	192	400.427176001047	3
5	197	402.927587216792	3
5	198	404.843350345216	2
5	199	406.634431761991	1
5	200	409.095771916698	0
5	209	418.490878757168	0
5	211	421.634878531556	1
5	212	429.024348734246	1
5	213	439.430015124644	0
5	236	498.166435993675	0
5	237	505.873773467992	0
5	274	570.157955171208	0
5	280	572.013697630046	1
5	281	573.032528289539	1
5	282	574.289550401185	0
5	300	619.990869827664	0
5	301	625.271401307817	0
5	303	626.951996879465	0
5	304	636.397180873239	0
5	309	643.369658326367	0
5	310	643.858680771533	0
5	314	648.833252517114	0
5	315	650.586335774137	0
5	317	656.358877459783	0
5	320	660.267819712264	0
5	322	670.89757570658	0
5	323	673.032213882216	0
5	343	714.718457972752	0
5	345	715.659682895607	1
5	346	718.174419991925	1
5	347	720.057909763009	0
5	351	738.112029162346	0
5	352	744.007299994824	0
5	354	744.260440483758	0
5	358	754.18205261004	1
5	361	757.393613920389	1
5	362	758.015291861637	0
5	365	776.438308007573	0
5	368	782.732592828247	0
5	375	790.590701076314	0
5	376	804.640923047044	0
5	387	821.734270542422	0
5	388	827.085950334168	0
5	394	836.585368277	0
5	398	845.649693670463	1
5	399	849.631068229514	1
5	400	849.943988922082	0
5	424	898.271736045084	0
5	426	900.679632703256	1
5	429	906.590334420862	1
5	432	907.195848383631	0
5	435	917.623000115617	0
5	437	921.272436396995	1
5	442	930.144880466882	1
5	443	932.481562072145	0
5	449	943.345188572361	0
5	451	943.713555040912	1
5	453	944.787028829265	2
5	458	952.07644946577	2
5	459	952.26248075233	1
5	462	962.455108305734	0
5	467	975.864205792521	0
5	469	983.786107803526	1
5	470	988.011144290727	1
5	472	990.276985011205	1
5	476	991.438078315617	2
5	477	1003.868296135427	2
5	480	1014.51407199108	1
5	486	1031.498604334519	1
5	487	1034.877169321557	1
5	489	1035.463420870607	1
5	490	1041.184693709017	1
5	491	1045.492398257608	0
5	498	1050.509505621411	0
5	501	1055.632318184165	0
5	522	1102.565256430476	0
5	523	1106.245500727506	0
5	528	1126.178327443082	0
5	531	1145.222944813624	0
5	546	1181.795656424566	0
5	548	1182.879317771439	1
5	553	1191.052098041676	1
5	555	1207.921071308651	1
5	558	1213.221472217445	1
5	559	1217.875983199745	0
5	571	1237.592404539237	0
5	572	1237.86931330908	0
5	585	1263.979150557185	0
5	591	1268.471674512885	1
5	595	1280.860231261121	2
5	597	1281.213159268324	3
5	600	1283.913597668224	3
5	601	1294.487123122516	2
5	608	1306.920963786636	1
5	609	1307.750464646705	0
5	620	1334.781804229055	0
5	623	1340.281399189762	0
5	627	1342.435565038599	0
5	629	1352.867238912116	1
5	630	1354.288064516042	1
5	633	1375.256703761937	0
5	635	1375.309585504405	0
5	640	1389.491434289944	0
5	644	1398.299642162285	0
5	645	1398.49252239422	0
5	651	1404.77742651609	0
5	661	1425.76906201151	1
5	665	1430.384050855711	2
5	666	1430.653616283374	2
5	667	1436.770637178763	1
5	671	1448.648219502481	1
5	678	1456.535276549652	1
5	679	1458.387900814583	0
5	689	1492.015021764522	0
5	691	1497.036609395997	1
5	698	1516.459390710709	1
5	702	1523.329877500482	1
5	707	1534.966509559134	1
5	708	1535.035157525196	0
5	717	1546.266431360994	0
5	718	1547.595527893521	0
5	737	1598.33928803856	0
5	752	1636.871570911999	0
5	755	1640.4232040738	0
5	760	1654.006904755885	0
5	796	1735.467369980249	0
5	797	1736.585951457572	0
5	817	1767.330518862194	0
5	818	1786.143054395339	0
5	832	1822.296353712127	0
5	838	1833.60911008917	1
5	840	1837.832209965198	2
5	841	1851.519038953612	2
5	842	1853.435311038704	1
5	843	1854.644599813605	0
5	853	1887.823250840407	0
5	856	1890.989732533903	0
5	858	1891.218272816414	0
5	861	1894.140231233449	0
5	879	1921.668223527153	0
5	886	1947.105003033353	0
5	893	1967.396434143435	0
5	896	1978.758818508911	0
5	911	1993.270757791483	0
5	912	2003.756049662211	0
5	916	2005.425083293427	0
5	918	2008.092390160378	1
5	919	2008.168920999383	1
5	920	2011.979253420491	0
5	924	2014.950917893618	0
5	929	2020.556684739468	0
5	950	2064.563262874183	0
5	954	2069.515851758278	1
5	955	2069.925341720155	1
5	959	2079.326869143163	1
5	960	2089.361037306944	1
5	961	2091.157313556532	0
5	966	2103.346587578668	0
5	969	2104.310803662381	0
5	971	2110.335738409846	0
5	972	2112.522387209838	0
5	976	2125.044740041305	0
5	977	2136.100931585843	0
5	980	2144.225125355446	0
5	981	2146.421497905544	0
5	983	2150.527057442777	0
5	986	2155.88537224925	0
5	993	2163.143513135241	0
5	1006	2182.288406344815	0
5	1019	2210.697394252604	0
5	1021	2216.593915740708	1
5	1026	2225.889025151375	1
5	1031	2237.567830569629	0
5	1044	2277.88009486364	0
5	1049	2297.264069063714	0
5	1065	2314.406601838302	0
5	1066	2315.484610134357	0
5	1087	2396.152750829857	0
5	1091	2400.088119842539	1
5	1095	2414.679708258506	2
5	1097	2419.832186906069	3
5	1100	2427.874396995167	3
5	1103	2431.830430256003	2
5	1112	2443.439126560183	1
5	1115	2452.127965234678	0
6	155	353.492191333855	8
6	209	418.490878757168	9
6	236	498.166435993675	10
6	274	570.157955171208	11
6	300	619.990869827664	12
6	303	626.951996879465	13
6	309	643.369658326367	14
6	314	648.833252517114	15
6	317	656.358877459783	16
6	322	670.89757570658	17
6	343	714.718457972752	18
6	351	738.112029162346	19
6	354	744.260440483758	20
6	365	776.438308007573	21
6	375	790.590701076314	22
6	387	821.734270542422	23
6	394	836.585368277	24
6	424	898.271736045084	25
6	435	917.623000115617	26
6	449	943.345188572361	27
6	467	975.864205792521	28
6	498	1050.509505621411	29
6	522	1102.565256430476	30
6	528	1126.178327443082	31
6	546	1181.795656424566	32
6	571	1237.592404539237	33
6	585	1263.979150557185	34
6	620	1334.781804229055	35
6	627	1342.435565038599	36
6	635	1375.309585504405	37
6	644	1398.299642162285	38
6	651	1404.77742651609	39
6	689	1492.015021764522	40
6	717	1546.266431360994	41
6	737	1598.33928803856	42
6	755	1640.4232040738	43
6	796	1735.467369980249	44
6	817	1767.330518862194	45
6	832	1822.296353712127	46
6	853	1887.823250840407	47
6	858	1891.218272816414	48
6	879	1921.668223527153	49
6	893	1967.396434143435	50
6	911	1993.270757791483	51
6	916	2005.425083293427	52
6	924	2014.950917893618	53
6	950	2064.563262874183	54
6	966	2103.346587578668	55
6	971	2110.335738409846	56
6	976	2125.044740041305	57
6	980	2144.225125355446	58
6	983	2150.527057442777	59
6	993	2163.143513135241	60
6	1019	2210.697394252604	61
6	1044	2277.88009486364	62
6	1065	2314.406601838302	63
6	1087	2396.152750829857	64
7	155	353.492191333855	0
7	162	362.408018322216	1.049128288697
7	169	378.037431471048	9.256996899368
7	180	384.72775032375	4.375749908869
7	197	402.927587216792	14.066070810685
7	198	404.843350345216	13.086208651675
7	199	406.634431761991	6.207255760944
7	209	418.490878757168	0
7	212	429.024348734246	7.38947020269
7	236	498.166435993675	0
7	274	570.157955171208	0
7	281	573.032528289539	1.018830659493
7	300	619.990869827664	0
7	303	626.951996879465	0
7	309	643.369658326367	0
7	314	648.833252517114	0
7	317	656.358877459783	0
7	322	670.89757570658	0
7	343	714.718457972752	0
7	346	718.174419991925	2.514737096318
7	351	738.112029162346	0
7	354	744.260440483758	0
7	361	757.393613920389	3.211561310349
7	365	776.438308007573	0
7	375	790.590701076314	0
7	387	821.734270542422	0
7	394	836.585368277	0
7	399	849.631068229514	3.981374559051
7	424	898.271736045084	0
7	429	906.590334420862	5.910701717606
7	435	917.623000115617	0
7	442	930.144880466882	8.872444069887
7	449	943.345188572361	0
7	458	952.07644946577	8.362894424858
7	459	952.26248075233	7.475451923065
7	467	975.864205792521	0
7	470	988.011144290727	4.225036487201
7	477	1003.868296135427	13.591311124222
7	480	1014.51407199108	23.075993675463
7	487	1034.877169321557	3.378564987038
7	490	1041.184693709017	5.72127283841
7	498	1050.509505621411	0
7	522	1102.565256430476	0
7	528	1126.178327443082	0
7	546	1181.795656424566	0
7	553	1191.052098041676	8.172780270237
7	558	1213.221472217445	5.300400908794
7	571	1237.592404539237	0
7	585	1263.979150557185	0
7	600	1283.913597668224	15.441923155339
7	601	1294.487123122516	13.626891861395
7	608	1306.920963786636	25.707804518312
7	620	1334.781804229055	0
7	627	1342.435565038599	0
7	630	1354.288064516042	1.420825603926
7	635	1375.309585504405	0
7	644	1398.299642162285	0
7	651	1404.77742651609	0
7	666	1430.653616283374	4.884554271864
7	667	1436.770637178763	6.386586323052
7	678	1456.535276549652	7.887057047171
7	689	1492.015021764522	0
7	698	1516.459390710709	19.422781314712
7	707	1534.966509559134	11.636632058652
7	717	1546.266431360994	0
7	737	1598.33928803856	0
7	755	1640.4232040738	0
7	796	1735.467369980249	0
7	817	1767.330518862194	0
7	832	1822.296353712127	0
7	841	1851.519038953612	17.909928864442
7	842	1853.435311038704	15.603101073506
7	853	1887.823250840407	0
7	858	1891.218272816414	0
7	879	1921.668223527153	0
7	893	1967.396434143435	0
7	911	1993.270757791483	0
7	916	2005.425083293427	0
7	919	2008.168920999383	0.076530839005
7	924	2014.950917893618	0
7	950	2064.563262874183	0
7	955	2069.925341720155	0.409489961877
7	960	2089.361037306944	10.034168163781
7	966	2103.346587578668	0
7	971	2110.335738409846	0
7	976	2125.044740041305	0
7	980	2144.225125355446	0
7	983	2150.527057442777	0
7	993	2163.143513135241	0
7	1019	2210.697394252604	0
7	1026	2225.889025151375	9.295109410667
7	1044	2277.88009486364	0
7	1065	2314.406601838302	0
7	1087	2396.152750829857	0
7	1100	2427.874396995167	27.786277152628
7	1103	2431.830430256003	17.150721997497
7	1112	2443.439126560183	23.606939654114
8	157	356.275138873474	7
8	161	361.531743559315	8
8	164	367.553763951342	9
8	168	368.970575265093	10
8	171	379.927922828233	11
8	173	380.306087155442	12
8	177	382.080972587445	13
8	179	382.936418932786	14
8	182	387.510257431181	15
8	186	389.911119545815	16
8	190	393.455530514951	17
8	194	401.335149171264	18
8	196	401.485334148296	19
8	203	412.129365972685	19
8	217	446.532072824088	14
8	219	455.418534664674	15
8	222	459.485586021208	15
8	226	468.041860974414	14
8	230	480.239443259427	13
8	232	484.314394665896	14
8	239	511.606946428544	13
8	241	516.396541660431	14
8	243	517.029377089414	15
8	246	522.165015742967	15
8	249	523.706183755885	15
8	254	535.079449780043	13
8	257	542.924549707891	13
8	259	544.504856593887	14
8	261	545.10126394541	15
8	271	560.650013804625	8
8	276	571.503968412171	8
8	278	571.885422676681	9
8	285	576.531670043592	9
8	287	586.041278199781	10
8	290	591.842793986612	10
8	292	593.492340352836	11
8	294	593.822627101554	12
8	296	608.601332355442	13
8	307	642.500478591344	11
8	312	645.553767806205	12
8	319	658.72291101783	13
8	325	673.50565802358	14
8	327	674.664452820824	15
8	330	678.053537741583	15
8	332	679.276270559373	16
8	335	689.822589290019	16
8	349	722.812043553386	11
8	356	752.887833589075	12
8	360	754.865825694057	13
8	367	779.934200981398	13
8	371	786.323076486688	13
8	373	788.123718112885	14
8	379	811.826066980366	14
8	381	815.947848581462	15
8	383	820.44480297725	16
8	385	821.388645718781	17
8	390	828.891794095329	18
8	396	840.695604552115	17
8	403	857.256330799712	17
8	407	868.648008226734	16
8	409	870.702630473908	17
8	420	894.689810098196	9
8	428	903.133171413273	8
8	431	906.787099258618	9
8	439	924.958018129097	9
8	441	926.96826182913	10
8	445	938.47093182519	11
8	447	938.824901339621	12
8	455	946.970759347724	13
8	457	951.594273986105	14
8	461	958.366921324126	15
8	474	991.294130417434	13
8	479	1007.904452093689	14
8	482	1016.561505806223	15
8	484	1023.68614644825	16
8	493	1045.719007057478	17
8	496	1046.141772985728	17
8	500	1053.433658907636	18
8	505	1067.124123066431	17
8	511	1080.147366110922	14
8	513	1085.663846851348	15
8	517	1090.489287960552	14
8	520	1092.101482329185	14
8	530	1140.083382758178	12
8	537	1160.613482617548	9
8	539	1165.599748141268	10
8	550	1184.832306587143	6
8	552	1186.37157715356	7
8	557	1211.343419140701	8
8	565	1235.09717362252	5
8	567	1236.164658714414	6
8	569	1236.791656967319	7
8	574	1240.13416520579	8
8	577	1241.095342600622	8
8	580	1255.132693136419	8
8	583	1261.420735924344	8
8	587	1265.523657481921	9
8	589	1265.53163369834	10
8	593	1269.672344984342	11
8	599	1281.365090834462	12
8	603	1299.931884046393	13
8	605	1304.724605843547	14
8	607	1305.322714708422	15
8	614	1317.789257898108	13
8	618	1330.070538396107	12
8	622	1339.403950450485	13
8	625	1341.489957657103	14
8	632	1367.584745697833	15
8	637	1380.920423930158	16
8	639	1381.753183424919	17
8	647	1402.299300518417	16
8	653	1411.883606823326	15
8	655	1412.663953516089	16
8	657	1421.810878278908	17
8	659	1422.579160929986	18
8	663	1426.932312804626	19
8	669	1446.708472722902	20
8	673	1450.82885761971	21
8	675	1455.574463608922	22
8	677	1455.730999947189	23
8	682	1471.269624064226	23
8	686	1489.047028911997	22
8	693	1501.003251163954	22
8	695	1514.643396132198	23
8	697	1515.115288514532	24
8	700	1519.425740557147	25
8	704	1524.898422388147	26
8	706	1531.528094648684	27
8	710	1535.210731051848	28
8	715	1543.742296043003	26
8	720	1554.127229392814	27
8	722	1557.389591053862	28
8	725	1559.510693161534	28
8	727	1562.792788404847	29
8	730	1567.742571124257	29
8	739	1609.196141096314	25
8	741	1610.986066775387	26
8	743	1616.904226737302	27
8	745	1623.299458895717	28
8	747	1623.989388436137	29
8	749	1626.095454983176	30
8	751	1630.575454856278	31
8	757	1649.186861691882	31
8	759	1649.593474439688	32
8	762	1654.678995133334	33
8	764	1654.924764420721	34
8	767	1660.428087577648	34
8	774	1676.477283815076	30
8	779	1690.768281401143	28
8	784	1707.193064526369	26
8	789	1726.215648249001	24
8	791	1729.345563490037	25
8	799	1737.490455389247	23
8	801	1740.254922656132	24
8	803	1741.252134770375	25
8	807	1744.241500984743	24
8	811	1752.815041703053	23
8	823	1797.208591200755	17
8	826	1804.485709461222	17
8	829	1817.024796108276	17
8	834	1822.667217348664	17
8	836	1832.014805444614	18
8	847	1863.728023762385	17
8	855	1890.325002330053	14
8	860	1892.911421496219	15
8	864	1897.909856720685	15
8	867	1900.228729364245	15
8	870	1902.394972575954	15
8	881	1923.105917349807	9
8	883	1936.930188235271	10
8	885	1945.527027404059	11
8	888	1951.529515973467	12
8	895	1978.121877551877	10
8	898	1979.34124746618	11
8	900	1979.762433639967	12
8	902	1980.054325816748	13
8	904	1980.804055573983	14
8	906	1984.075517845662	15
8	909	1987.134381859309	15
8	914	2004.51657132158	16
8	926	2016.414489280249	15
8	928	2019.355225779663	16
8	932	2021.296189842671	16
8	934	2027.04262790873	17
8	940	2046.560566042738	14
8	943	2049.309392990112	14
8	947	2061.485768394387	13
8	952	2066.837198190048	13
8	957	2079.137475032824	14
8	968	2104.013738594891	12
8	985	2153.081210459794	10
8	988	2156.356740043825	11
8	995	2173.045091011533	9
8	997	2173.616005250678	10
8	999	2175.034293339372	11
8	1001	2177.084121156678	12
8	1003	2180.5173811797	13
8	1005	2181.868862810189	14
8	1009	2189.076723022662	14
8	1011	2190.77130714992	15
8	1013	2192.37424995934	16
8	1023	2219.717478738328	13
8	1025	2221.871233968395	14
8	1028	2230.071724645932	15
8	1030	2230.935555957897	16
8	1046	2282.93439780404	6
8	1048	2285.416402302551	7
8	1051	2298.293892914577	8
8	1053	2299.2747170942	9
8	1057	2303.439979488083	8
8	1059	2305.47910729848	9
8	1070	2332.303734596903	4
8	1072	2334.907025363425	5
8	1077	2357.875581853046	3
8	1080	2359.875021229818	3
8	1085	2395.018293745815	1
8	1089	2396.55827791462	2
8	1093	2404.75453472669	3
8	1099	2426.276812347666	4
8	1102	2430.731895255457	5
8	1105	2436.181161132906	6
8	1107	2441.666214032224	7
8	1109	2442.032794299837	8
8	1111	2443.172972015987	9
8	1114	2444.959135336682	10
8	1119	2462.964472082763	9
8	1121	2463.231614912147	10
8	1128	2487.671983780769	6
8	1133	2494.931331030283	4
8	1136	2498.796688845567	4
9	162	362.408018322216	17
9	169	378.037431471048	18
9	180	384.72775032375	19
9	197	402.927587216792	20
9	198	404.843350345216	21
9	199	406.634431761991	22
9	200	409.095771916698	23
9	212	429.024348734246	24
9	213	439.430015124644	25
9	237	505.873773467992	26
9	281	573.032528289539	27
9	282	574.289550401185	28
9	301	625.271401307817	29
9	304	636.397180873239	30
9	310	643.858680771533	31
9	315	650.586335774137	32
9	320	660.267819712264	33
9	323	673.032213882216	34
9	346	718.174419991925	35
9	347	720.057909763009	36
9	352	744.007299994824	37
9	361	757.393613920389	38
9	362	758.015291861637	39
9	368	782.732592828247	40
9	376	804.640923047044	41
9	388	827.085950334168	42
9	399	849.631068229514	43
9	400	849.943988922082	44
9	429	906.590334420862	45
9	432	907.195848383631	46
9	442	930.144880466882	47
9	443	932.481562072145	48
9	458	952.07644946577	49
9	459	952.26248075233	50
9	462	962.455108305734	51
9	470	988.011144290727	52
9	477	1003.868296135427	53
9	480	1014.51407199108	54
9	487	1034.877169321557	55
9	490	1041.184693709017	56
9	491	1045.492398257608	57
9	501	1055.632318184165	58
9	523	1106.245500727506	59
9	531	1145.222944813624	60
9	553	1191.052098041676	61
9	558	1213.221472217445	62
9	559	1217.875983199745	63
9	572	1237.86931330908	64
9	600	1283.913597668224	65
9	601	1294.487123122516	66
9	608	1306.920963786636	67
9	609	1307.750464646705	68
9	623	1340.281399189762	69
9	630	1354.288064516042	70
9	633	1375.256703761937	71
9	640	1389.491434289944	72
9	645	1398.49252239422	73
9	666	1430.653616283374	74
9	667	1436.770637178763	75
9	678	1456.535276549652	76
9	679	1458.387900814583	77
9	698	1516.459390710709	78
9	707	1534.966509559134	79
9	708	1535.035157525196	80
9	718	1547.595527893521	81
9	752	1636.871570911999	82
9	760	1654.006904755885	83
9	797	1736.585951457572	84
9	818	1786.143054395339	85
9	841	1851.519038953612	86
9	842	1853.435311038704	87
9	843	1854.644599813605	88
9	856	1890.989732533903	89
9	861	1894.140231233449	90
9	886	1947.105003033353	91
9	896	1978.758818508911	92
9	912	2003.756049662211	93
9	919	2008.168920999383	94
9	920	2011.979253420491	95
9	929	2020.556684739468	96
9	955	2069.925341720155	97
9	960	2089.361037306944	98
9	961	2091.157313556532	99
9	969	2104.310803662381	100
9	972	2112.522387209838	101
9	977	2136.100931585843	102
9	981	2146.421497905544	103
9	986	2155.88537224925	104
9	1006	2182.288406344815	105
9	1026	2225.889025151375	106
9	1031	2237.567830569629	107
9	1049	2297.264069063714	108
9	1066	2315.484610134357	109
9	1100	2427.874396995167	110
9	1103	2431.830430256003	111
9	1112	2443.439126560183	112
9	1115	2452.127965234678	113
10	162	362.408018322216	8.915826988361
10	169	378.037431471048	16.678541437529
10	180	384.72775032375	15.94731575207
10	197	402.927587216792	22.575586801911
10	198	404.843350345216	15.981833939109
10	199	406.634431761991	14.87729006845
10	200	409.095771916698	8.668595915651
10	212	429.024348734246	10.533469977078
10	213	439.430015124644	17.795136593088
10	237	505.873773467992	7.707337474317
10	281	573.032528289539	2.874573118331
10	282	574.289550401185	2.275852771139
10	301	625.271401307817	5.280531480153
10	304	636.397180873239	9.445183993774
10	310	643.858680771533	0.489022445166
10	315	650.586335774137	1.753083257023
10	320	660.267819712264	3.908942252481
10	323	673.032213882216	2.134638175636
10	346	718.174419991925	3.455962019173
10	347	720.057909763009	4.398226867402
10	352	744.007299994824	5.895270832478
10	361	757.393613920389	13.133173436631
10	362	758.015291861637	3.833239251597
10	368	782.732592828247	6.294284820674
10	376	804.640923047044	14.05022197073
10	388	827.085950334168	5.351679791746
10	399	849.631068229514	13.045699952514
10	400	849.943988922082	4.294295251619
10	429	906.590334420862	8.318598375778
10	432	907.195848383631	6.516215680375
10	442	930.144880466882	12.521880351265
10	443	932.481562072145	11.20912567515
10	458	952.07644946577	8.731260893409
10	459	952.26248075233	8.548925711418
10	462	962.455108305734	17.668079476469
10	470	988.011144290727	12.146938498206
10	477	1003.868296135427	20.082188331901
10	480	1014.51407199108	24.237086979875
10	487	1034.877169321557	43.43909100594
10	490	1041.184693709017	9.686089374498
10	491	1045.492398257608	10.028977387001
10	501	1055.632318184165	5.122812562754
10	523	1106.245500727506	3.68024429703
10	531	1145.222944813624	19.044617370542
10	553	1191.052098041676	9.25644161711
10	558	1213.221472217445	30.342154446006
10	559	1217.875983199745	9.954911891094
10	572	1237.86931330908	0.276908769843
10	600	1283.913597668224	19.934447111039
10	601	1294.487123122516	26.015448609631
10	608	1306.920963786636	26.060732525515
10	609	1307.750464646705	26.537305378381
10	623	1340.281399189762	5.499594960707
10	630	1354.288064516042	11.852499477443
10	633	1375.256703761937	22.389464849821
10	640	1389.491434289944	14.181848785539
10	645	1398.49252239422	0.192880231935
10	666	1430.653616283374	25.876189767284
10	667	1436.770637178763	11.001575167253
10	678	1456.535276549652	26.151225693941
10	679	1458.387900814583	9.739681312102
10	698	1516.459390710709	24.444368946187
10	707	1534.966509559134	37.929900163137
10	708	1535.035157525196	11.705280024714
10	718	1547.595527893521	1.329096532527
10	752	1636.871570911999	38.532282873439
10	760	1654.006904755885	13.583700682085
10	797	1736.585951457572	1.118581477323
10	818	1786.143054395339	18.812535533145
10	841	1851.519038953612	29.222685241485
10	842	1853.435311038704	19.826200949534
10	843	1854.644599813605	16.812389848407
10	856	1890.989732533903	3.166481693496
10	861	1894.140231233449	2.921958417035
10	886	1947.105003033353	25.4367795062
10	896	1978.758818508911	11.362384365476
10	912	2003.756049662211	10.485291870728
10	919	2008.168920999383	2.743837705956
10	920	2011.979253420491	3.886863260113
10	929	2020.556684739468	5.60576684585
10	955	2069.925341720155	5.362078845972
10	960	2089.361037306944	19.845185548666
10	961	2091.157313556532	11.830444413369
10	969	2104.310803662381	0.964216083713
10	972	2112.522387209838	2.186648799992
10	977	2136.100931585843	11.056191544538
10	981	2146.421497905544	2.196372550098
10	986	2155.88537224925	5.358314806473
10	1006	2182.288406344815	19.144893209574
10	1026	2225.889025151375	15.191630898771
10	1031	2237.567830569629	20.973914828921
10	1049	2297.264069063714	19.383974200074
10	1066	2315.484610134357	1.078008296055
10	1100	2427.874396995167	31.72164616531
10	1103	2431.830430256003	31.742310413464
10	1112	2443.439126560183	28.759418301677
10	1115	2452.127965234678	32.295778328609
11	1137	2500	0.1052
12	1137	2500	0.0452

