version 2
run experiments_hard_game_mode1-1232-20230311-19:43:47-11209
attr configname experiments_hard_game_mode1
attr datetime 20230311-19:43:47
attr experiment experiments_hard_game_mode1
attr inifile omnetpp.ini
attr iterationvars "$0=9.5, $1=3, $2=100"
attr iterationvarsf 9.5,3,100-
attr measurement "$0=9.5, $1=3, $2=100"
attr network Network
attr processid 11209
attr repetition 2
attr replication #2
attr resultdir results
attr runnumber 1232
attr seedset 2
param *.boss.arrival_mean 20
param *.boss.service_mean 9.5
param *.minion.arrival_mean 10
param *.minion.service_mean 3
param *.player.recover_rate_x 100
param **.minion.arrival_distribution 0
param **.minion.service_distribution 0
param **.boss.arrival_distribution 0
param **.boss.service_distribution 0

vector 0 Network.player boss_defeated_stat:vector ETV
attr source signal_boss_defeated
vector 1 Network.player boss_jobs_queue_number_stat:vector ETV
attr source signal_boss_jobs_queue_number
vector 2 Network.player boss_response_time_stat:vector ETV
attr source signal_boss_response_time
vector 3 Network.player minion_waiting_time_stat:vector ETV
attr source signal_minion_waiting_time
vector 4 Network.player minion_defeated_stat:vector ETV
attr source signal_minion_defeated
vector 5 Network.player minion_jobs_queue_number_stat:vector ETV
attr source signal_minion_jobs_queue_number
vector 6 Network.player minion_response_time_stat:vector ETV
attr source signal_minion_response_time
vector 7 Network.player minion_jobs_number_stat:vector ETV
attr source signal_minion_jobs_number
vector 8 Network.player boss_jobs_number_stat:vector ETV
attr source signal_boss_jobs_number
vector 9 Network.player minion_recovered_stat:vector ETV
attr source signal_minion_recovered
vector 10 Network.player boss_waiting_time_stat:vector ETV
attr source signal_boss_waiting_time
vector 11 Network.player minion_throughput:vector ETV
attr source signal_minion_throughput
vector 12 Network.player boss_throughput:vector ETV
attr source signal_boss_throughput
0	156	354.627892458176	22
0	163	370.051991952163	23
0	191	409.811523471617	24
0	196	431.123942280116	25
0	199	445.7437475643	26
0	212	464.230651474849	27
0	222	478.218499789694	28
0	234	505.00874305164	29
0	240	520.39295265417	30
0	249	536.17830340601	31
0	254	546.783139136554	32
0	257	553.076394773232	33
0	290	628.226246546367	34
0	291	629.405505973118	35
0	296	671.89246243335	36
0	306	681.370645080865	37
0	323	707.629038371813	38
0	329	720.034731498363	39
0	332	721.462719669898	40
0	348	750.379553206277	41
0	357	774.527051617709	42
0	370	790.727047039978	43
0	371	795.75425872305	44
0	374	799.76845445173	45
0	381	809.655996604556	46
0	391	833.730016974194	47
0	396	836.283888317512	48
0	403	846.903061372302	49
0	428	899.715446996592	50
0	429	900.548480789157	51
0	430	902.15008695356	52
0	450	925.45705234046	53
0	461	939.620624457418	54
0	462	948.314548209368	55
0	463	954.583768411232	56
0	466	957.592280187809	57
0	473	972.73827891742	58
0	479	982.796510724433	59
0	496	1006.026608664799	60
0	518	1043.187582900631	61
0	519	1052.411739309205	62
0	526	1071.188950068683	63
0	530	1077.77584298658	64
0	558	1132.106904619314	65
0	567	1153.762009337171	66
0	576	1162.515919509563	67
0	577	1163.196078546451	68
0	580	1170.832360602828	69
0	583	1177.540132266633	70
0	608	1205.830557219084	71
0	609	1211.771029399235	72
0	618	1252.791913267067	73
0	627	1263.584148379124	74
0	630	1267.503576421611	75
0	633	1273.810596099796	76
0	634	1276.416179734764	77
0	637	1281.708964021436	78
0	646	1305.08413164305	79
0	649	1309.90897681211	80
0	650	1310.534122916885	81
0	664	1335.159719707906	82
0	693	1373.267533819191	83
0	696	1375.342234676137	84
0	703	1377.07343891812	85
0	714	1411.655550626455	86
0	735	1448.04007779387	87
0	746	1480.417324072323	88
0	750	1489.419625438917	89
0	753	1496.198304923326	90
0	770	1527.499524993003	91
0	787	1566.910590207712	92
0	790	1581.74131947914	93
0	801	1601.393600679281	94
0	817	1656.116310631316	95
0	856	1757.452315171931	96
0	867	1772.397801535763	97
0	868	1778.422708693759	98
0	871	1786.261372810306	99
0	880	1802.740444803886	100
0	885	1811.833470550977	101
0	886	1812.327563197885	102
0	893	1816.589337513762	103
0	894	1829.530334521706	104
0	906	1838.964413292963	105
0	924	1877.116966701933	106
0	927	1882.937041916274	107
0	938	1934.904985412025	108
0	939	1947.443585538762	109
0	940	1957.846870220601	110
0	948	1985.163320103038	111
0	963	2044.46059083009	112
0	980	2084.054187169632	113
0	986	2096.329290055812	114
0	992	2118.835966549464	115
0	996	2137.32566226822	116
0	1006	2160.919760709379	117
0	1007	2163.217063833853	118
0	1014	2178.034944035963	119
0	1025	2206.707277880697	120
0	1032	2219.31161542301	121
0	1039	2223.183604952789	122
0	1053	2270.925576312582	123
0	1054	2277.544213880341	124
0	1059	2285.732938296469	125
0	1064	2302.308142429124	126
0	1077	2312.254117732795	127
0	1080	2316.672395785861	128
0	1087	2332.279214228359	129
0	1090	2333.919409740263	130
0	1101	2347.65647228463	131
0	1102	2348.188138218092	132
0	1107	2358.232686351003	133
0	1114	2368.227207721345	134
0	1121	2384.052606334009	135
0	1122	2384.442326504704	136
0	1125	2394.206641602233	137
0	1128	2396.665767868914	138
0	1152	2441.654959907565	139
0	1157	2447.463301712397	140
0	1160	2451.322933878821	141
0	1163	2454.503019498306	142
0	1174	2467.236586132685	143
0	1181	2479.632766170734	144
1	156	354.627892458176	0
1	162	368.958402505989	0
1	163	370.051991952163	0
1	188	402.880317121656	0
1	190	402.959438767677	1
1	191	409.811523471617	1
1	193	411.151057594791	1
1	195	425.50773619485	2
1	196	431.123942280116	2
1	199	445.7437475643	1
1	212	464.230651474849	0
1	219	469.80224824894	0
1	222	478.218499789694	0
1	233	503.294683776111	0
1	234	505.00874305164	0
1	237	507.710655197798	0
1	240	520.39295265417	0
1	244	526.672789580331	0
1	246	527.294692179906	1
1	249	536.17830340601	1
1	254	546.783139136554	0
1	256	552.879779829314	0
1	257	553.076394773232	0
1	269	594.891439112898	0
1	277	601.794162164892	1
1	289	627.791762872973	2
1	290	628.226246546367	2
1	291	629.405505973118	1
1	296	671.89246243335	0
1	303	677.757467272476	0
1	306	681.370645080865	0
1	318	693.3263811353	0
1	323	707.629038371813	0
1	328	718.401955800649	0
1	329	720.034731498363	0
1	331	721.220745948366	0
1	332	721.462719669898	0
1	341	736.862253510529	0
1	347	747.539614225181	1
1	348	750.379553206277	1
1	350	750.606602021905	1
1	357	774.527051617709	1
1	361	780.773926758294	1
1	369	790.1209739769	2
1	370	790.727047039978	2
1	371	795.75425872305	1
1	374	799.76845445173	0
1	380	807.657632949454	0
1	381	809.655996604556	0
1	390	830.082990056291	0
1	391	833.730016974194	0
1	393	834.116293496415	0
1	396	836.283888317512	0
1	402	845.77824134047	0
1	403	846.903061372302	0
1	417	880.761697232639	0
1	423	892.145415789384	1
1	425	894.373028441513	2
1	428	899.715446996592	2
1	429	900.548480789157	1
1	430	902.15008695356	0
1	441	913.607525755531	0
1	447	920.277206925292	1
1	450	925.45705234046	1
1	454	934.672708179719	1
1	456	936.028935313202	2
1	461	939.620624457418	2
1	462	948.314548209368	1
1	463	954.583768411232	0
1	465	957.048087016828	0
1	466	957.592280187809	0
1	470	958.210082287997	0
1	473	972.73827891742	0
1	476	976.587912042603	0
1	479	982.796510724433	0
1	493	1005.590137975379	0
1	496	1006.026608664799	0
1	515	1038.308158018523	0
1	517	1038.545319263007	1
1	518	1043.187582900631	1
1	519	1052.411739309205	0
1	521	1053.293452183994	0
1	526	1071.188950068683	0
1	529	1072.225530406186	0
1	530	1077.77584298658	0
1	553	1120.086426183102	0
1	557	1128.152243321753	1
1	558	1132.106904619314	1
1	562	1135.843037619533	1
1	566	1152.246671720459	2
1	567	1153.762009337171	2
1	571	1154.142983468966	2
1	575	1162.317380905273	3
1	576	1162.515919509563	3
1	577	1163.196078546451	2
1	579	1169.470891429442	2
1	580	1170.832360602828	2
1	583	1177.540132266633	1
1	587	1180.063672947012	1
1	589	1182.484086536195	2
1	591	1184.083476601723	3
1	608	1205.830557219084	3
1	609	1211.771029399235	2
1	615	1219.368073518	2
1	618	1252.791913267067	2
1	624	1257.720377731584	2
1	626	1258.681009477602	3
1	627	1263.584148379124	3
1	630	1267.503576421611	2
1	632	1270.276931261535	2
1	633	1273.810596099796	2
1	634	1276.416179734764	1
1	637	1281.708964021436	0
1	641	1289.96228240382	0
1	645	1292.563411709023	1
1	646	1305.08413164305	1
1	648	1308.426570154145	1
1	649	1309.90897681211	1
1	650	1310.534122916885	0
1	663	1334.742141683582	0
1	664	1335.159719707906	0
1	690	1368.959044590421	0
1	692	1371.947207617954	1
1	693	1373.267533819191	1
1	696	1375.342234676137	0
1	700	1376.38378442529	0
1	703	1377.07343891812	0
1	713	1405.507827071999	0
1	714	1411.655550626455	0
1	734	1444.385113574848	0
1	735	1448.04007779387	0
1	745	1480.059721281932	0
1	746	1480.417324072323	0
1	749	1488.726294780898	0
1	750	1489.419625438917	0
1	752	1496.141136259839	0
1	753	1496.198304923326	0
1	769	1524.242338504501	0
1	770	1527.499524993003	0
1	776	1542.447631622299	0
1	780	1549.466082130356	1
1	787	1566.910590207712	1
1	790	1581.74131947914	0
1	796	1590.641998253917	0
1	801	1601.393600679281	0
1	812	1633.714350027253	0
1	817	1656.116310631316	0
1	845	1715.229752380084	0
1	849	1723.105769530319	1
1	851	1735.705584841452	2
1	853	1739.312436688954	3
1	856	1757.452315171931	3
1	867	1772.397801535763	2
1	868	1778.422708693759	1
1	870	1781.020742921571	1
1	871	1786.261372810306	1
1	873	1790.989767933443	1
1	877	1798.01125817734	2
1	879	1799.973669012292	3
1	880	1802.740444803886	3
1	882	1802.788611750136	3
1	885	1811.833470550977	3
1	886	1812.327563197885	2
1	893	1816.589337513762	1
1	894	1829.530334521706	0
1	903	1837.207809601665	0
1	906	1838.964413292963	0
1	923	1874.214819834976	0
1	924	1877.116966701933	0
1	926	1877.492323099577	0
1	927	1882.937041916274	0
1	929	1899.01190856079	0
1	931	1908.705791028292	1
1	937	1926.80487591959	2
1	938	1934.904985412025	2
1	939	1947.443585538762	1
1	940	1957.846870220601	0
1	947	1984.546275450773	0
1	948	1985.163320103038	0
1	950	1996.012842413922	0
1	963	2044.46059083009	0
1	979	2083.855153346219	0
1	980	2084.054187169632	0
1	983	2092.664060113132	0
1	986	2096.329290055812	0
1	989	2104.851380459965	0
1	992	2118.835966549464	0
1	995	2122.543875262575	0
1	996	2137.32566226822	0
1	1003	2157.532000019822	0
1	1005	2160.769943346489	1
1	1006	2160.919760709379	1
1	1007	2163.217063833853	0
1	1009	2166.560262012353	0
1	1011	2170.316721573153	1
1	1014	2178.034944035963	1
1	1016	2188.511548646784	1
1	1020	2198.633767710102	2
1	1025	2206.707277880697	2
1	1032	2219.31161542301	1
1	1039	2223.183604952789	0
1	1048	2245.259994245578	0
1	1050	2265.579539773758	1
1	1053	2270.925576312582	1
1	1054	2277.544213880341	0
1	1058	2280.874893329279	0
1	1059	2285.732938296469	0
1	1061	2290.195761337989	0
1	1064	2302.308142429124	0
1	1070	2308.037549004393	0
1	1072	2308.085742285505	1
1	1074	2308.887224526848	2
1	1077	2312.254117732795	2
1	1080	2316.672395785861	1
1	1084	2324.804840986635	1
1	1087	2332.279214228359	1
1	1089	2333.642706438426	1
1	1090	2333.919409740263	1
1	1092	2336.358455922297	1
1	1094	2338.017678787934	2
1	1096	2339.680804628958	3
1	1100	2346.97091279548	4
1	1101	2347.65647228463	4
1	1102	2348.188138218092	3
1	1106	2352.329510823868	3
1	1107	2358.232686351003	3
1	1111	2360.360545668002	3
1	1114	2368.227207721345	3
1	1120	2381.934676952752	3
1	1121	2384.052606334009	3
1	1122	2384.442326504704	2
1	1125	2394.206641602233	1
1	1128	2396.665767868914	0
1	1133	2411.664070294826	0
1	1135	2416.504309095825	1
1	1137	2417.319899226566	2
1	1139	2421.859081073032	3
1	1149	2433.0836491068	4
1	1152	2441.654959907565	4
1	1154	2442.737002327712	4
1	1157	2447.463301712397	4
1	1159	2450.301596221221	4
1	1160	2451.322933878821	4
1	1163	2454.503019498306	3
1	1165	2455.396158994061	3
1	1174	2467.236586132685	3
1	1176	2475.635191458486	3
1	1180	2478.070608996934	4
1	1181	2479.632766170734	4
1	1183	2486.574186514758	4
2	156	354.627892458176	46.989728190483
2	163	370.051991952163	1.093589446174
2	191	409.811523471617	6.931206349961
2	196	431.123942280116	28.164503512439
2	199	445.7437475643	34.592689969509
2	212	464.230651474849	38.722915279999
2	222	478.218499789694	8.416251540754
2	234	505.00874305164	1.714059275529
2	240	520.39295265417	12.682297456372
2	249	536.17830340601	9.505513825679
2	254	546.783139136554	19.488446956648
2	257	553.076394773232	0.196614943918
2	290	628.226246546367	33.334807433469
2	291	629.405505973118	27.611343808226
2	296	671.89246243335	44.100699560377
2	306	681.370645080865	3.613177808389
2	323	707.629038371813	14.302657236513
2	329	720.034731498363	1.632775697714
2	332	721.462719669898	0.241973721532
2	348	750.379553206277	13.517299695748
2	357	774.527051617709	26.987437392528
2	370	790.727047039978	40.120445018073
2	371	795.75425872305	14.980331964756
2	374	799.76845445173	9.64748047483
2	381	809.655996604556	1.998363655102
2	391	833.730016974194	3.647026917903
2	396	836.283888317512	2.167594821097
2	403	846.903061372302	1.124820031832
2	428	899.715446996592	18.953749763953
2	429	900.548480789157	8.403064999773
2	430	902.15008695356	7.777058512047
2	450	925.45705234046	11.849526584929
2	461	939.620624457418	19.343417532126
2	462	948.314548209368	13.641840029649
2	463	954.583768411232	18.55483309803
2	466	957.592280187809	0.544193170981
2	473	972.73827891742	14.528196629423
2	479	982.796510724433	6.20859868183
2	496	1006.026608664799	0.43647068942
2	518	1043.187582900631	4.879424882108
2	519	1052.411739309205	13.866420046198
2	526	1071.188950068683	17.895497884689
2	530	1077.77584298658	5.550312580394
2	558	1132.106904619314	12.020478436212
2	567	1153.762009337171	25.609766015418
2	576	1162.515919509563	26.67288189003
2	577	1163.196078546451	10.949406825992
2	580	1170.832360602828	16.689377133862
2	583	1177.540132266633	15.22275136136
2	608	1205.830557219084	36.359665789642
2	609	1211.771029399235	31.707356452223
2	618	1252.791913267067	70.307826730872
2	627	1263.584148379124	79.500671777401
2	630	1267.503576421611	48.135502903611
2	633	1273.810596099796	16.090218368212
2	634	1276.416179734764	17.735170257162
2	637	1281.708964021436	11.432032759901
2	646	1305.08413164305	15.12184923923
2	649	1309.90897681211	17.345565103087
2	650	1310.534122916885	2.10755276274
2	664	1335.159719707906	0.417578024324
2	693	1373.267533819191	4.30848922877
2	696	1375.342234676137	3.395027058183
2	703	1377.07343891812	0.68965449283
2	714	1411.655550626455	6.147723554456
2	735	1448.04007779387	3.654964219022
2	746	1480.417324072323	0.357602790391
2	750	1489.419625438917	0.693330658019
2	753	1496.198304923326	0.057168663487
2	770	1527.499524993003	3.257186488502
2	787	1566.910590207712	24.462958585413
2	790	1581.74131947914	32.275237348784
2	801	1601.393600679281	10.751602425364
2	817	1656.116310631316	22.401960604063
2	856	1757.452315171931	42.222562791847
2	867	1772.397801535763	49.292032005444
2	868	1778.422708693759	42.717123852307
2	871	1786.261372810306	46.948936121352
2	880	1802.740444803886	21.719701882315
2	885	1811.833470550977	20.843702617534
2	886	1812.327563197885	14.316305020545
2	893	1816.589337513762	16.61566850147
2	894	1829.530334521706	26.74172277157
2	906	1838.964413292963	1.756603691298
2	924	1877.116966701933	2.902146866957
2	927	1882.937041916274	5.444718816697
2	938	1934.904985412025	35.893076851235
2	939	1947.443585538762	38.73779451047
2	940	1957.846870220601	31.041994301011
2	948	1985.163320103038	0.617044652265
2	963	2044.46059083009	48.447748416168
2	980	2084.054187169632	0.199033823413
2	986	2096.329290055812	3.66522994268
2	992	2118.835966549464	13.984586089499
2	996	2137.32566226822	14.781787005645
2	1006	2160.919760709379	3.387760689557
2	1007	2163.217063833853	2.447120487364
2	1014	2178.034944035963	11.47468202361
2	1025	2206.707277880697	36.390556307544
2	1032	2219.31161542301	30.800066776226
2	1039	2223.183604952789	24.549837242687
2	1053	2270.925576312582	25.665582067004
2	1054	2277.544213880341	11.964674106583
2	1059	2285.732938296469	4.85804496719
2	1064	2302.308142429124	12.112381091135
2	1077	2312.254117732795	4.216568728402
2	1080	2316.672395785861	8.586653500356
2	1087	2332.279214228359	23.391989701511
2	1090	2333.919409740263	9.114568753628
2	1101	2347.65647228463	14.013765846204
2	1102	2348.188138218092	11.829682295795
2	1107	2358.232686351003	20.215007563069
2	1114	2368.227207721345	28.546403092387
2	1121	2384.052606334009	37.081693538529
2	1122	2384.442326504704	32.112815680836
2	1125	2394.206641602233	33.846095934231
2	1128	2396.665767868914	14.731090916162
2	1152	2441.654959907565	29.990889612739
2	1157	2447.463301712397	30.958992616572
2	1160	2451.322933878821	34.003034652255
2	1163	2454.503019498306	32.643938425274
2	1174	2467.236586132685	34.152937025885
2	1181	2479.632766170734	36.895763843022
3	156	354.627892458176	114.25204049113
3	157	359.209726080365	113.15022989021
3	158	360.614706855488	100.24666176824
3	163	370.051991952163	104.53096792125
3	164	374.032199633755	96.050213170918
3	165	374.150756834255	79.116659599454
3	168	384.467835755335	79.766260619912
3	173	388.070841338787	83.154155844399
3	176	391.698284341345	81.228741052164
3	181	394.249511176552	79.428783427813
3	182	394.68606334745	76.453451793156
3	185	401.534620273363	76.721812771009
3	186	401.973192037578	40.71931978933
3	212	464.230651474849	95.27224896886
3	213	465.580001472756	83.546431484509
3	222	478.218499789694	92.12366583324
3	223	480.599642625747	93.951681486093
3	226	483.015606439559	93.898390916419
3	227	486.651897764158	94.425487249143
3	228	495.262206395856	102.35505874402
3	229	496.72781978288	100.36554784155
3	230	499.706938478492	96.826621356836
3	231	502.755353811891	65.723525263905
3	234	505.00874305164	56.690731156263
3	235	507.50507235253	57.819056450164
3	240	520.39295265417	67.131354527206
3	241	523.454310530628	66.304703175839
3	242	525.334526910431	66.167394768609
3	254	546.783139136554	86.880156815982
3	257	553.076394773232	87.37114798764
3	258	554.487410675314	86.236209449295
3	261	559.372352079684	89.570103830744
3	262	566.435451313649	90.612944005377
3	263	571.828104943424	91.002867471802
3	264	584.115807346139	80.821123570028
3	265	587.590841545628	79.88018634783
3	266	592.809443366013	82.942840601517
3	267	593.140421698777	66.467632118446
3	296	671.89246243335	139.37826323963
3	297	672.450136744038	132.72812702315
3	298	672.698051957936	128.73779181315
3	299	674.906746617312	122.026966788
3	306	681.370645080865	126.2149485694
3	307	681.58084902159	86.689409908692
3	310	684.733717410601	87.746629514831
3	323	707.629038371813	109.3441933051
3	324	709.654840338797	111.07846627982
3	325	712.80037043913	110.17976581451
3	326	713.505513425138	106.55112689233
3	329	720.034731498363	109.87202694827
3	332	721.462719669898	106.50417921438
3	337	732.068209816852	108.66194496996
3	374	799.76845445173	161.91616747433
3	375	800.384150551149	151.74021614419
3	376	803.706782213239	127.12612772867
3	377	804.542416748821	126.78494947634
3	378	806.625352498286	126.73071621905
3	381	809.655996604556	125.90929628576
3	382	815.856184750897	130.52436900102
3	385	820.600448581916	129.60391161711
3	386	827.702692580598	135.49791285388
3	387	827.846169576957	134.51978844166
3	388	828.117938523838	132.76405468059
3	391	833.730016974194	127.43147661076
3	396	836.283888317512	117.88193251686
3	399	838.147662406313	116.92691645795
3	400	845.746608757716	123.30075479536
3	403	846.903061372302	123.79842720526
3	404	847.135361399501	113.86301745472
3	405	849.003621694706	112.14136818418
3	406	858.889788600261	119.09205813089
3	407	859.413098901785	118.90373622046
3	408	862.24206387262	111.2695425402
3	409	863.954261759211	103.72730360548
3	410	866.011476130878	104.29938097361
3	411	868.71394051758	91.126325953614
3	412	870.664054251818	81.46281946074
3	413	871.117074697998	81.590523678531
3	414	872.832814128335	82.971325494654
3	415	879.708431793783	83.769028032538
3	430	902.15008695356	94.492454004106
3	435	904.3576342882	84.815397876454
3	463	954.583768411232	124.50077835494
3	466	957.592280187809	123.47598669139
3	473	972.73827891742	137.58134537216
3	474	973.360675123349	135.63659890896
3	479	982.796510724433	137.01826938396
3	480	984.073811861599	103.31211462896
3	483	990.022940650357	107.56049641433
3	484	993.514064841098	102.61341752301
3	485	995.010662746056	95.340167520547
3	486	998.658082156388	95.959536071782
3	489	999.682763323246	96.587321109524
3	496	1006.026608664799	100.93674716273
3	497	1007.169302958872	96.165898922093
3	498	1007.290065722823	93.682539967292
3	499	1011.432059743472	95.741299166895
3	502	1024.43620210525	106.66076736853
3	505	1027.561055844389	103.34749895424
3	506	1027.692446565083	93.615629028884
3	507	1030.741227232535	93.781162933152
3	508	1031.300628554841	91.915799455421
3	509	1033.158633278809	76.110546261981
3	510	1034.701138840509	76.789003986674
3	511	1035.685517217313	77.475434929316
3	512	1038.082735504414	78.53399183685
3	513	1038.246292319259	61.658380276656
3	519	1052.411739309205	74.174133513785
3	526	1071.188950068683	85.269526510036
3	527	1071.306953498699	72.56214063446
3	530	1077.77584298658	77.97312630028
3	531	1078.333138524173	72.743000548794
3	532	1081.625785479846	75.988701586574
3	533	1082.447549698863	63.674135390786
3	534	1087.195176640733	60.470248763883
3	535	1087.781252427124	49.473094408601
3	538	1094.439899922299	41.146447738305
3	539	1095.487825058295	40.686782056491
3	540	1096.020207007225	31.367233094233
3	541	1096.432330524137	24.206800117951
3	542	1099.541146311734	6.185153736533
3	545	1100.282182876396	0
3	548	1104.978036121906	0
3	551	1118.356984565768	0
3	637	1281.708964021436	161.62253783833
3	638	1283.749572627294	156.33536411998
3	639	1285.737417558293	152.22313564317
3	650	1310.534122916885	166.17325854728
3	651	1314.123490159299	160.171771436
3	652	1315.435502092742	154.33843152062
3	653	1320.281212747634	148.23894712698
3	654	1320.387417127908	141.97951340102
3	655	1321.318322580626	137.10701836245
3	656	1325.849969472536	141.5495464428
3	661	1333.05639723882	148.62100647401
3	664	1335.159719707906	150.02121575518
3	665	1335.229117087547	149.8280464575
3	666	1335.450766256739	144.34365221725
3	667	1336.861366431143	142.59104412743
3	668	1343.86874965792	143.9509997297
3	669	1344.536805597322	129.32974889496
3	672	1349.429434365338	132.16585742218
3	673	1350.6887589373	104.82537017081
3	674	1350.702481813501	97.295135021419
3	677	1352.46404875755	97.809568409246
3	678	1353.20051375529	89.405943804844
3	679	1355.268813672197	77.7834560473
3	682	1359.191985000962	69.229702597142
3	683	1362.400436908195	72.152351251737
3	684	1364.005516907232	35.397940643319
3	685	1365.161424890343	32.89530981435
3	686	1365.884797465297	31.142655781715
3	687	1366.364847941867	20.365676104183
3	688	1368.752838093481	17.571882622627
3	696	1375.342234676137	17.317956733482
3	697	1375.454630459621	6.4955858692
3	698	1376.129067846095	0.80101952736
3	703	1377.07343891812	0.68965449283
3	704	1377.784728908248	1.206504455454
3	707	1385.424457924955	0
3	710	1400.686626234377	0
3	716	1412.945932439393	0
3	719	1414.559077544985	1.28206716025
3	722	1420.422398902746	0
3	725	1423.052874735842	1.50082587272
3	728	1439.27524498052	0
3	731	1441.998615398113	0
3	737	1454.752516381548	0
3	740	1458.614725343514	0
3	743	1478.733427612972	0
3	746	1480.417324072323	0.357602790391
3	755	1505.301943959205	0
3	758	1507.866531849877	0.290439172542
3	761	1513.948258337622	0
3	764	1517.494098948675	0
3	767	1523.807210772095	0
3	770	1527.499524993003	3.257186488502
3	773	1530.266107318484	0
3	790	1581.74131947914	34.619492066889
3	791	1581.909010441783	27.982810065095
3	792	1582.673078002087	25.981432139829
3	793	1585.114112226641	19.065790633667
3	794	1585.562290319793	9.711741929456
3	801	1601.393600679281	10.751602425364
3	804	1608.668199897161	15.728627520579
3	805	1611.531209575222	11.090594104699
3	806	1615.31318816214	7.370659022924
3	809	1617.344590012182	0.134615948523
3	817	1656.116310631316	10.904000630174
3	818	1656.723220048894	8.427612013486
3	821	1661.375657435541	0.228820453399
3	824	1666.811507272016	0
3	829	1681.264944885226	12.484075072265
3	830	1683.591764224696	7.738400879683
3	833	1685.52198025974	0
3	836	1690.619515589583	0
3	839	1698.881351353874	0
3	842	1702.270853690546	0
3	894	1829.530334521706	112.84544266763
3	899	1831.553908783487	89.446201324373
3	900	1832.038781625814	73.498731003035
3	901	1835.038546171263	71.190838103539
3	906	1838.964413292963	71.56957647732
3	907	1839.080539797618	69.326243733871
3	908	1839.171528184498	67.927768088083
3	909	1841.251617303674	44.054392291142
3	910	1846.684401687485	39.397689788339
3	911	1846.94612349958	34.263283399372
3	912	1848.259115526157	35.492844550185
3	913	1852.959949994542	38.688788018289
3	914	1855.652068451549	25.841665997557
3	915	1859.908967764302	29.047962169612
3	916	1859.930905047525	22.72309544586
3	919	1864.015469609375	26.181357910241
3	920	1864.928014823345	1.874145594488
3	940	1957.846870220601	36.297981773939
3	941	1958.165815095925	33.081086987342
3	944	1966.574750978705	0.112922471171
3	963	2044.46059083009	48.017864595128
3	964	2044.980170816291	45.96166508764
3	965	2047.166246655675	44.032391468153
3	966	2058.984911338765	36.882703176843
3	967	2059.414928197541	32.430212671097
3	968	2066.33168428371	22.590254982714
3	971	2068.035895002599	0
3	974	2070.729528780533	0
3	977	2082.060564272508	0
3	980	2084.054187169632	0.199033823413
3	986	2096.329290055812	3.572753727487
3	992	2118.835966549464	11.047203723856
3	998	2145.586000304457	0
3	1001	2157.470008204503	0
3	1007	2163.217063833853	5.685063814031
3	1039	2223.183604952789	56.623342940436
3	1040	2224.860628023658	54.239024149637
3	1041	2227.433459178388	29.764234708344
3	1042	2231.319593275956	32.645219774769
3	1043	2232.449581720279	28.894866415314
3	1044	2237.409910290245	26.911593629278
3	1045	2242.115131972211	29.840210160802
3	1046	2243.47277306515	24.992188916442
3	1054	2277.544213880341	56.062374701721
3	1059	2285.732938296469	64.24365740353
3	1064	2302.308142429124	79.182169454491
3	1065	2304.667976197694	59.407981952116
3	1066	2305.13915215633	36.969935776662
3	1067	2307.343009970904	26.468209690618
3	1068	2307.470699332617	26.595806003338
3	1128	2396.665767868914	106.47000653092
3	1131	2404.758903670148	102.87786526612
4	157	359.209726080365	23
4	158	360.614706855488	24
4	164	374.032199633755	25
4	165	374.150756834255	26
4	168	384.467835755335	27
4	173	388.070841338787	28
4	176	391.698284341345	29
4	181	394.249511176552	30
4	182	394.68606334745	31
4	185	401.534620273363	32
4	186	401.973192037578	33
4	213	465.580001472756	34
4	223	480.599642625747	35
4	226	483.015606439559	36
4	227	486.651897764158	37
4	228	495.262206395856	38
4	229	496.72781978288	39
4	230	499.706938478492	40
4	231	502.755353811891	41
4	235	507.50507235253	42
4	241	523.454310530628	43
4	242	525.334526910431	44
4	258	554.487410675314	45
4	261	559.372352079684	46
4	262	566.435451313649	47
4	263	571.828104943424	48
4	264	584.115807346139	49
4	265	587.590841545628	50
4	266	592.809443366013	51
4	267	593.140421698777	52
4	297	672.450136744038	53
4	298	672.698051957936	54
4	299	674.906746617312	55
4	307	681.58084902159	56
4	310	684.733717410601	57
4	324	709.654840338797	58
4	325	712.80037043913	59
4	326	713.505513425138	60
4	337	732.068209816852	61
4	375	800.384150551149	62
4	376	803.706782213239	63
4	377	804.542416748821	64
4	378	806.625352498286	65
4	382	815.856184750897	66
4	385	820.600448581916	67
4	386	827.702692580598	68
4	387	827.846169576957	69
4	388	828.117938523838	70
4	399	838.147662406313	71
4	400	845.746608757716	72
4	404	847.135361399501	73
4	405	849.003621694706	74
4	406	858.889788600261	75
4	407	859.413098901785	76
4	408	862.24206387262	77
4	409	863.954261759211	78
4	410	866.011476130878	79
4	411	868.71394051758	80
4	412	870.664054251818	81
4	413	871.117074697998	82
4	414	872.832814128335	83
4	415	879.708431793783	84
4	435	904.3576342882	85
4	474	973.360675123349	86
4	480	984.073811861599	87
4	483	990.022940650357	88
4	484	993.514064841098	89
4	485	995.010662746056	90
4	486	998.658082156388	91
4	489	999.682763323246	92
4	497	1007.169302958872	93
4	498	1007.290065722823	94
4	499	1011.432059743472	95
4	502	1024.43620210525	96
4	505	1027.561055844389	97
4	506	1027.692446565083	98
4	507	1030.741227232535	99
4	508	1031.300628554841	100
4	509	1033.158633278809	101
4	510	1034.701138840509	102
4	511	1035.685517217313	103
4	512	1038.082735504414	104
4	513	1038.246292319259	105
4	527	1071.306953498699	106
4	531	1078.333138524173	107
4	532	1081.625785479846	108
4	533	1082.447549698863	109
4	534	1087.195176640733	110
4	535	1087.781252427124	111
4	538	1094.439899922299	112
4	539	1095.487825058295	113
4	540	1096.020207007225	114
4	541	1096.432330524137	115
4	542	1099.541146311734	116
4	543	1099.989218319597	117
4	546	1100.500170964501	118
4	549	1106.283878012406	119
4	638	1283.749572627294	120
4	639	1285.737417558293	121
4	651	1314.123490159299	122
4	652	1315.435502092742	123
4	653	1320.281212747634	124
4	654	1320.387417127908	125
4	655	1321.318322580626	126
4	656	1325.849969472536	127
4	661	1333.05639723882	128
4	665	1335.229117087547	129
4	666	1335.450766256739	130
4	667	1336.861366431143	131
4	668	1343.86874965792	132
4	669	1344.536805597322	133
4	672	1349.429434365338	134
4	673	1350.6887589373	135
4	674	1350.702481813501	136
4	677	1352.46404875755	137
4	678	1353.20051375529	138
4	679	1355.268813672197	139
4	682	1359.191985000962	140
4	683	1362.400436908195	141
4	684	1364.005516907232	142
4	685	1365.161424890343	143
4	686	1365.884797465297	144
4	687	1366.364847941867	145
4	688	1368.752838093481	146
4	697	1375.454630459621	147
4	698	1376.129067846095	148
4	704	1377.784728908248	149
4	705	1382.88334119765	150
4	708	1389.342315277356	151
4	711	1402.875730120926	152
4	719	1414.559077544985	153
4	720	1416.75794888332	154
4	725	1423.052874735842	155
4	726	1428.482982193212	156
4	729	1441.320897186324	157
4	732	1442.023150585979	158
4	738	1456.439119525945	159
4	741	1459.847953892012	160
4	747	1483.956935206632	161
4	758	1507.866531849877	162
4	759	1510.303787123309	163
4	762	1514.383085066361	164
4	765	1518.575419208097	165
4	771	1527.578205007263	166
4	774	1540.866681957909	167
4	791	1581.909010441783	168
4	792	1582.673078002087	169
4	793	1585.114112226641	170
4	794	1585.562290319793	171
4	804	1608.668199897161	172
4	805	1611.531209575222	173
4	806	1615.31318816214	174
4	809	1617.344590012182	175
4	810	1619.864305874765	176
4	818	1656.723220048894	177
4	821	1661.375657435541	178
4	822	1661.722935671832	179
4	829	1681.264944885226	180
4	830	1683.591764224696	181
4	831	1683.713072085667	182
4	834	1686.546491862496	183
4	837	1691.611023842776	184
4	840	1699.207630368053	185
4	843	1705.882581062285	186
4	899	1831.553908783487	187
4	900	1832.038781625814	188
4	901	1835.038546171263	189
4	907	1839.080539797618	190
4	908	1839.171528184498	191
4	909	1841.251617303674	192
4	910	1846.684401687485	193
4	911	1846.94612349958	194
4	912	1848.259115526157	195
4	913	1852.959949994542	196
4	914	1855.652068451549	197
4	915	1859.908967764302	198
4	916	1859.930905047525	199
4	919	1864.015469609375	200
4	920	1864.928014823345	201
4	921	1869.932626905458	202
4	941	1958.165815095925	203
4	944	1966.574750978705	204
4	945	1974.048468423429	205
4	964	2044.980170816291	206
4	965	2047.166246655675	207
4	966	2058.984911338765	208
4	967	2059.414928197541	209
4	968	2066.33168428371	210
4	969	2066.68987030468	211
4	972	2068.250203271525	212
4	975	2076.258203595991	213
4	981	2087.181780513005	214
4	987	2098.698758209062	215
4	993	2120.658591682168	216
4	999	2146.493439678155	217
4	1040	2224.860628023658	218
4	1041	2227.433459178388	219
4	1042	2231.319593275956	220
4	1043	2232.449581720279	221
4	1044	2237.409910290245	222
4	1045	2242.115131972211	223
4	1046	2243.47277306515	224
4	1065	2304.667976197694	225
4	1066	2305.13915215633	226
4	1067	2307.343009970904	227
4	1068	2307.470699332617	228
4	1131	2404.758903670148	229
5	157	359.209726080365	11
5	158	360.614706855488	10
5	160	361.253872248248	10
5	164	374.032199633755	10
5	165	374.150756834255	9
5	167	382.033569988247	9
5	168	384.467835755335	9
5	170	386.094833956454	9
5	172	386.647961139654	10
5	173	388.070841338787	10
5	175	389.11721552314	10
5	176	391.698284341345	10
5	178	392.226410515015	10
5	180	392.907147651836	11
5	181	394.249511176552	11
5	182	394.68606334745	10
5	184	396.36227194133	10
5	185	401.534620273363	10
5	186	401.973192037578	9
5	198	437.031828547986	9
5	201	448.318011895377	10
5	203	449.686015902366	11
5	205	453.261598126964	12
5	207	457.149607354789	13
5	209	459.167132141822	14
5	211	459.902982320572	15
5	213	465.580001472756	15
5	215	465.705246785592	15
5	217	468.251201226019	16
5	221	475.822507308272	17
5	223	480.599642625747	17
5	225	480.825237471622	17
5	226	483.015606439559	17
5	227	486.651897764158	16
5	228	495.262206395856	15
5	229	496.72781978288	14
5	230	499.706938478492	13
5	231	502.755353811891	12
5	235	507.50507235253	11
5	239	509.866602764496	11
5	241	523.454310530628	11
5	242	525.334526910431	10
5	248	532.51419919372	10
5	251	539.722009720888	11
5	253	543.960260144784	12
5	258	554.487410675314	12
5	260	555.155696511461	12
5	261	559.372352079684	12
5	262	566.435451313649	11
5	263	571.828104943424	10
5	264	584.115807346139	9
5	265	587.590841545628	8
5	266	592.809443366013	7
5	267	593.140421698777	6
5	271	596.98708789577	6
5	273	598.284845066716	7
5	275	598.576374058973	8
5	279	602.620604624623	9
5	281	606.95438653281	10
5	283	610.162704550092	11
5	285	614.958540455523	12
5	287	623.406264846895	13
5	293	637.852286977402	14
5	295	648.643934406955	15
5	297	672.450136744038	15
5	298	672.698051957936	14
5	299	674.906746617312	13
5	301	676.580654484565	13
5	305	679.89463627924	14
5	307	681.58084902159	14
5	309	683.746700318794	14
5	310	684.733717410601	14
5	312	685.331815749873	14
5	314	690.996536964801	15
5	316	692.204779726722	16
5	320	695.353883843244	17
5	322	706.298540363435	18
5	324	709.654840338797	18
5	325	712.80037043913	17
5	326	713.505513425138	16
5	334	722.445853962356	16
5	336	723.104634167044	17
5	337	732.068209816852	17
5	339	733.272343944783	17
5	343	739.797730469372	18
5	345	740.509362681322	19
5	352	750.972521332418	20
5	354	760.22695815373	21
5	356	761.712095157267	22
5	359	777.587614563966	23
5	363	789.201234791078	24
5	365	789.526551019467	25
5	367	789.861488633681	26
5	373	795.939403761245	27
5	375	800.384150551149	27
5	376	803.706782213239	26
5	377	804.542416748821	25
5	378	806.625352498286	24
5	382	815.856184750897	23
5	384	819.542236411746	23
5	385	820.600448581916	23
5	386	827.702692580598	22
5	387	827.846169576957	21
5	388	828.117938523838	20
5	395	835.156933545261	20
5	398	837.724076214384	21
5	399	838.147662406313	21
5	400	845.746608757716	20
5	404	847.135361399501	19
5	405	849.003621694706	18
5	406	858.889788600261	17
5	407	859.413098901785	16
5	408	862.24206387262	15
5	409	863.954261759211	14
5	410	866.011476130878	13
5	411	868.71394051758	12
5	412	870.664054251818	11
5	413	871.117074697998	10
5	414	872.832814128335	9
5	415	879.708431793783	8
5	419	882.462444236032	8
5	421	890.900647318088	9
5	427	899.670495225509	10
5	432	902.698546084606	11
5	434	903.095442213722	12
5	435	904.3576342882	12
5	437	905.089861502072	12
5	439	911.003404036779	13
5	443	915.690760576577	14
5	445	917.775434736723	15
5	449	924.213556890148	16
5	452	934.076817536199	17
5	458	936.960064299383	18
5	460	939.38482909942	19
5	468	957.912134853835	20
5	472	959.548743667564	21
5	474	973.360675123349	21
5	478	978.23760579542	21
5	480	984.073811861599	21
5	482	985.919423558647	21
5	483	990.022940650357	21
5	484	993.514064841098	20
5	485	995.010662746056	19
5	486	998.658082156388	18
5	488	998.744812864239	18
5	489	999.682763323246	18
5	491	999.8027166863	18
5	495	1005.637083893272	19
5	497	1007.169302958872	19
5	498	1007.290065722823	18
5	499	1011.432059743472	17
5	501	1018.773414308077	17
5	502	1024.43620210525	17
5	504	1026.72492787685	17
5	505	1027.561055844389	17
5	506	1027.692446565083	16
5	507	1030.741227232535	15
5	508	1031.300628554841	14
5	509	1033.158633278809	13
5	510	1034.701138840509	12
5	511	1035.685517217313	11
5	512	1038.082735504414	10
5	513	1038.246292319259	9
5	523	1054.801043001804	9
5	525	1064.652973912992	10
5	527	1071.306953498699	10
5	531	1078.333138524173	9
5	532	1081.625785479846	8
5	533	1082.447549698863	7
5	534	1087.195176640733	6
5	535	1087.781252427124	5
5	537	1093.355992575201	5
5	538	1094.439899922299	5
5	539	1095.487825058295	4
5	540	1096.020207007225	3
5	541	1096.432330524137	2
5	542	1099.541146311734	1
5	543	1099.989218319597	0
5	545	1100.282182876396	0
5	546	1100.500170964501	0
5	548	1104.978036121906	0
5	549	1106.283878012406	0
5	551	1118.356984565768	0
5	555	1127.414208507312	1
5	560	1133.514281915121	2
5	564	1144.360864369609	3
5	569	1153.951718723298	4
5	573	1161.097070572118	5
5	582	1172.04226562065	6
5	585	1178.407903726891	7
5	593	1184.211304218178	8
5	595	1184.300423029734	9
5	597	1184.435390764814	10
5	599	1185.138503952723	11
5	601	1185.401070630046	12
5	603	1191.107114039485	13
5	605	1194.270322303708	14
5	607	1199.917749928224	15
5	611	1215.207056702361	16
5	613	1217.263576943163	17
5	617	1245.863388766485	18
5	620	1253.407346792082	19
5	622	1254.654480348304	20
5	629	1263.794569950446	21
5	636	1277.485357624897	22
5	638	1283.749572627294	22
5	639	1285.737417558293	21
5	643	1290.248085656458	21
5	651	1314.123490159299	21
5	652	1315.435502092742	20
5	653	1320.281212747634	19
5	654	1320.387417127908	18
5	655	1321.318322580626	17
5	656	1325.849969472536	16
5	658	1328.607576263913	16
5	660	1332.266115075993	17
5	661	1333.05639723882	17
5	665	1335.229117087547	16
5	666	1335.450766256739	15
5	667	1336.861366431143	14
5	668	1343.86874965792	13
5	669	1344.536805597322	12
5	671	1345.999171837684	12
5	672	1349.429434365338	12
5	673	1350.6887589373	11
5	674	1350.702481813501	10
5	676	1351.180955470854	10
5	677	1352.46404875755	10
5	678	1353.20051375529	9
5	679	1355.268813672197	8
5	681	1358.024277942655	8
5	682	1359.191985000962	8
5	683	1362.400436908195	7
5	684	1364.005516907232	6
5	685	1365.161424890343	5
5	686	1365.884797465297	4
5	687	1366.364847941867	3
5	688	1368.752838093481	2
5	695	1375.328048318735	2
5	697	1375.454630459621	2
5	698	1376.129067846095	1
5	702	1376.578224452794	1
5	704	1377.784728908248	1
5	705	1382.88334119765	0
5	707	1385.424457924955	0
5	708	1389.342315277356	0
5	710	1400.686626234377	0
5	711	1402.875730120926	0
5	716	1412.945932439393	0
5	718	1413.277010384735	1
5	719	1414.559077544985	1
5	720	1416.75794888332	0
5	722	1420.422398902746	0
5	724	1421.552048863122	1
5	725	1423.052874735842	1
5	726	1428.482982193212	0
5	728	1439.27524498052	0
5	729	1441.320897186324	0
5	731	1441.998615398113	0
5	732	1442.023150585979	0
5	737	1454.752516381548	0
5	738	1456.439119525945	0
5	740	1458.614725343514	0
5	741	1459.847953892012	0
5	743	1478.733427612972	0
5	747	1483.956935206632	0
5	755	1505.301943959205	0
5	757	1507.576092677335	1
5	758	1507.866531849877	1
5	759	1510.303787123309	0
5	761	1513.948258337622	0
5	762	1514.383085066361	0
5	764	1517.494098948675	0
5	765	1518.575419208097	0
5	767	1523.807210772095	0
5	771	1527.578205007263	0
5	773	1530.266107318484	0
5	774	1540.866681957909	0
5	778	1547.121827412251	0
5	782	1553.926200376688	1
5	784	1556.691645862258	2
5	786	1566.048321592974	3
5	789	1575.850548390337	4
5	791	1581.909010441783	4
5	792	1582.673078002087	3
5	793	1585.114112226641	2
5	794	1585.562290319793	1
5	798	1592.939572376582	1
5	800	1600.440615470523	2
5	803	1607.942529139216	3
5	804	1608.668199897161	3
5	805	1611.531209575222	2
5	806	1615.31318816214	1
5	808	1617.209974063659	1
5	809	1617.344590012182	1
5	810	1619.864305874765	0
5	814	1645.212310001142	0
5	816	1648.295608035408	1
5	818	1656.723220048894	1
5	820	1661.146836982142	1
5	821	1661.375657435541	1
5	822	1661.722935671832	0
5	824	1666.811507272016	0
5	826	1668.780869812961	1
5	828	1675.853363345013	2
5	829	1681.264944885226	2
5	830	1683.591764224696	1
5	831	1683.713072085667	0
5	833	1685.52198025974	0
5	834	1686.546491862496	0
5	836	1690.619515589583	0
5	837	1691.611023842776	0
5	839	1698.881351353874	0
5	840	1699.207630368053	0
5	842	1702.270853690546	0
5	843	1705.882581062285	0
5	847	1716.684891854079	0
5	855	1742.107707459114	1
5	858	1758.540050622779	2
5	860	1763.847708067724	3
5	862	1767.394836815643	4
5	864	1769.754296063747	5
5	866	1771.243760096415	6
5	875	1797.197225012532	7
5	884	1807.286711899146	8
5	888	1812.682840100208	9
5	890	1812.766270975972	10
5	892	1814.271161976253	11
5	896	1829.810402453992	12
5	898	1830.86100559469	13
5	899	1831.553908783487	13
5	900	1832.038781625814	12
5	901	1835.038546171263	11
5	905	1837.834111699134	11
5	907	1839.080539797618	11
5	908	1839.171528184498	10
5	909	1841.251617303674	9
5	910	1846.684401687485	8
5	911	1846.94612349958	7
5	912	1848.259115526157	6
5	913	1852.959949994542	5
5	914	1855.652068451549	4
5	915	1859.908967764302	3
5	916	1859.930905047525	2
5	918	1863.053869228857	2
5	919	1864.015469609375	2
5	920	1864.928014823345	1
5	921	1869.932626905458	0
5	933	1921.548888446662	0
5	935	1925.084728108583	1
5	941	1958.165815095925	1
5	943	1966.461828507534	1
5	944	1966.574750978705	1
5	945	1974.048468423429	0
5	952	1996.442726234962	0
5	954	1999.018505728651	1
5	956	2003.133855187522	2
5	958	2022.102208161922	3
5	960	2026.984715526444	4
5	962	2043.741429300996	5
5	964	2044.980170816291	5
5	965	2047.166246655675	4
5	966	2058.984911338765	3
5	967	2059.414928197541	2
5	968	2066.33168428371	1
5	969	2066.68987030468	0
5	971	2068.035895002599	0
5	972	2068.250203271525	0
5	974	2070.729528780533	0
5	975	2076.258203595991	0
5	977	2082.060564272508	0
5	981	2087.181780513005	0
5	985	2092.756536328325	0
5	987	2098.698758209062	0
5	991	2107.788762825608	0
5	993	2120.658591682168	0
5	998	2145.586000304457	0
5	999	2146.493439678155	0
5	1001	2157.470008204503	0
5	1013	2170.621603874021	1
5	1018	2197.669224470044	2
5	1022	2198.674373501187	3
5	1024	2203.554715304965	4
5	1027	2210.498316660967	5
5	1029	2212.274921811409	6
5	1031	2218.480584148708	7
5	1034	2221.48183917862	8
5	1036	2221.489280892939	9
5	1038	2223.125972974633	10
5	1040	2224.860628023658	10
5	1041	2227.433459178388	9
5	1042	2231.319593275956	8
5	1043	2232.449581720279	7
5	1044	2237.409910290245	6
5	1045	2242.115131972211	5
5	1046	2243.47277306515	4
5	1052	2268.169216379668	4
5	1056	2280.874800280286	5
5	1063	2301.881038404028	6
5	1065	2304.667976197694	6
5	1066	2305.13915215633	5
5	1067	2307.343009970904	4
5	1068	2307.470699332617	3
5	1076	2309.910991732672	3
5	1079	2312.359914615875	4
5	1082	2318.170158082466	5
5	1086	2327.468414806708	6
5	1098	2343.996904793849	7
5	1104	2350.382606851478	8
5	1109	2358.611579696822	9
5	1113	2363.060537216027	10
5	1116	2373.50460996526	11
5	1118	2381.039792987798	12
5	1124	2386.087771682966	13
5	1127	2394.407798511697	14
5	1130	2404.565149470387	15
5	1131	2404.758903670148	15
5	1141	2422.495692925158	15
5	1143	2423.823415495132	16
5	1145	2424.472143381992	17
5	1147	2430.129653405028	18
5	1151	2439.453006626528	19
5	1156	2446.289358719912	20
5	1162	2453.293347744151	21
5	1167	2458.70246381101	22
5	1169	2460.449554175474	23
5	1171	2464.794619718189	24
5	1173	2466.366369433583	25
5	1178	2477.751206080727	26
5	1185	2487.907921574443	27
5	1187	2491.854625862879	28
6	157	359.209726080365	118.83387411332
6	158	360.614706855488	114.55521066533
6	164	374.032199633755	108.51117560284
6	165	374.150756834255	96.168770371418
6	168	384.467835755335	89.433738520534
6	173	388.070841338787	83.369266203364
6	176	391.698284341345	86.781598846957
6	181	394.249511176552	83.779967887371
6	182	394.68606334745	79.865335598711
6	185	401.534620273363	83.302008719069
6	186	401.973192037578	77.160384535224
6	213	465.580001472756	96.621598966767
6	223	480.599642625747	94.504808669293
6	226	483.015606439559	96.367645299905
6	227	486.651897764158	97.534682241018
6	228	495.262206395856	103.03579588084
6	229	496.72781978288	103.82067213104
6	230	499.706938478492	103.34466653716
6	231	502.755353811891	99.875036690235
6	235	507.50507235253	59.187060457153
6	241	523.454310530628	70.192712403664
6	242	525.334526910431	68.184919555642
6	258	554.487410675314	88.782163889722
6	261	559.372352079684	91.121150853665
6	262	566.435451313649	96.633203064709
6	263	571.828104943424	96.005597635152
6	264	584.115807346139	103.29056987452
6	265	587.590841545628	84.296157769517
6	266	592.809443366013	85.098788168215
6	267	593.140421698777	83.273818934281
6	297	672.450136744038	139.93593755032
6	298	672.698051957936	132.97604223705
6	299	674.906746617312	130.94648647253
6	307	681.58084902159	126.42515251013
6	310	684.733717410601	89.842278297703
6	324	709.654840338797	111.36999527208
6	325	712.80037043913	114.22399638016
6	326	713.505513425138	110.88490880051
6	337	732.068209816852	117.10966936133
6	375	800.384150551149	162.53186357375
6	376	803.706782213239	155.06284780628
6	377	804.542416748821	127.96176226426
6	378	806.625352498286	128.86788522581
6	382	815.856184750897	132.1094844321
6	385	820.600448581916	135.26863283204
6	386	827.702692580598	136.7061556158
6	387	827.846169576957	135.64138985023
6	388	828.117938523838	134.79155738854
6	399	838.147662406313	119.74570660566
6	400	845.746608757716	124.52586280935
6	404	847.135361399501	124.03072723246
6	405	849.003621694706	115.73127774992
6	406	858.889788600261	122.02753508973
6	407	859.413098901785	119.61536843241
6	408	862.24206387262	121.7327011913
6	409	863.954261759211	112.98174042679
6	410	866.011476130878	105.78451797715
6	411	868.71394051758	107.00184536031
6	412	870.664054251818	93.076439687852
6	413	871.117074697998	81.91583990692
6	414	872.832814128335	83.306263108868
6	415	879.708431793783	89.846943160102
6	435	904.3576342882	96.700001338746
6	474	973.360675123349	138.20374157809
6	480	984.073811861599	138.29557052113
6	483	990.022940650357	109.26124341772
6	484	993.514064841098	111.05162060507
6	485	995.010662746056	104.11001542797
6	486	998.658082156388	98.987586930879
6	489	999.682763323246	96.98421723864
6	497	1007.169302958872	102.0794414568
6	498	1007.290065722823	96.286661686044
6	499	1011.432059743472	97.824533987941
6	502	1024.43620210525	108.74544152867
6	505	1027.561055844389	109.78562110767
6	506	1027.692446565083	103.47888967494
6	507	1030.741227232535	96.664409696336
6	508	1031.300628554841	94.340564255458
6	509	1033.158633278809	93.773804179389
6	510	1034.701138840509	77.653051823681
6	511	1035.685517217313	77.773382363478
6	512	1038.082735504414	79.872653216417
6	513	1038.246292319259	78.697548651695
6	527	1071.306953498699	85.387529940052
6	531	1078.333138524173	78.530421837873
6	532	1081.625785479846	76.035647504467
6	533	1082.447549698863	76.810465805591
6	534	1087.195176640733	68.421762332656
6	535	1087.781252427124	61.056324550274
6	538	1094.439899922299	56.131741903776
6	539	1095.487825058295	42.194372874301
6	540	1096.020207007225	41.219164005421
6	541	1096.432330524137	31.779356611145
6	542	1099.541146311734	27.315615905548
6	543	1099.989218319597	6.633225744396
6	546	1100.500170964501	0.217988088105
6	549	1106.283878012406	1.3058418905
6	638	1283.749572627294	163.66314644419
6	639	1285.737417558293	158.32320905098
6	651	1314.123490159299	169.76262578969
6	652	1315.435502092742	161.48378336944
6	653	1320.281212747634	159.18414217552
6	654	1320.387417127908	148.34515150726
6	655	1321.318322580626	142.91041885373
6	656	1325.849969472536	141.63866525436
6	661	1333.05639723882	148.75597420909
6	665	1335.229117087547	150.09061313482
6	666	1335.450766256739	150.04969562669
6	667	1336.861366431143	145.75425239166
6	668	1343.86874965792	149.59842735421
6	669	1344.536805597322	144.6190556691
6	672	1349.429434365338	134.22237766298
6	673	1350.6887589373	133.42518199414
6	674	1350.702481813501	104.83909304702
6	677	1352.46404875755	99.056701965468
6	678	1353.20051375529	98.546033406986
6	679	1355.268813672197	91.474243721751
6	682	1359.191985000962	81.706627376065
6	683	1362.400436908195	72.438154504375
6	684	1364.005516907232	73.757431250774
6	685	1365.161424890343	36.55384862643
6	686	1365.884797465297	33.618682389304
6	687	1366.364847941867	31.622706258285
6	688	1368.752838093481	22.753666255797
6	697	1375.454630459621	17.430352516966
6	698	1376.129067846095	7.170023255674
6	704	1377.784728908248	1.400944482958
6	705	1382.88334119765	6.305116744856
6	708	1389.342315277356	3.917857352401
6	711	1402.875730120926	2.189103886549
6	719	1414.559077544985	1.613145105592
6	720	1416.75794888332	3.480938498585
6	725	1423.052874735842	2.630475833096
6	726	1428.482982193212	6.93093333009
6	729	1441.320897186324	2.045652205804
6	732	1442.023150585979	0.024535187866
6	738	1456.439119525945	1.686603144397
6	741	1459.847953892012	1.233228548498
6	747	1483.956935206632	3.8972139247
6	758	1507.866531849877	2.564587890672
6	759	1510.303787123309	2.727694445974
6	762	1514.383085066361	0.434826728739
6	765	1518.575419208097	1.081320259422
6	771	1527.578205007263	3.335866502762
6	774	1540.866681957909	10.600574639425
6	791	1581.909010441783	34.787183029532
6	792	1582.673078002087	28.746877625399
6	793	1585.114112226641	28.422466364383
6	794	1585.562290319793	19.513968726819
6	804	1608.668199897161	18.026201643244
6	805	1611.531209575222	18.59163719864
6	806	1615.31318816214	14.872572691617
6	809	1617.344590012182	9.402060872966
6	810	1619.864305874765	2.654331811106
6	818	1656.723220048894	11.510910047752
6	821	1661.375657435541	13.080049400133
6	822	1661.722935671832	0.57609868969
6	829	1681.264944885226	14.45343761321
6	830	1683.591764224696	14.810894411735
6	831	1683.713072085667	7.859708740654
6	834	1686.546491862496	1.024511602756
6	837	1691.611023842776	0.991508253193
6	840	1699.207630368053	0.326279014179
6	843	1705.882581062285	3.611727371739
6	899	1831.553908783487	114.86901692941
6	900	1832.038781625814	89.9310741667
6	901	1835.038546171263	76.498495548484
6	907	1839.080539797618	71.685702981975
6	908	1839.171528184498	69.417232120751
6	909	1841.251617303674	70.007857207259
6	910	1846.684401687485	49.487176674953
6	911	1846.94612349958	39.659411600434
6	912	1848.259115526157	35.576275425949
6	913	1852.959949994542	40.19367901857
6	914	1855.652068451549	41.380906475296
6	915	1859.908967764302	30.09856531031
6	916	1859.930905047525	29.069899452835
6	919	1864.015469609375	26.80766000771
6	920	1864.928014823345	27.093903124211
6	921	1869.932626905458	6.878757676601
6	941	1958.165815095925	36.616926649263
6	944	1966.574750978705	41.490022870122
6	945	1974.048468423429	7.586639915895
6	964	2044.980170816291	48.537444581329
6	965	2047.166246655675	48.147740927024
6	966	2058.984911338765	55.851056151243
6	967	2059.414928197541	37.312720035619
6	968	2066.33168428371	39.346968757266
6	969	2066.68987030468	22.948441003684
6	972	2068.250203271525	0.214308268926
6	975	2076.258203595991	5.528674815458
6	981	2087.181780513005	3.326627166786
6	987	2098.698758209062	5.942221880737
6	993	2120.658591682168	12.86982885656
6	999	2146.493439678155	0.907439373698
6	1040	2224.860628023658	58.300366011305
6	1041	2227.433459178388	56.811855304367
6	1042	2231.319593275956	33.650368805912
6	1043	2232.449581720279	33.775208219092
6	1044	2237.409910290245	33.85519498528
6	1045	2242.115131972211	31.616815311244
6	1046	2243.47277306515	31.197851253741
6	1065	2304.667976197694	81.542003223061
6	1066	2305.13915215633	59.879157910752
6	1067	2307.343009970904	39.173793591236
6	1068	2307.470699332617	26.595899052331
6	1131	2404.758903670148	114.56314233216
7	160	361.253872248248	11
7	167	382.033569988247	10
7	170	386.094833956454	10
7	172	386.647961139654	11
7	175	389.11721552314	11
7	178	392.226410515015	11
7	180	392.907147651836	12
7	184	396.36227194133	11
7	198	437.031828547986	10
7	201	448.318011895377	11
7	203	449.686015902366	12
7	205	453.261598126964	13
7	207	457.149607354789	14
7	209	459.167132141822	15
7	211	459.902982320572	16
7	215	465.705246785592	16
7	217	468.251201226019	17
7	221	475.822507308272	18
7	225	480.825237471622	18
7	239	509.866602764496	12
7	248	532.51419919372	11
7	251	539.722009720888	12
7	253	543.960260144784	13
7	260	555.155696511461	13
7	271	596.98708789577	7
7	273	598.284845066716	8
7	275	598.576374058973	9
7	279	602.620604624623	10
7	281	606.95438653281	11
7	283	610.162704550092	12
7	285	614.958540455523	13
7	287	623.406264846895	14
7	293	637.852286977402	15
7	295	648.643934406955	16
7	301	676.580654484565	14
7	305	679.89463627924	15
7	309	683.746700318794	15
7	312	685.331815749873	15
7	314	690.996536964801	16
7	316	692.204779726722	17
7	320	695.353883843244	18
7	322	706.298540363435	19
7	334	722.445853962356	17
7	336	723.104634167044	18
7	339	733.272343944783	18
7	343	739.797730469372	19
7	345	740.509362681322	20
7	352	750.972521332418	21
7	354	760.22695815373	22
7	356	761.712095157267	23
7	359	777.587614563966	24
7	363	789.201234791078	25
7	365	789.526551019467	26
7	367	789.861488633681	27
7	373	795.939403761245	28
7	384	819.542236411746	24
7	395	835.156933545261	21
7	398	837.724076214384	22
7	419	882.462444236032	9
7	421	890.900647318088	10
7	427	899.670495225509	11
7	432	902.698546084606	12
7	434	903.095442213722	13
7	437	905.089861502072	13
7	439	911.003404036779	14
7	443	915.690760576577	15
7	445	917.775434736723	16
7	449	924.213556890148	17
7	452	934.076817536199	18
7	458	936.960064299383	19
7	460	939.38482909942	20
7	468	957.912134853835	21
7	472	959.548743667564	22
7	478	978.23760579542	22
7	482	985.919423558647	22
7	488	998.744812864239	19
7	491	999.8027166863	19
7	495	1005.637083893272	20
7	501	1018.773414308077	18
7	504	1026.72492787685	18
7	523	1054.801043001804	10
7	525	1064.652973912992	11
7	537	1093.355992575201	6
7	545	1100.282182876396	1
7	548	1104.978036121906	1
7	551	1118.356984565768	1
7	555	1127.414208507312	2
7	560	1133.514281915121	3
7	564	1144.360864369609	4
7	569	1153.951718723298	5
7	573	1161.097070572118	6
7	582	1172.04226562065	7
7	585	1178.407903726891	8
7	593	1184.211304218178	9
7	595	1184.300423029734	10
7	597	1184.435390764814	11
7	599	1185.138503952723	12
7	601	1185.401070630046	13
7	603	1191.107114039485	14
7	605	1194.270322303708	15
7	607	1199.917749928224	16
7	611	1215.207056702361	17
7	613	1217.263576943163	18
7	617	1245.863388766485	19
7	620	1253.407346792082	20
7	622	1254.654480348304	21
7	629	1263.794569950446	22
7	636	1277.485357624897	23
7	643	1290.248085656458	22
7	658	1328.607576263913	17
7	660	1332.266115075993	18
7	671	1345.999171837684	13
7	676	1351.180955470854	11
7	681	1358.024277942655	9
7	695	1375.328048318735	3
7	702	1376.578224452794	2
7	707	1385.424457924955	1
7	710	1400.686626234377	1
7	716	1412.945932439393	1
7	718	1413.277010384735	2
7	722	1420.422398902746	1
7	724	1421.552048863122	2
7	728	1439.27524498052	1
7	731	1441.998615398113	1
7	737	1454.752516381548	1
7	740	1458.614725343514	1
7	743	1478.733427612972	1
7	755	1505.301943959205	1
7	757	1507.576092677335	2
7	761	1513.948258337622	1
7	764	1517.494098948675	1
7	767	1523.807210772095	1
7	773	1530.266107318484	1
7	778	1547.121827412251	1
7	782	1553.926200376688	2
7	784	1556.691645862258	3
7	786	1566.048321592974	4
7	789	1575.850548390337	5
7	798	1592.939572376582	2
7	800	1600.440615470523	3
7	803	1607.942529139216	4
7	808	1617.209974063659	2
7	814	1645.212310001142	1
7	816	1648.295608035408	2
7	820	1661.146836982142	2
7	824	1666.811507272016	1
7	826	1668.780869812961	2
7	828	1675.853363345013	3
7	833	1685.52198025974	1
7	836	1690.619515589583	1
7	839	1698.881351353874	1
7	842	1702.270853690546	1
7	847	1716.684891854079	1
7	855	1742.107707459114	2
7	858	1758.540050622779	3
7	860	1763.847708067724	4
7	862	1767.394836815643	5
7	864	1769.754296063747	6
7	866	1771.243760096415	7
7	875	1797.197225012532	8
7	884	1807.286711899146	9
7	888	1812.682840100208	10
7	890	1812.766270975972	11
7	892	1814.271161976253	12
7	896	1829.810402453992	13
7	898	1830.86100559469	14
7	905	1837.834111699134	12
7	918	1863.053869228857	3
7	933	1921.548888446662	1
7	935	1925.084728108583	2
7	943	1966.461828507534	2
7	952	1996.442726234962	1
7	954	1999.018505728651	2
7	956	2003.133855187522	3
7	958	2022.102208161922	4
7	960	2026.984715526444	5
7	962	2043.741429300996	6
7	971	2068.035895002599	1
7	974	2070.729528780533	1
7	977	2082.060564272508	1
7	985	2092.756536328325	1
7	991	2107.788762825608	1
7	998	2145.586000304457	1
7	1001	2157.470008204503	1
7	1013	2170.621603874021	2
7	1018	2197.669224470044	3
7	1022	2198.674373501187	4
7	1024	2203.554715304965	5
7	1027	2210.498316660967	6
7	1029	2212.274921811409	7
7	1031	2218.480584148708	8
7	1034	2221.48183917862	9
7	1036	2221.489280892939	10
7	1038	2223.125972974633	11
7	1052	2268.169216379668	5
7	1056	2280.874800280286	6
7	1063	2301.881038404028	7
7	1076	2309.910991732672	4
7	1079	2312.359914615875	5
7	1082	2318.170158082466	6
7	1086	2327.468414806708	7
7	1098	2343.996904793849	8
7	1104	2350.382606851478	9
7	1109	2358.611579696822	10
7	1113	2363.060537216027	11
7	1116	2373.50460996526	12
7	1118	2381.039792987798	13
7	1124	2386.087771682966	14
7	1127	2394.407798511697	15
7	1130	2404.565149470387	16
7	1141	2422.495692925158	16
7	1143	2423.823415495132	17
7	1145	2424.472143381992	18
7	1147	2430.129653405028	19
7	1151	2439.453006626528	20
7	1156	2446.289358719912	21
7	1162	2453.293347744151	22
7	1167	2458.70246381101	23
7	1169	2460.449554175474	24
7	1171	2464.794619718189	25
7	1173	2466.366369433583	26
7	1178	2477.751206080727	27
7	1185	2487.907921574443	28
7	1187	2491.854625862879	29
8	162	368.958402505989	1
8	188	402.880317121656	1
8	190	402.959438767677	2
8	193	411.151057594791	2
8	195	425.50773619485	3
8	219	469.80224824894	1
8	233	503.294683776111	1
8	237	507.710655197798	1
8	244	526.672789580331	1
8	246	527.294692179906	2
8	256	552.879779829314	1
8	269	594.891439112898	1
8	277	601.794162164892	2
8	289	627.791762872973	3
8	303	677.757467272476	1
8	318	693.3263811353	1
8	328	718.401955800649	1
8	331	721.220745948366	1
8	341	736.862253510529	1
8	347	747.539614225181	2
8	350	750.606602021905	2
8	361	780.773926758294	2
8	369	790.1209739769	3
8	380	807.657632949454	1
8	390	830.082990056291	1
8	393	834.116293496415	1
8	402	845.77824134047	1
8	417	880.761697232639	1
8	423	892.145415789384	2
8	425	894.373028441513	3
8	441	913.607525755531	1
8	447	920.277206925292	2
8	454	934.672708179719	2
8	456	936.028935313202	3
8	465	957.048087016828	1
8	470	958.210082287997	1
8	476	976.587912042603	1
8	493	1005.590137975379	1
8	515	1038.308158018523	1
8	517	1038.545319263007	2
8	521	1053.293452183994	1
8	529	1072.225530406186	1
8	553	1120.086426183102	1
8	557	1128.152243321753	2
8	562	1135.843037619533	2
8	566	1152.246671720459	3
8	571	1154.142983468966	3
8	575	1162.317380905273	4
8	579	1169.470891429442	3
8	587	1180.063672947012	2
8	589	1182.484086536195	3
8	591	1184.083476601723	4
8	615	1219.368073518	3
8	624	1257.720377731584	3
8	626	1258.681009477602	4
8	632	1270.276931261535	3
8	641	1289.96228240382	1
8	645	1292.563411709023	2
8	648	1308.426570154145	2
8	663	1334.742141683582	1
8	690	1368.959044590421	1
8	692	1371.947207617954	2
8	700	1376.38378442529	1
8	713	1405.507827071999	1
8	734	1444.385113574848	1
8	745	1480.059721281932	1
8	749	1488.726294780898	1
8	752	1496.141136259839	1
8	769	1524.242338504501	1
8	776	1542.447631622299	1
8	780	1549.466082130356	2
8	796	1590.641998253917	1
8	812	1633.714350027253	1
8	845	1715.229752380084	1
8	849	1723.105769530319	2
8	851	1735.705584841452	3
8	853	1739.312436688954	4
8	870	1781.020742921571	2
8	873	1790.989767933443	2
8	877	1798.01125817734	3
8	879	1799.973669012292	4
8	882	1802.788611750136	4
8	903	1837.207809601665	1
8	923	1874.214819834976	1
8	926	1877.492323099577	1
8	929	1899.01190856079	1
8	931	1908.705791028292	2
8	937	1926.80487591959	3
8	947	1984.546275450773	1
8	950	1996.012842413922	1
8	979	2083.855153346219	1
8	983	2092.664060113132	1
8	989	2104.851380459965	1
8	995	2122.543875262575	1
8	1003	2157.532000019822	1
8	1005	2160.769943346489	2
8	1009	2166.560262012353	1
8	1011	2170.316721573153	2
8	1016	2188.511548646784	2
8	1020	2198.633767710102	3
8	1048	2245.259994245578	1
8	1050	2265.579539773758	2
8	1058	2280.874893329279	1
8	1061	2290.195761337989	1
8	1070	2308.037549004393	1
8	1072	2308.085742285505	2
8	1074	2308.887224526848	3
8	1084	2324.804840986635	2
8	1089	2333.642706438426	2
8	1092	2336.358455922297	2
8	1094	2338.017678787934	3
8	1096	2339.680804628958	4
8	1100	2346.97091279548	5
8	1106	2352.329510823868	4
8	1111	2360.360545668002	4
8	1120	2381.934676952752	4
8	1133	2411.664070294826	1
8	1135	2416.504309095825	2
8	1137	2417.319899226566	3
8	1139	2421.859081073032	4
8	1149	2433.0836491068	5
8	1154	2442.737002327712	5
8	1159	2450.301596221221	5
8	1165	2455.396158994061	4
8	1176	2475.635191458486	4
8	1180	2478.070608996934	5
8	1183	2486.574186514758	5
9	162	368.958402505989	4
9	188	402.880317121656	5
9	219	469.80224824894	6
9	233	503.294683776111	7
9	237	507.710655197798	8
9	244	526.672789580331	9
9	256	552.879779829314	10
9	269	594.891439112898	11
9	303	677.757467272476	12
9	318	693.3263811353	13
9	328	718.401955800649	14
9	331	721.220745948366	15
9	341	736.862253510529	16
9	380	807.657632949454	17
9	390	830.082990056291	18
9	393	834.116293496415	19
9	402	845.77824134047	20
9	417	880.761697232639	21
9	441	913.607525755531	22
9	465	957.048087016828	23
9	470	958.210082287997	24
9	476	976.587912042603	25
9	493	1005.590137975379	26
9	515	1038.308158018523	27
9	521	1053.293452183994	28
9	529	1072.225530406186	29
9	553	1120.086426183102	30
9	641	1289.96228240382	31
9	663	1334.742141683582	32
9	690	1368.959044590421	33
9	700	1376.38378442529	34
9	745	1480.059721281932	35
9	769	1524.242338504501	36
9	796	1590.641998253917	37
9	903	1837.207809601665	38
9	979	2083.855153346219	39
9	1003	2157.532000019822	40
9	1009	2166.560262012353	41
9	1048	2245.259994245578	42
9	1058	2280.874893329279	43
9	1061	2290.195761337989	44
9	1070	2308.037549004393	45
9	1133	2411.664070294826	46
10	162	368.958402505989	0
10	188	402.880317121656	0
10	191	409.811523471617	6.85208470394
10	196	431.123942280116	19.972884685325
10	199	445.7437475643	20.23601136945
10	219	469.80224824894	0
10	233	503.294683776111	0
10	237	507.710655197798	0
10	244	526.672789580331	0
10	249	536.17830340601	8.883611226104
10	256	552.879779829314	0
10	269	594.891439112898	0
10	290	628.226246546367	26.432084381475
10	291	629.405505973118	1.613743100145
10	303	677.757467272476	0
10	318	693.3263811353	0
10	328	718.401955800649	0
10	331	721.220745948366	0
10	341	736.862253510529	0
10	348	750.379553206277	2.839938981096
10	357	774.527051617709	23.920449595804
10	370	790.727047039978	9.953120281684
10	371	795.75425872305	5.63328474615
10	380	807.657632949454	0
10	390	830.082990056291	0
10	393	834.116293496415	0
10	402	845.77824134047	0
10	417	880.761697232639	0
10	428	899.715446996592	7.570031207208
10	429	900.548480789157	6.175452347644
10	441	913.607525755531	0
10	450	925.45705234046	5.179845415168
10	461	939.620624457418	4.947916277699
10	462	948.314548209368	12.285612896166
10	465	957.048087016828	0
10	470	958.210082287997	0
10	476	976.587912042603	0
10	493	1005.590137975379	0
10	515	1038.308158018523	0
10	518	1043.187582900631	4.642263637624
10	521	1053.293452183994	0
10	529	1072.225530406186	0
10	553	1120.086426183102	0
10	558	1132.106904619314	3.954661297561
10	567	1153.762009337171	17.918971717638
10	576	1162.515919509563	10.269247789104
10	577	1163.196078546451	9.053095077485
10	580	1170.832360602828	8.514979697555
10	583	1177.540132266633	8.069240837191
10	608	1205.830557219084	25.766884272072
10	609	1211.771029399235	29.28694286304
10	618	1252.791913267067	68.708436665344
10	627	1263.584148379124	44.216074861124
10	630	1267.503576421611	9.783198690027
10	633	1273.810596099796	15.129586622194
10	634	1276.416179734764	6.139248473229
10	641	1289.96228240382	0
10	646	1305.08413164305	12.520719934027
10	649	1309.90897681211	1.482406657965
10	663	1334.742141683582	0
10	690	1368.959044590421	0
10	693	1373.267533819191	1.320326201237
10	700	1376.38378442529	0
10	713	1405.507827071999	0
10	734	1444.385113574848	0
10	745	1480.059721281932	0
10	749	1488.726294780898	0
10	752	1496.141136259839	0
10	769	1524.242338504501	0
10	776	1542.447631622299	0
10	787	1566.910590207712	17.444508077356
10	796	1590.641998253917	0
10	812	1633.714350027253	0
10	845	1715.229752380084	0
10	856	1757.452315171931	34.346545641612
10	867	1772.397801535763	36.692216694311
10	868	1778.422708693759	39.110272004805
10	871	1786.261372810306	5.240629888735
10	880	1802.740444803886	11.750676870443
10	885	1811.833470550977	13.822212373637
10	886	1812.327563197885	12.353894185593
10	893	1816.589337513762	13.800725763626
10	903	1837.207809601665	0
10	923	1874.214819834976	0
10	926	1877.492323099577	0
10	929	1899.01190856079	0
10	938	1934.904985412025	26.199194383733
10	939	1947.443585538762	20.638709619172
10	947	1984.546275450773	0
10	950	1996.012842413922	0
10	979	2083.855153346219	0
10	983	2092.664060113132	0
10	989	2104.851380459965	0
10	995	2122.543875262575	0
10	1003	2157.532000019822	0
10	1006	2160.919760709379	0.14981736289
10	1009	2166.560262012353	0
10	1014	2178.034944035963	7.71822246281
10	1025	2206.707277880697	18.195729233913
10	1032	2219.31161542301	20.677847712908
10	1048	2245.259994245578	0
10	1053	2270.925576312582	5.346036538824
10	1058	2280.874893329279	0
10	1061	2290.195761337989	0
10	1070	2308.037549004393	0
10	1077	2312.254117732795	4.16837544729
10	1080	2316.672395785861	7.785171259013
10	1087	2332.279214228359	7.474373241724
10	1090	2333.919409740263	0.276703301837
10	1101	2347.65647228463	11.298016362333
10	1102	2348.188138218092	10.170459430158
10	1107	2358.232686351003	18.551881722045
10	1114	2368.227207721345	21.256294925865
10	1121	2384.052606334009	31.723095510141
10	1122	2384.442326504704	24.081780836702
10	1125	2394.206641602233	12.271964649481
10	1133	2411.664070294826	0
10	1152	2441.654959907565	25.15065081174
10	1157	2447.463301712397	30.143402485831
10	1160	2451.322933878821	29.463852805789
10	1163	2454.503019498306	21.419370391506
10	1174	2467.236586132685	24.499583804973
10	1181	2479.632766170734	29.331169949513
11	1188	2500	0.0916
12	1188	2500	0.0576

