version 2
run experiments_hard_game_mode1-1148-20230311-19:43:28-10718
attr configname experiments_hard_game_mode1
attr datetime 20230311-19:43:28
attr experiment experiments_hard_game_mode1
attr inifile omnetpp.ini
attr iterationvars "$0=9, $1=7, $2=0"
attr iterationvarsf 9,7,0-
attr measurement "$0=9, $1=7, $2=0"
attr network Network
attr processid 10718
attr repetition 8
attr replication #8
attr resultdir results
attr runnumber 1148
attr seedset 8
param *.boss.arrival_mean 20
param *.boss.service_mean 9
param *.minion.arrival_mean 10
param *.minion.service_mean 7
param *.player.recover_rate_x 0
param **.minion.arrival_distribution 0
param **.minion.service_distribution 0
param **.boss.arrival_distribution 0
param **.boss.service_distribution 0

vector 0 Network.player boss_defeated_stat:vector ETV
attr source signal_boss_defeated
vector 1 Network.player boss_jobs_queue_number_stat:vector ETV
attr source signal_boss_jobs_queue_number
vector 2 Network.player boss_response_time_stat:vector ETV
attr source signal_boss_response_time
vector 3 Network.player boss_waiting_time_stat:vector ETV
attr source signal_boss_waiting_time
vector 4 Network.player minion_jobs_number_stat:vector ETV
attr source signal_minion_jobs_number
vector 5 Network.player minion_jobs_queue_number_stat:vector ETV
attr source signal_minion_jobs_queue_number
vector 6 Network.player minion_waiting_time_stat:vector ETV
attr source signal_minion_waiting_time
vector 7 Network.player boss_jobs_number_stat:vector ETV
attr source signal_boss_jobs_number
vector 8 Network.player minion_recovered_stat:vector ETV
attr source signal_minion_recovered
vector 9 Network.player minion_defeated_stat:vector ETV
attr source signal_minion_defeated
vector 10 Network.player minion_response_time_stat:vector ETV
attr source signal_minion_response_time
vector 11 Network.player minion_throughput:vector ETV
attr source signal_minion_throughput
vector 12 Network.player boss_throughput:vector ETV
attr source signal_boss_throughput
0	155	350.701760760839	21
0	160	364.364646637448	22
0	161	364.786604894012	23
0	166	377.30212671004	24
0	180	438.034012531088	25
0	196	488.766768511974	26
0	197	490.931848082414	27
0	200	511.322932964194	28
0	203	522.618727162808	29
0	212	540.497413052774	30
0	226	604.94150838988	31
0	231	623.414906845564	32
0	238	627.202329509379	33
0	271	721.918213307362	34
0	294	762.28459333448	35
0	295	762.522243872006	36
0	302	775.001925928988	37
0	303	778.787657709611	38
0	306	781.051383431794	39
0	309	792.322054452067	40
0	310	793.762558222807	41
0	315	800.71883597512	42
0	316	807.245970339352	43
0	328	836.054853106052	44
0	329	840.566567931563	45
0	339	856.36420239068	46
0	340	857.016178632664	47
0	347	873.543362501242	48
0	369	924.208632846919	49
0	377	936.655558025926	50
0	378	936.755445287735	51
0	416	1071.552304327592	52
0	446	1121.492646685693	53
0	451	1135.722117148601	54
0	466	1154.803796831627	55
0	479	1190.542669113674	56
0	484	1197.406964368472	57
0	485	1202.006603705342	58
0	486	1202.800310284924	59
0	487	1208.27890710797	60
0	490	1223.93130087448	61
0	491	1226.04665729606	62
0	499	1237.0762821669	63
0	513	1280.615450821882	64
0	534	1336.56645023639	65
0	549	1362.283030193483	66
0	559	1414.863990069299	67
0	572	1441.342086847417	68
0	578	1460.016867705037	69
0	611	1550.368699941348	70
0	612	1566.429603327194	71
0	613	1567.953637430797	72
0	631	1614.547698246522	73
0	636	1619.862673079397	74
0	660	1677.816022749315	75
0	693	1753.090308924986	76
0	720	1802.723637999679	77
0	741	1846.671184142135	78
0	742	1849.246855721753	79
0	747	1862.918809769628	80
0	752	1880.133438300771	81
0	769	1914.827835614121	82
0	770	1918.043706152274	83
0	773	1933.635806616303	84
0	789	1989.473388651816	85
0	827	2048.385094538859	86
0	834	2055.492486875629	87
0	835	2057.634640819895	88
0	836	2058.782695614711	89
0	839	2060.129197953893	90
0	847	2077.365492536492	91
0	848	2080.556078976899	92
0	858	2104.120610122955	93
0	879	2144.158928703442	94
0	888	2164.953086778111	95
0	891	2173.78996767926	96
0	896	2186.996164080826	97
0	901	2209.468433257622	98
0	907	2219.204204766284	99
0	928	2252.147221355452	100
0	929	2266.724221890257	101
0	941	2281.423083742991	102
0	942	2289.753629777214	103
0	953	2305.524905020754	104
0	958	2317.591351938682	105
0	977	2329.455621780185	106
0	984	2353.790059995264	107
0	987	2357.523560265705	108
0	990	2367.052333615362	109
0	993	2373.867610901702	110
0	996	2384.090217609081	111
0	1001	2389.851836491027	112
0	1002	2393.213073115618	113
0	1003	2398.12348805562	114
0	1012	2409.912461332839	115
0	1019	2424.379459017159	116
0	1022	2428.917549941862	117
0	1027	2436.307156196165	118
0	1044	2478.734693275468	119
0	1045	2487.061175110484	120
0	1046	2493.527413311286	121
0	1049	2499.253474086458	122
1	155	350.701760760839	2
1	160	364.364646637448	1
1	161	364.786604894012	0
1	165	375.391315048882	0
1	166	377.30212671004	0
1	177	416.09885070976	0
1	180	438.034012531088	0
1	185	457.766007587543	0
1	193	476.548788404644	1
1	195	486.357315170998	2
1	196	488.766768511974	2
1	197	490.931848082414	1
1	200	511.322932964194	0
1	202	519.361765448563	0
1	203	522.618727162808	0
1	207	529.267700894395	0
1	212	540.497413052774	0
1	225	564.300560389618	0
1	226	604.94150838988	0
1	230	619.011098646388	0
1	231	623.414906845564	0
1	235	625.351485420614	0
1	238	627.202329509379	0
1	248	656.547358981017	0
1	260	692.763323156002	1
1	266	703.740050135436	2
1	268	710.380849687831	3
1	270	720.453856391853	4
1	271	721.918213307362	4
1	273	723.431017966754	4
1	277	733.910972131425	5
1	293	758.996673827888	6
1	294	762.28459333448	6
1	295	762.522243872006	5
1	297	766.656699326265	5
1	302	775.001925928988	5
1	303	778.787657709611	4
1	305	779.450215402787	4
1	306	781.051383431794	4
1	309	792.322054452067	3
1	310	793.762558222807	2
1	315	800.71883597512	1
1	316	807.245970339352	0
1	323	818.983464402905	0
1	327	835.248604404272	1
1	328	836.054853106052	1
1	329	840.566567931563	0
1	332	843.367700009282	0
1	338	853.109086923126	1
1	339	856.36420239068	1
1	340	857.016178632664	0
1	344	863.83902178876	0
1	347	873.543362501242	0
1	366	920.493155444247	0
1	369	924.208632846919	0
1	374	931.651819903604	0
1	376	933.345352980081	1
1	377	936.655558025926	1
1	378	936.755445287735	0
1	413	1058.518930789588	0
1	416	1071.552304327592	0
1	441	1108.361782751192	0
1	446	1121.492646685693	0
1	450	1132.694596718756	0
1	451	1135.722117148601	0
1	453	1136.108807583738	0
1	455	1136.333826018112	1
1	463	1148.078871593158	2
1	466	1154.803796831627	2
1	470	1163.720581410365	2
1	472	1168.488416785386	3
1	474	1173.076299037651	4
1	476	1176.916299660197	5
1	479	1190.542669113674	5
1	484	1197.406964368472	4
1	485	1202.006603705342	3
1	486	1202.800310284924	2
1	487	1208.27890710797	1
1	489	1216.291314203088	1
1	490	1223.93130087448	1
1	491	1226.04665729606	0
1	496	1230.755115960214	0
1	499	1237.0762821669	0
1	512	1272.682469325331	0
1	513	1280.615450821882	0
1	529	1317.361855239214	0
1	534	1336.56645023639	0
1	548	1361.686355425169	0
1	549	1362.283030193483	0
1	558	1413.14304119274	0
1	559	1414.863990069299	0
1	565	1419.219797478038	0
1	572	1441.342086847417	0
1	575	1455.374959090924	0
1	578	1460.016867705037	0
1	598	1512.613832586893	0
1	604	1526.463072663728	1
1	610	1545.518748707868	2
1	611	1550.368699941348	2
1	612	1566.429603327194	1
1	613	1567.953637430797	0
1	622	1579.922105872001	0
1	631	1614.547698246522	0
1	633	1614.647544777863	0
1	636	1619.862673079397	0
1	659	1669.12752658445	0
1	660	1677.816022749315	0
1	692	1752.69058199458	0
1	693	1753.090308924986	0
1	713	1784.36714221366	0
1	720	1802.723637999679	0
1	732	1826.11813210479	0
1	738	1838.500648643851	1
1	741	1846.671184142135	1
1	742	1849.246855721753	0
1	746	1862.163813384079	0
1	747	1862.918809769628	0
1	751	1870.862406747146	0
1	752	1880.133438300771	0
1	754	1881.496160769119	0
1	758	1883.79523115591	1
1	766	1903.24141457117	2
1	769	1914.827835614121	2
1	770	1918.043706152274	1
1	773	1933.635806616303	0
1	788	1986.939751930008	0
1	789	1989.473388651816	0
1	816	2024.452246727987	0
1	818	2027.727541502782	1
1	820	2030.661302349244	2
1	824	2037.18732466916	3
1	827	2048.385094538859	3
1	831	2049.562016438356	3
1	834	2055.492486875629	3
1	835	2057.634640819895	2
1	836	2058.782695614711	1
1	839	2060.129197953893	0
1	844	2073.58352631853	0
1	846	2074.263168382427	1
1	847	2077.365492536492	1
1	848	2080.556078976899	0
1	853	2095.128767516438	0
1	858	2104.120610122955	0
1	878	2143.862823377282	0
1	879	2144.158928703442	0
1	883	2148.922937466807	0
1	885	2150.669734305564	1
1	888	2164.953086778111	1
1	891	2173.78996767926	0
1	895	2183.044205315737	0
1	896	2186.996164080826	0
1	900	2202.435043403632	0
1	901	2209.468433257622	0
1	906	2216.788444128043	0
1	907	2219.204204766284	0
1	925	2249.729384129566	0
1	927	2251.367958607534	1
1	928	2252.147221355452	1
1	929	2266.724221890257	0
1	938	2279.690247357455	0
1	940	2280.385384205945	1
1	941	2281.423083742991	1
1	942	2289.753629777214	0
1	946	2294.765771610817	0
1	953	2305.524905020754	0
1	955	2311.466960642226	0
1	957	2314.816185985176	1
1	958	2317.591351938682	1
1	960	2318.058885096036	1
1	966	2321.349749090659	2
1	970	2326.870960380821	3
1	972	2327.4267847295	4
1	974	2328.107968982309	5
1	977	2329.455621780185	5
1	981	2332.981509177791	5
1	984	2353.790059995264	5
1	986	2354.319388697645	5
1	987	2357.523560265705	5
1	990	2367.052333615362	4
1	992	2370.218810734865	4
1	993	2373.867610901702	4
1	996	2384.090217609081	3
1	1001	2389.851836491027	2
1	1002	2393.213073115618	1
1	1003	2398.12348805562	0
1	1011	2408.760504512205	0
1	1012	2409.912461332839	0
1	1018	2422.9459360675	0
1	1019	2424.379459017159	0
1	1021	2427.402652917027	0
1	1022	2428.917549941862	0
1	1026	2432.751736103515	0
1	1027	2436.307156196165	0
1	1037	2465.658478271555	0
1	1039	2472.320315154536	1
1	1041	2473.889202106358	2
1	1043	2478.649007051707	3
1	1044	2478.734693275468	3
1	1045	2487.061175110484	2
1	1046	2493.527413311286	1
1	1048	2498.862924785266	1
1	1049	2499.253474086458	1
2	155	350.701760760839	61.537632731727
2	160	364.364646637448	47.665931027477
2	161	364.786604894012	27.178526679501
2	166	377.30212671004	1.910811661158
2	180	438.034012531088	21.935161821328
2	196	488.766768511974	31.000760924431
2	197	490.931848082414	14.38305967777
2	200	511.322932964194	24.965617793196
2	203	522.618727162808	3.256961714245
2	212	540.497413052774	11.229712158379
2	226	604.94150838988	40.640948000262
2	231	623.414906845564	4.403808199176
2	238	627.202329509379	1.850844088765
2	271	721.918213307362	65.370854326345
2	294	762.28459333448	69.521270178478
2	295	762.522243872006	58.78219373657
2	302	775.001925928988	64.621076241157
2	303	778.787657709611	58.333801317758
2	306	781.051383431794	57.62036546504
2	309	792.322054452067	58.411082320642
2	310	793.762558222807	34.765884394919
2	315	800.71883597512	34.062136648855
2	316	807.245970339352	27.795754936565
2	328	836.054853106052	17.071388703147
2	329	840.566567931563	5.317963527291
2	339	856.36420239068	12.996502381398
2	340	857.016178632664	3.907091709538
2	347	873.543362501242	9.704340712482
2	369	924.208632846919	3.715477402672
2	377	936.655558025926	5.003738122322
2	378	936.755445287735	3.410092307654
2	416	1071.552304327592	13.033373538004
2	446	1121.492646685693	13.130863934501
2	451	1135.722117148601	3.027520429845
2	466	1154.803796831627	18.694989247889
2	479	1190.542669113674	54.208843095562
2	484	1197.406964368472	49.328092775314
2	485	1202.006603705342	38.286022294977
2	486	1202.800310284924	34.311893499538
2	487	1208.27890710797	35.202608070319
2	490	1223.93130087448	47.015001214283
2	491	1226.04665729606	9.755343092972
2	499	1237.0762821669	6.321166206686
2	513	1280.615450821882	7.932981496551
2	534	1336.56645023639	19.204594997176
2	549	1362.283030193483	0.596674768314
2	559	1414.863990069299	1.720948876559
2	572	1441.342086847417	22.122289369379
2	578	1460.016867705037	4.641908614113
2	611	1550.368699941348	37.754867354455
2	612	1566.429603327194	39.966530663466
2	613	1567.953637430797	22.434888722929
2	631	1614.547698246522	34.625592374521
2	636	1619.862673079397	5.215128301534
2	660	1677.816022749315	8.688496164865
2	693	1753.090308924986	0.399726930406
2	720	1802.723637999679	18.356495786019
2	741	1846.671184142135	20.553052037345
2	742	1849.246855721753	10.746207077902
2	747	1862.918809769628	0.754996385549
2	752	1880.133438300771	9.271031553625
2	769	1914.827835614121	33.331674845002
2	770	1918.043706152274	34.248474996364
2	773	1933.635806616303	30.394392045133
2	789	1989.473388651816	2.533636721808
2	827	2048.385094538859	23.932847810872
2	834	2055.492486875629	27.764945372847
2	835	2057.634640819895	26.973338470651
2	836	2058.782695614711	21.595370945551
2	839	2060.129197953893	10.567181515537
2	847	2077.365492536492	3.781966217962
2	848	2080.556078976899	6.292910594472
2	858	2104.120610122955	8.991842606517
2	879	2144.158928703442	0.29610532616
2	888	2164.953086778111	16.030149311304
2	891	2173.78996767926	23.120233373696
2	896	2186.996164080826	3.951958765089
2	901	2209.468433257622	7.03338985399
2	907	2219.204204766284	2.415760638241
2	928	2252.147221355452	2.417837225886
2	929	2266.724221890257	15.356263282723
2	941	2281.423083742991	1.732836385536
2	942	2289.753629777214	9.368245571269
2	953	2305.524905020754	10.759133409937
2	958	2317.591351938682	6.124391296456
2	977	2329.455621780185	14.639435795009
2	984	2353.790059995264	35.731174899228
2	987	2357.523560265705	36.173811175046
2	990	2367.052333615362	40.181373234541
2	993	2373.867610901702	46.440826172202
2	996	2384.090217609081	55.982248626772
2	1001	2389.851836491027	56.870327313236
2	1002	2393.213073115618	38.893684417973
2	1003	2398.12348805562	27.904677320755
2	1012	2409.912461332839	1.151956820634
2	1019	2424.379459017159	1.433522949659
2	1022	2428.917549941862	1.514897024835
2	1027	2436.307156196165	3.55542009265
2	1044	2478.734693275468	13.076215003913
2	1045	2487.061175110484	14.740859955948
2	1046	2493.527413311286	19.638211204928
2	1049	2499.253474086458	20.604467034751
3	155	350.701760760839	34.003045150868
3	160	364.364646637448	26.756568422937
3	165	375.391315048882	0
3	177	416.09885070976	0
3	185	457.766007587543	0
3	196	488.766768511974	12.21798010733
3	197	490.931848082414	4.574532911416
3	202	519.361765448563	0
3	207	529.267700894395	0
3	225	564.300560389618	0
3	230	619.011098646388	0
3	235	625.351485420614	0
3	248	656.547358981017	0
3	271	721.918213307362	29.15489015136
3	294	762.28459333448	58.544543199044
3	295	762.522243872006	52.141394184175
3	302	775.001925928988	54.548069537135
3	303	778.787657709611	55.356639742857
3	306	781.051383431794	47.140411300369
3	309	792.322054452067	33.325380624179
3	310	793.762558222807	27.105858896542
3	315	800.71883597512	21.268620572333
3	323	818.983464402905	0
3	328	836.054853106052	0.80624870178
3	332	843.367700009282	0
3	339	856.36420239068	3.255115467554
3	344	863.83902178876	0
3	366	920.493155444247	0
3	374	931.651819903604	0
3	377	936.655558025926	3.310205045845
3	413	1058.518930789588	0
3	441	1108.361782751192	0
3	450	1132.694596718756	0
3	453	1136.108807583738	0
3	466	1154.803796831627	18.469970813515
3	479	1190.542669113674	42.463797520516
3	484	1197.406964368472	33.686382958107
3	485	1202.006603705342	33.518186919956
3	486	1202.800310284924	29.724011247273
3	487	1208.27890710797	31.362607447773
3	490	1223.93130087448	7.639986671392
3	496	1230.755115960214	0
3	512	1272.682469325331	0
3	529	1317.361855239214	0
3	548	1361.686355425169	0
3	558	1413.14304119274	0
3	565	1419.219797478038	0
3	575	1455.374959090924	0
3	598	1512.613832586893	0
3	611	1550.368699941348	23.90562727762
3	612	1566.429603327194	20.910854619326
3	622	1579.922105872001	0
3	633	1614.647544777863	0
3	659	1669.12752658445	0
3	692	1752.69058199458	0
3	713	1784.36714221366	0
3	732	1826.11813210479	0
3	741	1846.671184142135	8.170535498284
3	746	1862.163813384079	0
3	751	1870.862406747146	0
3	754	1881.496160769119	0
3	769	1914.827835614121	31.032604458211
3	770	1918.043706152274	14.802291581104
3	788	1986.939751930008	0
3	816	2024.452246727987	0
3	827	2048.385094538859	20.657553036077
3	834	2055.492486875629	24.831184526385
3	835	2057.634640819895	20.447316150735
3	836	2058.782695614711	9.220679176355
3	844	2073.58352631853	0
3	847	2077.365492536492	3.102324154065
3	853	2095.128767516438	0
3	878	2143.862823377282	0
3	883	2148.922937466807	0
3	888	2164.953086778111	14.283352472547
3	895	2183.044205315737	0
3	900	2202.435043403632	0
3	906	2216.788444128043	0
3	925	2249.729384129566	0
3	928	2252.147221355452	0.779262747918
3	938	2279.690247357455	0
3	941	2281.423083742991	1.037699537046
3	946	2294.765771610817	0
3	955	2311.466960642226	0
3	958	2317.591351938682	2.775165953506
3	977	2329.455621780185	11.396736684149
3	984	2353.790059995264	32.440310904605
3	987	2357.523560265705	30.652599884884
3	990	2367.052333615362	39.625548885862
3	993	2373.867610901702	45.759641919393
3	996	2384.090217609081	51.10870843129
3	1001	2389.851836491027	35.532447793382
3	1002	2393.213073115618	22.994262380753
3	1011	2408.760504512205	0
3	1018	2422.9459360675	0
3	1021	2427.402652917027	0
3	1026	2432.751736103515	0
3	1037	2465.658478271555	0
3	1044	2478.734693275468	6.414378120932
3	1045	2487.061175110484	13.171973004126
3	1046	2493.527413311286	14.878406259579
3	1049	2499.253474086458	0.390549301192
4	157	355.039202252463	18
4	159	363.289814550966	19
4	163	367.830929999966	20
4	169	382.370602506663	20
4	179	436.671773942098	15
4	187	460.852668622827	13
4	189	466.374037545862	14
4	191	467.349172986839	15
4	199	503.541066842519	16
4	205	526.822290225991	17
4	209	532.841895893834	18
4	211	539.021558364902	19
4	215	543.729523351123	19
4	219	549.744660338624	18
4	221	549.757652114121	19
4	233	624.377629917337	16
4	237	626.377011457473	17
4	240	628.149441136313	18
4	243	646.041393116059	18
4	250	658.39845641134	16
4	252	659.690924306509	17
4	254	661.441890419892	18
4	256	673.601588221394	19
4	258	690.249866392987	20
4	262	703.275599853586	21
4	264	703.633396807882	22
4	275	729.390626542569	23
4	279	737.045369647088	24
4	281	743.385520347509	25
4	283	745.206737638433	26
4	285	747.746298385527	27
4	287	751.433923708821	28
4	289	758.184758649513	29
4	291	758.64585161194	30
4	299	769.930973026044	31
4	301	772.656623803539	32
4	308	782.605538701624	33
4	312	793.839749618144	34
4	314	798.245995385835	35
4	318	813.496170369595	36
4	321	814.185922731608	36
4	325	826.066970822433	37
4	334	848.179506668075	37
4	336	852.1686892715	38
4	346	869.016558446923	37
4	349	875.829374328149	38
4	354	886.461145315321	36
4	356	893.887069529698	37
4	358	900.833244362583	38
4	360	904.379176149286	39
4	364	915.070726443792	38
4	368	921.290312289743	39
4	372	926.259204214721	39
4	383	968.113474807297	37
4	386	972.059846730416	37
4	389	979.014042706605	37
4	392	986.40158991055	37
4	394	991.477771818955	38
4	396	996.573320040998	39
4	399	1009.5893717972	39
4	403	1027.29326052894	38
4	405	1047.195191840301	39
4	408	1051.588422140614	39
4	410	1051.853602663273	40
4	415	1069.570309487394	40
4	418	1072.995454593012	41
4	420	1074.329777082393	42
4	428	1089.892028406125	37
4	433	1096.28675098785	35
4	437	1102.395414654277	34
4	443	1108.589561472402	33
4	445	1108.659087345032	34
4	448	1132.072607512783	35
4	457	1137.5084282047	36
4	459	1140.765229769752	37
4	461	1144.780081559334	38
4	465	1151.861347883656	39
4	468	1161.128600888311	40
4	478	1190.182284757979	41
4	481	1194.107094991637	42
4	483	1195.810170607742	43
4	498	1235.57636042901	41
4	501	1245.750567940076	42
4	504	1254.623518575976	42
4	518	1297.576801327344	34
4	520	1298.981981041257	35
4	523	1305.174030572477	35
4	527	1312.534111945697	34
4	531	1325.294640523372	35
4	533	1329.725973787391	36
4	536	1337.918346365047	37
4	538	1338.069482505731	38
4	544	1360.008685256734	35
4	546	1361.022701143741	36
4	555	1400.284102277724	33
4	561	1415.619746805441	33
4	563	1418.960130004518	34
4	567	1424.528878770452	35
4	569	1430.718816092059	36
4	571	1432.924682107722	37
4	577	1456.557563689539	37
4	583	1466.341925398978	35
4	591	1496.569148529909	30
4	596	1506.793690175289	28
4	600	1518.465787734605	29
4	602	1521.622526505848	30
4	606	1537.236882645073	31
4	608	1538.627409021411	32
4	617	1568.805776238846	31
4	620	1575.206070960299	31
4	624	1587.597529532276	32
4	626	1592.550768120903	33
4	628	1594.785254698345	34
4	630	1599.978539938441	35
4	635	1616.404968885488	36
4	638	1621.123406778662	37
4	642	1631.254750414244	36
4	644	1634.710330765916	37
4	648	1652.543207499767	36
4	650	1660.592548209223	37
4	652	1661.676721405022	38
4	655	1667.318732504404	38
4	657	1668.839998673156	39
4	664	1684.153737847449	38
4	666	1685.387269729313	39
4	668	1697.452804236935	40
4	670	1701.561559358482	41
4	673	1716.540947904621	41
4	675	1719.13214685948	42
4	678	1722.526526733274	42
4	682	1733.047037047973	41
4	684	1735.408242765257	42
4	687	1740.704718278887	42
4	690	1747.718800778385	42
4	695	1761.665908873459	43
4	697	1763.094515336496	44
4	699	1763.213757723395	45
4	701	1765.093499250388	46
4	703	1765.470013413068	47
4	705	1768.286539132837	48
4	709	1778.599508578021	47
4	711	1779.035512282923	48
4	715	1788.100640411957	49
4	717	1790.667473858621	50
4	719	1793.353085389727	51
4	722	1803.180920255599	52
4	725	1812.729547793283	52
4	728	1822.789597242941	52
4	734	1827.729542456423	51
4	736	1835.34251097782	52
4	740	1846.315880066733	53
4	744	1859.610694122373	54
4	749	1866.708582479766	55
4	756	1883.591531990599	56
4	760	1887.467234090877	57
4	762	1892.164969454295	58
4	764	1896.988062328872	59
4	768	1913.33164658053	60
4	772	1918.239553569083	61
4	775	1939.413014824499	62
4	779	1961.906213717047	61
4	784	1970.746609118175	59
4	786	1980.244380990038	60
4	791	1990.911080849943	61
4	794	2002.226518752834	61
4	797	2005.657567967903	61
4	799	2007.076585269853	62
4	803	2011.99281693691	61
4	805	2015.318506437137	62
4	807	2016.680203553257	63
4	809	2016.958808805942	64
4	812	2019.351684363755	64
4	814	2022.320615006906	65
4	822	2036.387777157786	66
4	826	2040.160363597193	67
4	829	2048.808516908357	68
4	833	2049.768310849397	69
4	838	2059.760462141642	70
4	841	2061.907945737218	71
4	851	2093.505152452636	70
4	855	2097.229950162052	71
4	857	2098.219906843734	72
4	860	2105.383738213321	73
4	862	2106.750265175274	74
4	865	2111.236557246119	74
4	867	2116.456695820183	75
4	869	2130.162292470775	76
4	871	2132.681831277386	77
4	875	2139.266205856075	76
4	881	2146.850414131752	76
4	887	2155.214678228357	77
4	890	2172.968361916568	78
4	903	2210.235865739089	75
4	909	2219.504720468416	75
4	911	2226.20237524347	76
4	913	2228.252826959931	77
4	916	2231.189043554593	77
4	920	2235.990529159481	76
4	932	2274.316062352235	73
4	934	2277.64936585754	74
4	936	2279.369371625004	75
4	944	2291.520128777268	76
4	948	2302.009609685989	77
4	950	2304.937198279872	78
4	952	2305.007415274873	79
4	962	2319.336706072754	80
4	964	2320.262451255038	81
4	968	2323.506657643407	82
4	976	2329.026318484358	83
4	979	2329.488023016245	84
4	983	2337.883707012958	85
4	989	2366.453068044888	86
4	995	2376.883160209059	87
4	998	2384.144808062979	88
4	1000	2385.318994031209	89
4	1005	2398.835523000256	90
4	1007	2402.780862958371	91
4	1015	2411.904107173243	89
4	1032	2447.089342177539	84
4	1051	2499.949391704458	82
5	157	355.039202252463	17
5	159	363.289814550966	18
5	163	367.830929999966	19
5	167	379.054593604	19
5	169	382.370602506663	19
5	170	382.553778789361	19
5	171	405.626032908791	18
5	172	406.206338687811	17
5	173	407.145105472795	16
5	174	411.501643319687	15
5	175	414.532297075306	14
5	179	436.671773942098	14
5	181	438.827380880072	14
5	182	440.078213314361	13
5	183	449.664727173963	12
5	187	460.852668622827	12
5	189	466.374037545862	13
5	191	467.349172986839	14
5	199	503.541066842519	15
5	205	526.822290225991	16
5	209	532.841895893834	17
5	211	539.021558364902	18
5	213	541.220447417351	18
5	215	543.729523351123	18
5	216	545.989855800522	18
5	217	547.359699400447	17
5	219	549.744660338624	17
5	221	549.757652114121	18
5	222	550.946678861414	18
5	223	554.10936487302	17
5	227	609.142823502574	16
5	228	616.196611417331	15
5	233	624.377629917337	15
5	237	626.377011457473	16
5	240	628.149441136313	17
5	241	636.13504476252	17
5	243	646.041393116059	17
5	244	646.545374558606	17
5	245	648.538350650064	16
5	246	650.166753640626	15
5	250	658.39845641134	15
5	252	659.690924306509	16
5	254	661.441890419892	17
5	256	673.601588221394	18
5	258	690.249866392987	19
5	262	703.275599853586	20
5	264	703.633396807882	21
5	275	729.390626542569	22
5	279	737.045369647088	23
5	281	743.385520347509	24
5	283	745.206737638433	25
5	285	747.746298385527	26
5	287	751.433923708821	27
5	289	758.184758649513	28
5	291	758.64585161194	29
5	299	769.930973026044	30
5	301	772.656623803539	31
5	308	782.605538701624	32
5	312	793.839749618144	33
5	314	798.245995385835	34
5	318	813.496170369595	35
5	319	814.070456445745	35
5	321	814.185922731608	35
5	325	826.066970822433	36
5	330	842.633118296458	36
5	334	848.179506668075	36
5	336	852.1686892715	37
5	341	860.850399881973	37
5	342	862.422704772836	36
5	346	869.016558446923	36
5	349	875.829374328149	37
5	350	876.219674262995	37
5	351	885.843237980003	36
5	352	886.436180750179	35
5	354	886.461145315321	35
5	356	893.887069529698	36
5	358	900.833244362583	37
5	360	904.379176149286	38
5	361	904.989144135661	38
5	362	905.88335769054	37
5	364	915.070726443792	37
5	368	921.290312289743	38
5	370	925.105272997481	38
5	372	926.259204214721	38
5	379	937.156908519675	38
5	380	954.332677521466	37
5	381	960.738605816684	36
5	383	968.113474807297	36
5	384	968.341894272583	36
5	386	972.059846730416	36
5	387	977.327998849923	36
5	389	979.014042706605	36
5	390	979.96837477198	36
5	392	986.40158991055	36
5	394	991.477771818955	37
5	396	996.573320040998	38
5	397	1004.582209815608	38
5	399	1009.5893717972	38
5	400	1011.635374787342	38
5	401	1023.700265808974	37
5	403	1027.29326052894	37
5	405	1047.195191840301	38
5	406	1047.806246584356	38
5	408	1051.588422140614	38
5	410	1051.853602663273	39
5	411	1053.055025926241	39
5	415	1069.570309487394	39
5	418	1072.995454593012	40
5	420	1074.329777082393	41
5	421	1074.371092871456	41
5	422	1079.570713704737	40
5	423	1082.629211240996	39
5	424	1082.94894398551	38
5	425	1083.525240965808	37
5	426	1088.075682593278	36
5	428	1089.892028406125	36
5	429	1093.757847872651	36
5	430	1094.520484306898	35
5	431	1095.789412545734	34
5	433	1096.28675098785	34
5	434	1096.716464926277	34
5	435	1100.033068604472	33
5	437	1102.395414654277	33
5	438	1102.482332744654	33
5	439	1102.823471894276	32
5	443	1108.589561472402	32
5	445	1108.659087345032	33
5	448	1132.072607512783	34
5	457	1137.5084282047	35
5	459	1140.765229769752	36
5	461	1144.780081559334	37
5	465	1151.861347883656	38
5	468	1161.128600888311	39
5	478	1190.182284757979	40
5	481	1194.107094991637	41
5	483	1195.810170607742	42
5	492	1226.15610833263	42
5	493	1229.308196304905	41
5	494	1230.550518274813	40
5	498	1235.57636042901	40
5	501	1245.750567940076	41
5	502	1246.339153135314	41
5	504	1254.623518575976	41
5	505	1255.013977768561	41
5	506	1255.567128981325	40
5	507	1262.431282425652	39
5	508	1262.656831734914	38
5	509	1265.893048999601	37
5	510	1268.226406232481	36
5	514	1281.472500482793	35
5	515	1290.67882905675	34
5	516	1291.767469502706	33
5	518	1297.576801327344	33
5	520	1298.981981041257	34
5	521	1302.153763385484	34
5	523	1305.174030572477	34
5	524	1306.670034311954	34
5	525	1308.602566793071	33
5	527	1312.534111945697	33
5	531	1325.294640523372	34
5	533	1329.725973787391	35
5	536	1337.918346365047	36
5	538	1338.069482505731	37
5	539	1339.125421197319	37
5	540	1349.374373676044	36
5	541	1350.402916493641	35
5	542	1352.821309491039	34
5	544	1360.008685256734	34
5	546	1361.022701143741	35
5	550	1368.62283531841	35
5	551	1379.553371935333	34
5	552	1380.795285662752	33
5	553	1397.085442655512	32
5	555	1400.284102277724	32
5	556	1408.433438185491	32
5	561	1415.619746805441	32
5	563	1418.960130004518	33
5	567	1424.528878770452	34
5	569	1430.718816092059	35
5	571	1432.924682107722	36
5	573	1446.195890381788	36
5	577	1456.557563689539	36
5	579	1461.669659970026	36
5	580	1465.627317262458	35
5	581	1466.05668047566	34
5	583	1466.341925398978	34
5	584	1467.327527409938	34
5	585	1470.809045032661	33
5	586	1471.80357407365	32
5	587	1478.572527886449	31
5	588	1488.255987568507	30
5	589	1489.715426138433	29
5	591	1496.569148529909	29
5	592	1496.766070854612	29
5	593	1499.478719671473	28
5	594	1503.387668960096	27
5	596	1506.793690175289	27
5	600	1518.465787734605	28
5	602	1521.622526505848	29
5	606	1537.236882645073	30
5	608	1538.627409021411	31
5	614	1568.60598304688	31
5	615	1568.625676987377	30
5	617	1568.805776238846	30
5	618	1570.911107761499	30
5	620	1575.206070960299	30
5	624	1587.597529532276	31
5	626	1592.550768120903	32
5	628	1594.785254698345	33
5	630	1599.978539938441	34
5	635	1616.404968885488	35
5	638	1621.123406778662	36
5	639	1623.360711523542	36
5	640	1630.509837632421	35
5	642	1631.254750414244	35
5	644	1634.710330765916	36
5	645	1646.948774869104	36
5	646	1649.901391810877	35
5	648	1652.543207499767	35
5	650	1660.592548209223	36
5	652	1661.676721405022	37
5	653	1666.742364026936	37
5	655	1667.318732504404	37
5	657	1668.839998673156	38
5	661	1682.678202589396	38
5	662	1682.800875384019	37
5	664	1684.153737847449	37
5	666	1685.387269729313	38
5	668	1697.452804236935	39
5	670	1701.561559358482	40
5	671	1706.932077764914	40
5	673	1716.540947904621	40
5	675	1719.13214685948	41
5	676	1720.194299447646	41
5	678	1722.526526733274	41
5	679	1726.202779204795	41
5	680	1730.625365921414	40
5	682	1733.047037047973	40
5	684	1735.408242765257	41
5	685	1739.459010058825	41
5	687	1740.704718278887	41
5	688	1747.17307089497	41
5	690	1747.718800778385	41
5	695	1761.665908873459	42
5	697	1763.094515336496	43
5	699	1763.213757723395	44
5	701	1765.093499250388	45
5	703	1765.470013413068	46
5	705	1768.286539132837	47
5	706	1774.474436933866	47
5	707	1775.707959556237	46
5	709	1778.599508578021	46
5	711	1779.035512282923	47
5	715	1788.100640411957	48
5	717	1790.667473858621	49
5	719	1793.353085389727	50
5	722	1803.180920255599	51
5	723	1805.145816058936	51
5	725	1812.729547793283	51
5	726	1818.171758454256	51
5	728	1822.789597242941	51
5	729	1823.096696348808	51
5	730	1825.348441175308	50
5	734	1827.729542456423	50
5	736	1835.34251097782	51
5	740	1846.315880066733	52
5	744	1859.610694122373	53
5	749	1866.708582479766	54
5	756	1883.591531990599	55
5	760	1887.467234090877	56
5	762	1892.164969454295	57
5	764	1896.988062328872	58
5	768	1913.33164658053	59
5	772	1918.239553569083	60
5	775	1939.413014824499	61
5	776	1946.206289664278	61
5	777	1946.31508401864	60
5	779	1961.906213717047	60
5	780	1962.52451545078	60
5	781	1962.7473814966	59
5	782	1962.862267602417	58
5	784	1970.746609118175	58
5	786	1980.244380990038	59
5	791	1990.911080849943	60
5	792	1999.375863363349	60
5	794	2002.226518752834	60
5	795	2003.298869232205	60
5	797	2005.657567967903	60
5	799	2007.076585269853	61
5	800	2007.483311255484	61
5	801	2011.019318526222	60
5	803	2011.99281693691	60
5	805	2015.318506437137	61
5	807	2016.680203553257	62
5	809	2016.958808805942	63
5	810	2019.129734203146	63
5	812	2019.351684363755	63
5	814	2022.320615006906	64
5	822	2036.387777157786	65
5	826	2040.160363597193	66
5	829	2048.808516908357	67
5	833	2049.768310849397	68
5	838	2059.760462141642	69
5	841	2061.907945737218	70
5	842	2062.893756544117	70
5	849	2091.734813039107	69
5	851	2093.505152452636	69
5	855	2097.229950162052	70
5	857	2098.219906843734	71
5	860	2105.383738213321	72
5	862	2106.750265175274	73
5	863	2108.111276179204	73
5	865	2111.236557246119	73
5	867	2116.456695820183	74
5	869	2130.162292470775	75
5	871	2132.681831277386	76
5	872	2137.278102337404	76
5	873	2138.432468436883	75
5	875	2139.266205856075	75
5	876	2143.428695234112	75
5	881	2146.850414131752	75
5	887	2155.214678228357	76
5	890	2172.968361916568	77
5	892	2177.565181321243	77
5	893	2178.902619714833	76
5	897	2191.212217509964	75
5	898	2192.632509769216	74
5	903	2210.235865739089	74
5	904	2214.586766362016	74
5	909	2219.504720468416	74
5	911	2226.20237524347	75
5	913	2228.252826959931	76
5	914	2229.347586900781	76
5	916	2231.189043554593	76
5	917	2233.217720125335	76
5	918	2235.575532269996	75
5	920	2235.990529159481	75
5	921	2236.967909405025	75
5	922	2240.791428836115	74
5	923	2244.168606632677	73
5	930	2270.081639444639	72
5	932	2274.316062352235	72
5	934	2277.64936585754	73
5	936	2279.369371625004	74
5	944	2291.520128777268	75
5	948	2302.009609685989	76
5	950	2304.937198279872	77
5	952	2305.007415274873	78
5	962	2319.336706072754	79
5	964	2320.262451255038	80
5	968	2323.506657643407	81
5	976	2329.026318484358	82
5	979	2329.488023016245	83
5	983	2337.883707012958	84
5	989	2366.453068044888	85
5	995	2376.883160209059	86
5	998	2384.144808062979	87
5	1000	2385.318994031209	88
5	1005	2398.835523000256	89
5	1007	2402.780862958371	90
5	1008	2403.881664379834	90
5	1009	2405.641812008268	89
5	1013	2410.613378867212	88
5	1015	2411.904107173243	88
5	1016	2411.926046370549	88
5	1023	2430.800995361124	87
5	1024	2432.605740605597	86
5	1028	2436.683735932495	85
5	1029	2444.213191033406	84
5	1030	2446.518856602521	83
5	1032	2447.089342177539	83
5	1033	2454.214726371023	83
5	1034	2461.630096023083	82
5	1035	2462.940275808314	81
5	1051	2499.949391704458	81
6	161	364.786604894012	140.96937963117
6	166	377.30212671004	153.08925700573
6	167	379.054593604	150.60767967763
6	170	382.553778789361	150.34828261092
6	171	405.626032908791	162.55115420185
6	172	406.206338687811	155.8520305095
6	173	407.145105472795	142.15648855594
6	174	411.501643319687	140.68419660595
6	175	414.532297075306	125.63839863835
6	180	438.034012531088	148.36324895769
6	181	438.827380880072	141.13842367377
6	182	440.078213314361	130.02613108607
6	183	449.664727173963	127.44839527319
6	200	511.322932964194	174.64349676188
6	203	522.618727162808	177.0379032267
6	212	540.497413052774	193.34195499575
6	213	541.220447417351	193.55276421322
6	216	545.989855800522	190.95065354806
6	217	547.359699400447	184.06988484948
6	222	550.946678861414	183.11574886145
6	223	554.10936487302	178.71804982414
6	226	604.94150838988	222.57090588322
6	227	609.142823502574	193.04397279281
6	228	616.196611417331	179.52483747523
6	231	623.414906845564	165.64889925802
6	238	627.202329509379	166.34966088655
6	241	636.13504476252	169.76100721666
6	244	646.545374558606	179.19620157177
6	245	648.538350650064	144.99728380754
6	246	650.166753640626	130.80498819206
6	316	807.245970339352	280.42368011336
6	319	814.070456445745	284.80275555135
6	329	840.566567931563	307.72467203773
6	330	842.633118296458	303.61155993156
6	340	857.016178632664	313.28665528154
6	341	860.850399881973	311.10573954335
6	342	862.422704772836	312.66505265872
6	347	873.543362501242	309.24280211162
6	350	876.219674262995	257.20857561661
6	351	885.843237980003	261.46560806267
6	352	886.436180750179	261.08469532957
6	361	904.989144135661	278.61213267819
6	362	905.88335769054	277.73391655423
6	369	924.208632846919	278.16723973086
6	370	925.105272997481	268.55791401646
6	378	936.755445287735	278.3569888764
6	379	937.156908519675	277.46598421317
6	380	954.332677521466	292.89078710157
6	381	960.738605816684	287.13701759529
6	384	968.341894272583	278.0920278796
6	387	977.327998849923	274.05239899634
6	390	979.96837477198	276.3349779641
6	397	1004.582209815608	275.19158327304
6	400	1011.635374787342	274.59000514025
6	401	1023.700265808974	280.31474546147
6	406	1047.806246584356	302.59950894592
6	411	1053.055025926241	305.30872754071
6	416	1071.552304327592	320.11838061877
6	421	1074.371092871456	316.18633422194
6	422	1079.570713704737	320.9248620928
6	423	1082.629211240996	312.69823821495
6	424	1082.94894398551	310.29232018197
6	425	1083.525240965808	300.91970226418
6	426	1088.075682593278	294.23593297513
6	429	1093.757847872651	295.51185248682
6	430	1094.520484306898	281.0243139373
6	431	1095.789412545734	281.60348981413
6	434	1096.716464926277	277.73300052337
6	435	1100.033068604472	273.96609778204
6	438	1102.482332744654	259.11463273537
6	439	1102.823471894276	254.6439652262
6	446	1121.492646685693	269.32395741419
6	451	1135.722117148601	271.88309535984
6	491	1226.04665729606	357.03009884914
6	492	1226.15610833263	350.32673400448
6	493	1229.308196304905	342.84705098958
6	494	1230.550518274813	336.66344874511
6	499	1237.0762821669	336.24303780432
6	502	1246.339153135314	341.95997698603
6	505	1255.013977768561	339.94325132477
6	506	1255.567128981325	335.07397353708
6	507	1262.431282425652	341.14097013591
6	508	1262.656831734914	336.39762752019
6	509	1265.893048999601	334.241229096
6	510	1268.226406232481	300.11293142518
6	513	1280.615450821882	308.55560409147
6	514	1281.472500482793	302.45845777619
6	515	1290.67882905675	304.2772391462
6	516	1291.767469502706	300.28969768375
6	521	1302.153763385484	305.58044334449
6	524	1306.670034311954	297.08066251475
6	525	1308.602566793071	281.30930626413
6	534	1336.56645023639	289.37125839609
6	539	1339.125421197319	287.5369990567
6	540	1349.374373676044	297.52077101277
6	541	1350.402916493641	291.88398570405
6	542	1352.821309491039	283.25100000365
6	549	1362.283030193483	289.28757560047
6	550	1368.62283531841	294.29305823602
6	551	1379.553371935333	289.66134352921
6	552	1380.795285662752	284.5085346749
6	553	1397.085442655512	294.69002800124
6	556	1408.433438185491	300.0716554343
6	559	1414.863990069299	306.2744285969
6	572	1441.342086847417	332.68299950238
6	573	1446.195890381788	314.123282869
6	578	1460.016867705037	327.32227098628
6	579	1461.669659970026	325.56085238629
6	580	1465.627317262458	328.11888905776
6	581	1466.05668047566	325.29145070591
6	584	1467.327527409938	322.5474458506
6	585	1470.809045032661	318.947697149
6	586	1471.80357407365	310.67497318534
6	587	1478.572527886449	288.39024312847
6	588	1488.255987568507	294.14889257687
6	589	1489.715426138433	293.90525553069
6	592	1496.766070854612	266.0109548944
6	593	1499.478719671473	263.90235924246
6	594	1503.387668960096	257.63710102002
6	613	1567.953637430797	313.33011885482
6	614	1568.60598304688	295.92351372155
6	615	1568.625676987377	271.04887566003
6	618	1570.911107761499	271.92912672024
6	631	1614.547698246522	309.37366767405
6	636	1619.862673079397	307.3285611337
6	639	1623.360711523542	305.99885628433
6	640	1630.509837632421	305.21519710905
6	645	1646.948774869104	317.22280108171
6	646	1649.901391810877	311.98304544583
6	653	1666.742364026936	328.6728815212
6	660	1677.816022749315	317.80733749258
6	661	1682.678202589396	321.65550144565
6	662	1682.800875384019	321.11451995885
6	671	1706.932077764914	306.64797548719
6	676	1720.194299447646	307.05125825491
6	679	1726.202779204795	310.58303239935
6	680	1730.625365921414	311.6652359169
6	685	1739.459010058825	320.23921258079
6	688	1747.17307089497	322.64419212452
6	693	1753.090308924986	322.37149283293
6	706	1774.474436933866	341.54975482614
6	707	1775.707959556237	320.33300046531
6	720	1802.723637999679	346.16607431014
6	723	1805.145816058936	338.80389065996
6	726	1818.171758454256	321.60260992435
6	729	1823.096696348808	316.30300617352
6	730	1825.348441175308	312.73460858841
6	742	1849.246855721753	330.78106798715
6	747	1862.918809769628	341.29628326378
6	752	1880.133438300771	342.8965556557
6	773	1933.635806616303	395.00839759489
6	776	1946.206289664278	377.40051342543
6	777	1946.31508401864	371.10901305834
6	780	1962.52451545078	382.60240957878
6	781	1962.7473814966	375.14985196432
6	782	1962.862267602417	370.31149948151
6	789	1989.473388651816	394.68813395347
6	792	1999.375863363349	399.39732342491
6	795	2003.298869232205	388.65132445434
6	800	2007.483311255484	391.07834237
6	801	2011.019318526222	389.89591174756
6	810	2019.129734203146	387.8749837889
6	839	2060.129197953893	425.41886718798
6	842	2062.893756544117	410.35054904435
6	848	2080.556078976899	419.96353076768
6	849	2091.734813039107	430.05809163408
6	858	2104.120610122955	436.80187761855
6	863	2108.111276179204	439.27127750605
6	872	2137.278102337404	468.15057575295
6	873	2138.432468436883	454.27873058943
6	876	2143.428695234112	458.0414255048
6	879	2144.158928703442	446.70612446651
6	891	2173.78996767926	472.22840832078
6	892	2177.565181321243	461.02423341662
6	893	2178.902619714833	459.77047285535
6	896	2186.996164080826	464.46963734755
6	897	2191.212217509964	458.16518046199
6	898	2192.632509769216	457.22426700396
6	901	2209.468433257622	468.76371497873
6	904	2214.586766362016	466.86796558363
6	907	2219.204204766284	466.5136227717
6	914	2229.347586900781	467.68167802732
6	917	2233.217720125335	470.12320478884
6	918	2235.575532269996	472.3617745466
6	921	2236.967909405025	471.87441015464
6	922	2240.791428836115	475.32141542305
6	923	2244.168606632677	475.88206749984
6	929	2266.724221890257	488.12471331224
6	930	2270.081639444639	491.04612716172
6	942	2289.753629777214	505.38648756355
6	953	2305.524905020754	517.4242646088
6	1003	2398.12348805562	607.456014197
6	1008	2403.881664379834	610.52857899011
6	1009	2405.641812008268	602.46089175267
6	1012	2409.912461332839	597.18291353956
6	1013	2410.613378867212	587.82378162427
6	1016	2411.926046370549	585.80791426576
6	1019	2424.379459017159	596.64991656074
6	1022	2428.917549941862	593.57503896404
6	1023	2430.800995361124	584.48511529439
6	1024	2432.605740605597	572.99504648322
6	1027	2436.307156196165	574.14334281209
6	1028	2436.683735932495	569.97515345273
6	1029	2444.213191033406	573.35078428626
6	1030	2446.518856602521	565.0226958334
6	1033	2454.214726371023	570.62319438042
6	1034	2461.630096023083	574.16286193221
6	1035	2462.940275808314	570.77530635402
7	165	375.391315048882	1
7	177	416.09885070976	1
7	185	457.766007587543	1
7	193	476.548788404644	2
7	195	486.357315170998	3
7	202	519.361765448563	1
7	207	529.267700894395	1
7	225	564.300560389618	1
7	230	619.011098646388	1
7	235	625.351485420614	1
7	248	656.547358981017	1
7	260	692.763323156002	2
7	266	703.740050135436	3
7	268	710.380849687831	4
7	270	720.453856391853	5
7	273	723.431017966754	5
7	277	733.910972131425	6
7	293	758.996673827888	7
7	297	766.656699326265	6
7	305	779.450215402787	5
7	323	818.983464402905	1
7	327	835.248604404272	2
7	332	843.367700009282	1
7	338	853.109086923126	2
7	344	863.83902178876	1
7	366	920.493155444247	1
7	374	931.651819903604	1
7	376	933.345352980081	2
7	413	1058.518930789588	1
7	441	1108.361782751192	1
7	450	1132.694596718756	1
7	453	1136.108807583738	1
7	455	1136.333826018112	2
7	463	1148.078871593158	3
7	470	1163.720581410365	3
7	472	1168.488416785386	4
7	474	1173.076299037651	5
7	476	1176.916299660197	6
7	489	1216.291314203088	2
7	496	1230.755115960214	1
7	512	1272.682469325331	1
7	529	1317.361855239214	1
7	548	1361.686355425169	1
7	558	1413.14304119274	1
7	565	1419.219797478038	1
7	575	1455.374959090924	1
7	598	1512.613832586893	1
7	604	1526.463072663728	2
7	610	1545.518748707868	3
7	622	1579.922105872001	1
7	633	1614.647544777863	1
7	659	1669.12752658445	1
7	692	1752.69058199458	1
7	713	1784.36714221366	1
7	732	1826.11813210479	1
7	738	1838.500648643851	2
7	746	1862.163813384079	1
7	751	1870.862406747146	1
7	754	1881.496160769119	1
7	758	1883.79523115591	2
7	766	1903.24141457117	3
7	788	1986.939751930008	1
7	816	2024.452246727987	1
7	818	2027.727541502782	2
7	820	2030.661302349244	3
7	824	2037.18732466916	4
7	831	2049.562016438356	4
7	844	2073.58352631853	1
7	846	2074.263168382427	2
7	853	2095.128767516438	1
7	878	2143.862823377282	1
7	883	2148.922937466807	1
7	885	2150.669734305564	2
7	895	2183.044205315737	1
7	900	2202.435043403632	1
7	906	2216.788444128043	1
7	925	2249.729384129566	1
7	927	2251.367958607534	2
7	938	2279.690247357455	1
7	940	2280.385384205945	2
7	946	2294.765771610817	1
7	955	2311.466960642226	1
7	957	2314.816185985176	2
7	960	2318.058885096036	2
7	966	2321.349749090659	3
7	970	2326.870960380821	4
7	972	2327.4267847295	5
7	974	2328.107968982309	6
7	981	2332.981509177791	6
7	986	2354.319388697645	6
7	992	2370.218810734865	5
7	1011	2408.760504512205	1
7	1018	2422.9459360675	1
7	1021	2427.402652917027	1
7	1026	2432.751736103515	1
7	1037	2465.658478271555	1
7	1039	2472.320315154536	2
7	1041	2473.889202106358	3
7	1043	2478.649007051707	4
7	1048	2498.862924785266	2
8	165	375.391315048882	12
8	177	416.09885070976	13
8	185	457.766007587543	14
8	202	519.361765448563	15
8	207	529.267700894395	16
8	225	564.300560389618	17
8	230	619.011098646388	18
8	235	625.351485420614	19
8	248	656.547358981017	20
8	323	818.983464402905	21
8	332	843.367700009282	22
8	344	863.83902178876	23
8	366	920.493155444247	24
8	374	931.651819903604	25
8	413	1058.518930789588	26
8	441	1108.361782751192	27
8	450	1132.694596718756	28
8	453	1136.108807583738	29
8	496	1230.755115960214	30
8	512	1272.682469325331	31
8	529	1317.361855239214	32
8	548	1361.686355425169	33
8	558	1413.14304119274	34
8	565	1419.219797478038	35
8	575	1455.374959090924	36
8	598	1512.613832586893	37
8	622	1579.922105872001	38
8	633	1614.647544777863	39
8	659	1669.12752658445	40
8	692	1752.69058199458	41
8	713	1784.36714221366	42
8	732	1826.11813210479	43
8	746	1862.163813384079	44
8	751	1870.862406747146	45
8	754	1881.496160769119	46
8	788	1986.939751930008	47
8	816	2024.452246727987	48
8	844	2073.58352631853	49
8	853	2095.128767516438	50
8	878	2143.862823377282	51
8	883	2148.922937466807	52
8	895	2183.044205315737	53
8	900	2202.435043403632	54
8	906	2216.788444128043	55
8	925	2249.729384129566	56
8	938	2279.690247357455	57
8	946	2294.765771610817	58
8	955	2311.466960642226	59
8	1011	2408.760504512205	60
8	1018	2422.9459360675	61
8	1021	2427.402652917027	62
8	1026	2432.751736103515	63
8	1037	2465.658478271555	64
9	167	379.054593604	19
9	170	382.553778789361	20
9	171	405.626032908791	21
9	172	406.206338687811	22
9	173	407.145105472795	23
9	174	411.501643319687	24
9	175	414.532297075306	25
9	181	438.827380880072	26
9	182	440.078213314361	27
9	183	449.664727173963	28
9	213	541.220447417351	29
9	216	545.989855800522	30
9	217	547.359699400447	31
9	222	550.946678861414	32
9	223	554.10936487302	33
9	227	609.142823502574	34
9	228	616.196611417331	35
9	241	636.13504476252	36
9	244	646.545374558606	37
9	245	648.538350650064	38
9	246	650.166753640626	39
9	319	814.070456445745	40
9	330	842.633118296458	41
9	341	860.850399881973	42
9	342	862.422704772836	43
9	350	876.219674262995	44
9	351	885.843237980003	45
9	352	886.436180750179	46
9	361	904.989144135661	47
9	362	905.88335769054	48
9	370	925.105272997481	49
9	379	937.156908519675	50
9	380	954.332677521466	51
9	381	960.738605816684	52
9	384	968.341894272583	53
9	387	977.327998849923	54
9	390	979.96837477198	55
9	397	1004.582209815608	56
9	400	1011.635374787342	57
9	401	1023.700265808974	58
9	406	1047.806246584356	59
9	411	1053.055025926241	60
9	421	1074.371092871456	61
9	422	1079.570713704737	62
9	423	1082.629211240996	63
9	424	1082.94894398551	64
9	425	1083.525240965808	65
9	426	1088.075682593278	66
9	429	1093.757847872651	67
9	430	1094.520484306898	68
9	431	1095.789412545734	69
9	434	1096.716464926277	70
9	435	1100.033068604472	71
9	438	1102.482332744654	72
9	439	1102.823471894276	73
9	492	1226.15610833263	74
9	493	1229.308196304905	75
9	494	1230.550518274813	76
9	502	1246.339153135314	77
9	505	1255.013977768561	78
9	506	1255.567128981325	79
9	507	1262.431282425652	80
9	508	1262.656831734914	81
9	509	1265.893048999601	82
9	510	1268.226406232481	83
9	514	1281.472500482793	84
9	515	1290.67882905675	85
9	516	1291.767469502706	86
9	521	1302.153763385484	87
9	524	1306.670034311954	88
9	525	1308.602566793071	89
9	539	1339.125421197319	90
9	540	1349.374373676044	91
9	541	1350.402916493641	92
9	542	1352.821309491039	93
9	550	1368.62283531841	94
9	551	1379.553371935333	95
9	552	1380.795285662752	96
9	553	1397.085442655512	97
9	556	1408.433438185491	98
9	573	1446.195890381788	99
9	579	1461.669659970026	100
9	580	1465.627317262458	101
9	581	1466.05668047566	102
9	584	1467.327527409938	103
9	585	1470.809045032661	104
9	586	1471.80357407365	105
9	587	1478.572527886449	106
9	588	1488.255987568507	107
9	589	1489.715426138433	108
9	592	1496.766070854612	109
9	593	1499.478719671473	110
9	594	1503.387668960096	111
9	614	1568.60598304688	112
9	615	1568.625676987377	113
9	618	1570.911107761499	114
9	639	1623.360711523542	115
9	640	1630.509837632421	116
9	645	1646.948774869104	117
9	646	1649.901391810877	118
9	653	1666.742364026936	119
9	661	1682.678202589396	120
9	662	1682.800875384019	121
9	671	1706.932077764914	122
9	676	1720.194299447646	123
9	679	1726.202779204795	124
9	680	1730.625365921414	125
9	685	1739.459010058825	126
9	688	1747.17307089497	127
9	706	1774.474436933866	128
9	707	1775.707959556237	129
9	723	1805.145816058936	130
9	726	1818.171758454256	131
9	729	1823.096696348808	132
9	730	1825.348441175308	133
9	776	1946.206289664278	134
9	777	1946.31508401864	135
9	780	1962.52451545078	136
9	781	1962.7473814966	137
9	782	1962.862267602417	138
9	792	1999.375863363349	139
9	795	2003.298869232205	140
9	800	2007.483311255484	141
9	801	2011.019318526222	142
9	810	2019.129734203146	143
9	842	2062.893756544117	144
9	849	2091.734813039107	145
9	863	2108.111276179204	146
9	872	2137.278102337404	147
9	873	2138.432468436883	148
9	876	2143.428695234112	149
9	892	2177.565181321243	150
9	893	2178.902619714833	151
9	897	2191.212217509964	152
9	898	2192.632509769216	153
9	904	2214.586766362016	154
9	914	2229.347586900781	155
9	917	2233.217720125335	156
9	918	2235.575532269996	157
9	921	2236.967909405025	158
9	922	2240.791428836115	159
9	923	2244.168606632677	160
9	930	2270.081639444639	161
9	1008	2403.881664379834	162
9	1009	2405.641812008268	163
9	1013	2410.613378867212	164
9	1016	2411.926046370549	165
9	1023	2430.800995361124	166
9	1024	2432.605740605597	167
9	1028	2436.683735932495	168
9	1029	2444.213191033406	169
9	1030	2446.518856602521	170
9	1033	2454.214726371023	171
9	1034	2461.630096023083	172
9	1035	2462.940275808314	173
10	167	379.054593604	154.84172389969
10	170	382.553778789361	154.10686486299
10	171	405.626032908791	173.42053673035
10	172	406.206338687811	163.13145998087
10	173	407.145105472795	156.79079729449
10	174	411.501643319687	146.51302640284
10	175	414.532297075306	143.71485036157
10	181	438.827380880072	149.15661730668
10	182	440.078213314361	142.38925610806
10	183	449.664727173963	139.61264494567
10	213	541.220447417351	194.06498936033
10	216	545.989855800522	198.32217259639
10	217	547.359699400447	192.32049714798
10	222	550.946678861414	187.65686431045
10	223	554.10936487302	186.27843487305
10	227	609.142823502574	226.77222099591
10	228	616.196611417331	200.09776070757
10	241	636.13504476252	175.28237613969
10	244	646.545374558606	180.17133701274
10	245	648.538350650064	181.18917766322
10	246	650.166753640626	146.62568679811
10	319	814.070456445745	287.24816621975
10	330	842.633118296458	309.79122240262
10	341	860.850399881973	317.12087653085
10	342	862.422704772836	312.67804443421
10	350	876.219674262995	311.91911387338
10	351	885.843237980003	266.83213933361
10	352	886.436180750179	262.05855083284
10	361	904.989144135661	279.63765871505
10	362	905.88335769054	279.50634623307
10	370	925.105272997481	279.06387988142
10	379	937.156908519675	278.75845210834
10	380	954.332677521466	294.64175321496
10	381	960.738605816684	299.29671539679
10	384	968.341894272583	294.74030605119
10	387	977.327998849923	287.07813245694
10	390	979.96837477198	276.69277491839
10	397	1004.582209815608	300.94881300773
10	400	1011.635374787342	282.24474824477
10	401	1023.700265808974	286.65489616189
10	406	1047.806246584356	304.42072623685
10	411	1053.055025926241	307.84828828781
10	421	1074.371092871456	322.93716916263
10	422	1079.570713704737	321.38595505522
10	423	1082.629211240996	323.98335962906
10	424	1082.94894398551	313.01797095947
10	425	1083.525240965808	310.86861716227
10	426	1088.075682593278	305.47014389165
10	429	1093.757847872651	299.91809825451
10	430	1094.520484306898	296.27448892106
10	431	1095.789412545734	282.29324217614
10	434	1096.716464926277	282.53054219467
10	435	1100.033068604472	281.04960420157
10	438	1102.482332744654	276.41536192222
10	439	1102.823471894276	259.45577188499
10	492	1226.15610833263	357.13954988571
10	493	1229.308196304905	353.47882197676
10	494	1230.550518274813	344.08937295949
10	502	1246.339153135314	345.50590877273
10	505	1255.013977768561	350.63480161927
10	506	1255.567128981325	340.49640253753
10	507	1262.431282425652	341.9381269814
10	508	1262.656831734914	341.36651944517
10	509	1265.893048999601	339.63384478488
10	510	1268.226406232481	336.57458632888
10	514	1281.472500482793	309.41265375238
10	515	1290.67882905675	311.66478635014
10	516	1291.767469502706	305.36587959216
10	521	1302.153763385484	310.67599156653
10	524	1306.670034311954	310.09671427096
10	525	1308.602566793071	299.01319499587
10	539	1339.125421197319	291.93022935702
10	540	1349.374373676044	297.78595153543
10	541	1350.402916493641	298.54931383037
10	542	1352.821309491039	294.30237870145
10	550	1368.62283531841	295.6273807254
10	551	1379.553371935333	305.22359485294
10	552	1380.795285662752	290.90325725663
10	553	1397.085442655512	300.79869166766
10	556	1408.433438185491	306.03802353121
10	573	1446.195890381788	337.53680303676
10	579	1461.669659970026	328.97506325127
10	580	1465.627317262458	329.51850967872
10	581	1466.05668047566	328.54825227096
10	584	1467.327527409938	326.56229764019
10	585	1470.809045032661	326.02896347333
10	586	1471.80357407365	319.94222618999
10	587	1478.572527886449	317.44392699814
10	588	1488.255987568507	298.07370281053
10	589	1489.715426138433	295.6083311468
10	592	1496.766070854612	300.95590024687
10	593	1499.478719671473	268.72360371126
10	594	1503.387668960096	267.81130853109
10	614	1568.60598304688	313.9824644709
10	615	1568.625676987377	295.94320766205
10	618	1570.911107761499	273.33430643415
10	639	1623.360711523542	310.82659957785
10	640	1630.509837632421	313.14798239321
10	645	1646.948774869104	321.65413434573
10	646	1649.901391810877	320.17541802349
10	653	1666.742364026936	328.82401766189
10	661	1682.678202589396	322.66951733266
10	662	1682.800875384019	321.77817424028
10	671	1706.932077764914	345.24572233974
10	676	1720.194299447646	319.91019716992
10	679	1726.202779204795	313.05973801205
10	680	1730.625365921414	315.00561911597
10	685	1739.459010058825	320.49888005431
10	688	1747.17307089497	327.95327341693
10	706	1774.474436933866	343.75562084181
10	707	1775.707959556237	342.78327744851
10	723	1805.145816058936	348.5882523694
10	726	1818.171758454256	351.82983305528
10	729	1823.096696348808	326.5275478189
10	730	1825.348441175308	318.55475100002
10	776	1946.206289664278	407.57888064287
10	777	1946.31508401864	377.50930777979
10	780	1962.52451545078	387.31844449048
10	781	1962.7473814966	382.8252756246
10	782	1962.862267602417	375.26473807014
10	792	1999.375863363349	404.590608665
10	795	2003.298869232205	403.32032929376
10	800	2007.483311255484	392.83576647762
10	801	2011.019318526222	394.61434964073
10	810	2019.129734203146	398.00632742448
10	842	2062.893756544117	428.1834257782
10	849	2091.734813039107	431.14226482988
10	863	2108.111276179204	440.7925436748
10	872	2137.278102337404	468.43810366425
10	873	2138.432468436883	469.30494185243
10	876	2143.428695234112	459.27495738666
10	892	2177.565181321243	476.00362196276
10	893	2178.902619714833	462.36167181021
10	897	2191.212217509964	468.68569077669
10	898	2192.632509769216	459.58547272124
10	904	2214.586766362016	473.88204808313
10	914	2229.347586900781	476.6570049062
10	917	2233.217720125335	471.55181125188
10	918	2235.575532269996	472.4810169335
10	921	2236.967909405025	473.75415168163
10	922	2240.791428836115	475.69792958573
10	923	2244.168606632677	478.69859321961
10	930	2270.081639444639	491.48213086662
10	1008	2403.881664379834	613.21419052121
10	1009	2405.641812008268	612.28872661854
10	1013	2410.613378867212	597.88383107393
10	1016	2411.926046370549	589.13644912761
10	1023	2430.800995361124	595.4584843833
10	1024	2432.605740605597	586.28986053886
10	1028	2436.683735932495	574.51992254842
10	1029	2444.213191033406	577.50460855364
10	1030	2446.518856602521	575.65644985537
10	1033	2454.214726371023	572.7185656019
10	1034	2461.630096023083	578.03856403248
10	1035	2462.940275808314	575.47304171744
11	1052	2500	0.0692
12	1052	2500	0.0488

