file 62911 1678560140                                           
version 2
run experiments_hard_game_mode1-840-20230311-19:42:20-9044
attr configname experiments_hard_game_mode1
attr datetime 20230311-19:42:20
attr experiment experiments_hard_game_mode1
attr inifile omnetpp.ini
attr iterationvars "$0=8.5, $1=7, $2=0"
attr iterationvarsf 8.5,7,0-
attr measurement "$0=8.5, $1=7, $2=0"
attr network Network
attr processid 9044
attr repetition 0
attr replication #0
attr resultdir results
attr runnumber 840
attr seedset 0
param *.boss.arrival_mean 20
param *.boss.service_mean 8.5
param *.minion.arrival_mean 10
param *.minion.service_mean 7
param *.player.recover_rate_x 0
param **.minion.arrival_distribution 0
param **.minion.service_distribution 0
param **.boss.arrival_distribution 0
param **.boss.service_distribution 0

vector 0 Network.player boss_defeated_stat:vector ETV
attr source signal_boss_defeated
vector 1 Network.player boss_jobs_queue_number_stat:vector ETV
attr source signal_boss_jobs_queue_number
vector 2 Network.player boss_response_time_stat:vector ETV
attr source signal_boss_response_time
vector 3 Network.player minion_waiting_time_stat:vector ETV
attr source signal_minion_waiting_time
vector 4 Network.player minion_defeated_stat:vector ETV
attr source signal_minion_defeated
vector 5 Network.player minion_jobs_queue_number_stat:vector ETV
attr source signal_minion_jobs_queue_number
vector 6 Network.player minion_response_time_stat:vector ETV
attr source signal_minion_response_time
vector 7 Network.player minion_jobs_number_stat:vector ETV
attr source signal_minion_jobs_number
vector 8 Network.player boss_jobs_number_stat:vector ETV
attr source signal_boss_jobs_number
vector 9 Network.player minion_recovered_stat:vector ETV
attr source signal_minion_recovered
vector 10 Network.player boss_waiting_time_stat:vector ETV
attr source signal_boss_waiting_time
vector 11 Network.player minion_throughput:vector ETV
attr source signal_minion_throughput
vector 12 Network.player boss_throughput:vector ETV
attr source signal_boss_throughput
0	2008 2831 160 1088 351.329602031201 2490.342202532944 106 22 127 7897 687569
1	4839 5375 160 1088 351.329602031201 2490.342202532944 211 0 3 96 168
2	10214 4104 160 1088 351.329602031201 2490.342202532944 106 0.206330108711 42.144117707353 1056.463424597 17742.999386946
3	14318 10858 160 1088 351.329602031201 2490.342202532944 274 0 305.38431684105 46599.776796483 9486117.1201056
4	25176 5530 161 1080 353.155312980773 2471.890869026488 201 27 227 25527 3918629
5	30706 10868 161 1090 353.155312980773 2491.497376120721 408 0 42 9375 250787
6	41574 7995 161 1080 353.155312980773 2471.890869026488 201 11.292173838815 308.99129849944 36866.907814975 7847776.1110462
7	49569 5490 164 1090 356.599406890352 2491.497376120721 207 1 43 4926 135378
8	55059 2678 167 1086 365.058342191057 2480.218280446483 105 1 4 153 285
9	57737 1921 167 1082 365.058342191057 2476.510344138141 72 17 88 3780 229548
10	59658 3212 167 1087 365.058342191057 2483.11304916236 105 0 32.983521847842 273.46419213318 4528.2210818698
11	62870 20 1091 1091 2500 2500 1 0.0908 0.0908 0.0908 0.00824464
12	62890 20 1091 1091 2500 2500 1 0.0508 0.0508 0.0508 0.00258064

