file 53083 1678560023                                           
version 2
run experiments_hard_game_mode1-285-20230311-19:40:23-6089
attr configname experiments_hard_game_mode1
attr datetime 20230311-19:40:23
attr experiment experiments_hard_game_mode1
attr inifile omnetpp.ini
attr iterationvars "$0=7.5, $1=7, $2=100"
attr iterationvarsf 7.5,7,100-
attr measurement "$0=7.5, $1=7, $2=100"
attr network Network
attr processid 6089
attr repetition 15
attr replication #15
attr resultdir results
attr runnumber 285
attr seedset 15
param *.boss.arrival_mean 20
param *.boss.service_mean 7.5
param *.minion.arrival_mean 10
param *.minion.service_mean 7
param *.player.recover_rate_x 100
param **.minion.arrival_distribution 0
param **.minion.service_distribution 0
param **.boss.arrival_distribution 0
param **.boss.service_distribution 0

vector 0 Network.player minion_defeated_stat:vector ETV
attr source signal_minion_defeated
vector 1 Network.player minion_jobs_queue_number_stat:vector ETV
attr source signal_minion_jobs_queue_number
vector 2 Network.player minion_response_time_stat:vector ETV
attr source signal_minion_response_time
vector 3 Network.player minion_waiting_time_stat:vector ETV
attr source signal_minion_waiting_time
vector 4 Network.player minion_jobs_number_stat:vector ETV
attr source signal_minion_jobs_number
vector 5 Network.player boss_jobs_number_stat:vector ETV
attr source signal_boss_jobs_number
vector 6 Network.player boss_jobs_queue_number_stat:vector ETV
attr source signal_boss_jobs_queue_number
vector 7 Network.player minion_recovered_stat:vector ETV
attr source signal_minion_recovered
vector 8 Network.player boss_waiting_time_stat:vector ETV
attr source signal_boss_waiting_time
vector 9 Network.player boss_defeated_stat:vector ETV
attr source signal_boss_defeated
vector 10 Network.player boss_response_time_stat:vector ETV
attr source signal_boss_response_time
vector 11 Network.player minion_throughput:vector ETV
attr source signal_minion_throughput
vector 12 Network.player boss_throughput:vector ETV
attr source signal_boss_throughput
0	2019 3583 150 1014 351.679814496812 2499.886484832315 133 25 157 12103 1297415
1	5602 8729 150 1014 351.679814496812 2499.886484832315 334 0 77 7008 291788
2	14331 5239 150 1014 351.679814496812 2499.886484832315 133 3.735166183157 600.32089810635 18830.21765985 5045615.3291644
3	19570 7364 150 1014 351.679814496812 2499.886484832315 187 0 585.40750121763 26052.113398529 7092731.8575372
4	26934 5287 155 1011 371.826817875947 2485.321044617593 201 1 78 5082 224724
5	32221 2812 169 992 390.19208526962 2439.323409864084 110 1 6 207 523
6	35033 5633 169 1009 390.19208526962 2482.464912851755 220 0 5 194 438
7	40666 1431 169 965 390.19208526962 2370.716186367381 54 14 67 2187 101691
8	42097 3560 169 1004 390.19208526962 2472.449932804364 110 0 61.468064781414 901.00058414971 25324.613833519
9	45657 2963 172 1009 390.886670064108 2482.464912851755 110 22 131 8415 754655
10	48620 4422 172 1009 390.886670064108 2482.464912851755 110 0.039645719459 70.03526501683 2005.5169005741 61283.479133263
11	53042 20 1015 1015 2500 2500 1 0.0628 0.0628 0.0628 0.00394384
12	53062 20 1015 1015 2500 2500 1 0.0524 0.0524 0.0524 0.00274576

