version 2
run Consistency_test_bosses_defeated-173-20221207-16:14:34-7667
attr configname Consistency_test_bosses_defeated
attr datetime 20221207-16:14:34
attr experiment Consistency_test_bosses_defeated
attr inifile omnetpp.ini
attr iterationvars $0=3
attr iterationvarsf 3-
attr measurement $0=3
attr network Network
attr processid 7667
attr repetition 73
attr replication #73
attr resultdir results
attr runnumber 173
attr seedset 73
param *.boss.arrival_mean 1
param *.boss.service_mean 3
param **.minion.arrival_distribution 0
param **.minion.service_distribution 0
param *.minion.arrival_mean 10
param *.minion.service_mean 1
param **.boss.arrival_distribution 0
param **.boss.service_distribution 0

vector 0 Network.player minion_jobs_number_stat:vector ETV
attr source signal_minion_jobs_number
vector 1 Network.player minion_jobs_queue_number_stat:vector ETV
attr source signal_minion_jobs_queue_number
vector 2 Network.player minion_recovered_stat:vector ETV
attr source signal_minion_recovered
vector 3 Network.player minion_defeated_stat:vector ETV
attr source signal_minion_defeated
vector 4 Network.player boss_jobs_number_stat:vector ETV
attr source signal_boss_jobs_number
vector 5 Network.player boss_jobs_queue_number_stat:vector ETV
attr source signal_boss_jobs_queue_number
vector 6 Network.player boss_defeated_stat:vector ETV
attr source signal_boss_defeated
vector 7 Network.player boss_waiting_time_stat:vector ETV
attr source signal_boss_waiting_time
vector 8 Network.player boss_response_time_stat:vector ETV
attr source signal_boss_response_time
vector 9 Network.player minion_throughput:vector ETV
attr source signal_minion_throughput
vector 10 Network.player boss_throughput:vector ETV
attr source signal_boss_throughput
0	0	0	0
0	8	2.894107232909	1
0	45	13.852851122854	2
0	57	18.550128138227	3
0	95	34.071086792964	4
0	114	43.185656087734	5
0	140	52.126942255409	6
0	156	58.624623802133	7
0	185	66.323057149685	8
0	193	70.441117215689	9
0	205	74.906643891414	10
0	243	90.049408641166	11
0	274	100.634016018763	12
0	286	110.055674663772	13
0	303	116.244927685127	14
0	326	121.625387193414	15
0	337	126.253994499851	16
0	339	126.642592189347	17
0	374	143.264479561471	18
0	421	165.040331205294	19
0	439	176.402885576485	20
0	441	177.112967459967	21
0	460	186.312786389899	22
0	468	188.639953085417	23
0	516	205.306405214339	24
0	522	206.905098974291	25
0	547	215.155889406165	26
0	594	242.510513477016	27
0	634	253.558593611909	28
0	688	278.927293004901	29
0	758	305.374349800288	30
0	760	309.590172980587	31
0	773	314.610945317848	32
0	824	330.70320161527	33
0	863	345.311477776764	34
0	879	353.01126934365	35
0	907	367.996610203896	36
0	993	403.812327374621	37
0	1013	408.742516198809	38
0	1028	412.185040132829	39
0	1035	412.853616925308	40
0	1105	439.861713567418	41
0	1123	443.986531480845	42
0	1171	460.31319852809	43
0	1253	492.454499345319	44
0	1259	499.730214737112	45
0	1303	518.778602040074	46
0	1310	520.258150705358	47
0	1333	529.040666509561	48
0	1351	533.825273102985	49
0	1357	534.194094830414	50
0	1389	548.360965365724	51
0	1406	552.51358471515	52
0	1416	556.679933591584	53
0	1424	557.95928486403	54
0	1439	562.703876706313	55
0	1519	605.801950640923	56
0	1542	615.95571691154	57
0	1557	623.244959057162	58
0	1559	623.971044578508	59
0	1584	633.444948600376	60
0	1593	638.04364589507	61
0	1623	649.133540104315	62
0	1647	656.336324954754	63
0	1657	658.652053895145	64
0	1659	658.969157452327	65
0	1661	658.998432138904	66
0	1728	686.537837050412	67
0	1806	732.320369342302	68
0	1842	747.017401003714	69
0	1847	747.5334614188	70
0	1854	755.035103883765	71
0	1866	758.471215279348	72
0	1890	769.291231940924	73
0	1892	769.405183515828	74
0	1973	812.166047376369	75
0	1980	814.261318758284	76
0	2045	847.224304092916	77
0	2073	862.041300670817	78
0	2075	862.964209762517	79
0	2088	868.659656278046	80
0	2090	870.674213623855	81
0	2094	870.76839678387	82
0	2126	888.835582929679	83
0	2136	891.338312973948	84
0	2139	893.088939309832	85
0	2208	919.977396959204	86
0	2237	929.174874350986	87
0	2257	938.412595502081	88
0	2276	943.031652319505	89
0	2310	955.86584660771	90
0	2322	960.631069142533	91
0	2391	983.701510940526	92
0	2419	992.722114904096	93
0	2423	993.427257563662	94
0	2428	996.486329655957	95
1	0	0	0
1	8	2.894107232909	0
1	45	13.852851122854	1
1	57	18.550128138227	2
1	95	34.071086792964	3
1	114	43.185656087734	4
1	140	52.126942255409	5
1	156	58.624623802133	6
1	185	66.323057149685	7
1	193	70.441117215689	8
1	205	74.906643891414	9
1	243	90.049408641166	10
1	274	100.634016018763	11
1	286	110.055674663772	12
1	303	116.244927685127	13
1	326	121.625387193414	14
1	337	126.253994499851	15
1	339	126.642592189347	16
1	374	143.264479561471	17
1	421	165.040331205294	18
1	439	176.402885576485	19
1	441	177.112967459967	20
1	460	186.312786389899	21
1	468	188.639953085417	22
1	516	205.306405214339	23
1	522	206.905098974291	24
1	547	215.155889406165	25
1	594	242.510513477016	26
1	634	253.558593611909	27
1	688	278.927293004901	28
1	758	305.374349800288	29
1	760	309.590172980587	30
1	773	314.610945317848	31
1	824	330.70320161527	32
1	863	345.311477776764	33
1	879	353.01126934365	34
1	907	367.996610203896	35
1	993	403.812327374621	36
1	1013	408.742516198809	37
1	1028	412.185040132829	38
1	1035	412.853616925308	39
1	1105	439.861713567418	40
1	1123	443.986531480845	41
1	1171	460.31319852809	42
1	1253	492.454499345319	43
1	1259	499.730214737112	44
1	1303	518.778602040074	45
1	1310	520.258150705358	46
1	1333	529.040666509561	47
1	1351	533.825273102985	48
1	1357	534.194094830414	49
1	1389	548.360965365724	50
1	1406	552.51358471515	51
1	1416	556.679933591584	52
1	1424	557.95928486403	53
1	1439	562.703876706313	54
1	1519	605.801950640923	55
1	1542	615.95571691154	56
1	1557	623.244959057162	57
1	1559	623.971044578508	58
1	1584	633.444948600376	59
1	1593	638.04364589507	60
1	1623	649.133540104315	61
1	1647	656.336324954754	62
1	1657	658.652053895145	63
1	1659	658.969157452327	64
1	1661	658.998432138904	65
1	1728	686.537837050412	66
1	1806	732.320369342302	67
1	1842	747.017401003714	68
1	1847	747.5334614188	69
1	1854	755.035103883765	70
1	1866	758.471215279348	71
1	1890	769.291231940924	72
1	1892	769.405183515828	73
1	1973	812.166047376369	74
1	1980	814.261318758284	75
1	2045	847.224304092916	76
1	2073	862.041300670817	77
1	2075	862.964209762517	78
1	2088	868.659656278046	79
1	2090	870.674213623855	80
1	2094	870.76839678387	81
1	2126	888.835582929679	82
1	2136	891.338312973948	83
1	2139	893.088939309832	84
1	2208	919.977396959204	85
1	2237	929.174874350986	86
1	2257	938.412595502081	87
1	2276	943.031652319505	88
1	2310	955.86584660771	89
1	2322	960.631069142533	90
1	2391	983.701510940526	91
1	2419	992.722114904096	92
1	2423	993.427257563662	93
1	2428	996.486329655957	94
2	0	0	0
3	0	0	0
4	0	0	0
4	2	1.102696715289	1
4	4	1.553380868298	2
4	6	1.699936972404	3
4	10	3.521531372338	4
4	13	4.483859969675	4
4	16	6.392553882966	4
4	18	6.461921239672	5
4	20	6.700875522967	6
4	23	7.844779644515	6
4	25	8.091173087928	7
4	27	8.639830685847	8
4	29	9.246545250679	9
4	31	9.675889305158	10
4	33	9.681538368535	11
4	35	11.530726647375	12
4	37	11.965446399782	13
4	39	12.131524605489	14
4	41	12.191887036648	15
4	43	12.380913854406	16
4	47	14.149017058564	17
4	49	15.717328123213	18
4	51	16.273109966536	19
4	53	17.626301682677	20
4	55	18.112266457783	21
4	59	18.697277601039	22
4	61	19.804644127687	23
4	63	21.630299650142	24
4	65	21.880530236348	25
4	67	23.166740665489	26
4	70	25.196641433268	26
4	74	27.846991075495	25
4	76	28.544526340689	26
4	78	28.871490306174	27
4	81	30.043305433187	27
4	83	31.186724196076	28
4	85	31.49221008435	29
4	87	31.962232723188	30
4	89	32.708575001798	31
4	91	33.398146873567	32
4	93	33.483683222214	33
4	98	37.15875722452	33
4	100	37.263617067103	34
4	102	37.63108552917	35
4	105	40.447554599544	35
4	107	40.801110935496	36
4	110	42.023115074065	36
4	112	42.350860334205	37
4	117	45.409416973575	37
4	119	46.335375835373	38
4	121	47.186198253483	39
4	124	47.963410532791	39
4	126	48.307135398373	40
4	128	48.662702723727	41
4	130	49.047513861679	42
4	132	50.127615244449	43
4	134	50.279025954556	44
4	136	50.3230235797	45
4	138	52.02998720005	46
4	142	52.154843426187	47
4	146	54.412991422497	46
4	148	55.290790796781	47
4	150	55.847542405634	48
4	152	56.303178297961	49
4	154	57.888457517263	50
4	158	59.31767016976	51
4	161	60.235310118775	51
4	163	61.665719757881	52
4	165	62.440030103812	53
4	167	62.525061450082	54
4	169	62.792154061818	55
4	171	63.626523591239	56
4	174	64.657710678302	56
4	176	65.318889810599	57
4	178	65.375891977701	58
4	180	65.610065493368	59
4	182	65.678117009429	60
4	187	67.447147996878	60
4	191	69.549705844419	59
4	195	70.898361878654	60
4	197	72.839217999038	61
4	199	72.946541289275	62
4	201	74.331001547584	63
4	203	74.541229143604	64
4	209	78.991014374021	63
4	211	79.137637177828	64
4	213	79.346440148937	65
4	215	80.074205721748	66
4	217	80.759698931155	67
4	219	81.419894307433	68
4	221	83.471132638805	69
4	223	84.190736890889	70
4	225	85.203812670022	71
4	227	87.474563702241	72
4	229	87.531387177531	73
4	233	88.539375252911	72
4	236	89.890254250839	72
4	239	89.946266183938	72
4	241	90.037864998687	73
4	245	90.184241263141	74
4	247	90.271629812228	75
4	249	90.960810650282	76
4	251	91.299131691982	77
4	253	91.675788518611	78
4	255	95.925714108556	79
4	258	96.692044672244	79
4	260	98.166302625793	80
4	263	98.64410177883	80
4	266	98.96180421757	80
4	268	99.214516316058	81
4	270	99.536950229965	82
4	272	99.665253589932	83
4	276	103.054719947489	84
4	278	104.182681526336	85
4	281	105.749074927753	85
4	283	106.165409994932	86
4	288	112.710987203258	86
4	290	113.294019489558	87
4	293	113.828102728298	87
4	295	114.256545580357	88
4	297	114.303299004972	89
4	299	115.612188117156	90
4	301	116.203131450757	91
4	305	116.44951953912	92
4	307	116.824571970823	93
4	310	117.866947034529	93
4	312	119.068739679596	94
4	314	119.074227274944	95
4	317	120.056734077713	95
4	319	120.509470544243	96
4	321	120.711138472215	97
4	324	121.400474960677	97
4	328	121.695690699189	98
4	330	124.091971217767	99
4	332	125.194079858622	100
4	334	125.321577395646	101
4	341	129.749554082182	101
4	344	131.253332634263	101
4	347	131.736596371364	101
4	350	131.954677726398	101
4	352	132.269568869726	102
4	354	132.394291509605	103
4	356	133.094013709373	104
4	358	133.612002749844	105
4	360	134.66909975088	106
4	362	135.329866036338	107
4	364	136.082681411826	108
4	368	140.602038647655	107
4	370	141.865723007814	108
4	372	142.625355125607	109
4	376	143.371502974868	110
4	381	147.014049800644	108
4	383	147.104057963237	109
4	385	147.634635428776	110
4	388	148.360067954469	110
4	391	149.008736333492	110
4	397	152.982365291899	107
4	399	155.431277999981	108
4	402	156.496978205112	108
4	404	158.712010687702	109
4	407	160.85696619518	109
4	410	162.082304517998	109
4	413	162.44140786054	109
4	415	163.113682469885	110
4	417	163.4140137003	111
4	423	165.136677075761	110
4	425	166.585712277482	111
4	428	168.452804411475	111
4	430	169.021831353897	112
4	432	169.75770372323	113
4	434	171.147560865038	114
4	436	171.258836338776	115
4	443	178.442419719244	115
4	445	178.891577210211	116
4	450	182.000291766648	114
4	452	183.387614373486	115
4	454	184.843873357796	116
4	456	185.692475951393	117
4	458	185.91882690857	118
4	462	187.167703831167	119
4	466	188.474057463904	118
4	470	189.729972733035	119
4	472	191.556187950185	120
4	474	192.431909519747	121
4	477	192.925506431099	121
4	479	192.974834412121	122
4	481	193.079796854047	123
4	483	193.538266194962	124
4	485	195.314614315739	125
4	487	195.4104907841	126
4	489	196.665859927822	127
4	491	197.373493221916	128
4	493	197.521444269357	129
4	495	198.489994806585	130
4	498	198.7457819911	130
4	500	198.9794720698	131
4	504	200.232113790008	130
4	506	200.345714392088	131
4	508	202.602929257926	132
4	511	204.356281749558	132
4	513	204.388299050936	133
4	519	206.267069394409	132
4	524	208.761249332251	132
4	526	208.841536272169	133
4	528	209.707108452505	134
4	530	210.244207543058	135
4	532	211.799217472759	136
4	534	211.94014497735	137
4	536	212.132362091705	138
4	538	212.40312320943	139
4	541	213.630038838477	139
4	543	213.661227076624	140
4	545	215.043451554163	141
4	552	218.937183058243	139
4	554	219.620125777002	140
4	556	220.494133553903	141
4	561	222.198601956237	139
4	563	223.076195251593	140
4	565	223.244441069402	141
4	567	223.296301750462	142
4	569	223.933724671848	143
4	571	226.039725080289	144
4	573	226.638531602516	145
4	575	227.016341453311	146
4	578	228.213359399354	146
4	581	230.93628233994	146
4	583	232.279231193973	147
4	585	234.66804569048	148
4	588	236.825142608889	148
4	590	240.983188701672	149
4	592	241.194327519791	150
4	596	242.642600285848	151
4	598	243.024762442133	152
4	600	243.229580177961	153
4	602	243.647949492744	154
4	604	244.778697418284	155
4	606	245.087190021481	156
4	608	245.161660482359	157
4	611	246.455799550418	157
4	613	247.105048795077	158
4	615	247.76347471357	159
4	617	248.272441867108	160
4	619	248.348715693263	161
4	622	249.333411873564	161
4	624	249.750483521583	162
4	626	249.946661045079	163
4	628	250.812068076803	164
4	630	251.152105464286	165
4	632	251.966863776132	166
4	636	254.155807836562	167
4	638	254.221633566038	168
4	640	254.455341001145	169
4	643	255.136304327958	169
4	645	255.492208680321	170
4	649	259.344067353207	169
4	651	259.347906077535	170
4	653	261.144684739731	171
4	655	261.155508707642	172
4	657	261.829509402482	173
4	659	262.535530863753	174
4	661	262.78632418455	175
4	664	264.176819833029	175
4	668	266.302368397355	174
4	671	268.054985243811	174
4	673	268.47464372106	175
4	676	269.967459077566	175
4	679	274.047992621561	175
4	682	276.795292086476	175
4	684	277.464075160065	176
4	686	277.620809053464	177
4	690	279.187714789967	178
4	692	279.828258633091	179
4	695	283.088954527632	179
4	697	283.41746632465	180
4	699	283.592687643767	181
4	701	283.913603214027	182
4	703	283.927348770273	183
4	705	284.597870002402	184
4	708	285.617823932662	184
4	710	285.956833330738	185
4	712	289.555348119733	186
4	714	291.461102637302	187
4	716	291.558062993294	188
4	718	292.477489411826	189
4	720	292.652851422748	190
4	722	292.922875239133	191
4	724	292.949293146984	192
4	726	292.979055661678	193
4	728	294.661969588014	194
4	730	295.208123203933	195
4	732	296.186321049763	196
4	734	297.076013766528	197
4	736	298.122350564314	198
4	738	298.834252739057	199
4	740	300.842230047795	200
4	742	302.093929106701	201
4	744	302.254205915106	202
4	746	302.517572960439	203
4	748	302.535131165402	204
4	750	302.907694728307	205
4	753	304.096656369751	205
4	756	305.304664897129	205
4	762	309.819362173904	206
4	764	310.31959704701	207
4	766	311.011125246164	208
4	769	312.820905928981	208
4	771	313.328108728223	209
4	776	315.02819223754	209
4	780	318.194524980669	208
4	783	318.717116272225	208
4	785	319.129049549804	209
4	787	319.371417079094	210
4	789	319.682217335973	211
4	791	319.793062921852	212
4	793	319.835755042368	213
4	795	320.016121596966	214
4	797	320.141835197625	215
4	799	321.526797075159	216
4	803	323.978653083322	215
4	806	325.889546306394	215
4	808	325.985819572817	216
4	810	326.798528869934	217
4	812	327.250602490567	218
4	814	328.262186942244	219
4	816	328.688455297493	220
4	818	328.98365249658	221
4	820	329.026371287829	222
4	826	330.791647431721	221
4	828	330.900543214371	222
4	830	331.316872026706	223
4	832	331.512627642658	224
4	836	332.15236785288	223
4	838	332.334926806736	224
4	840	332.47164787919	225
4	844	334.265643681153	224
4	847	335.403206874769	224
4	852	340.132550536888	222
4	854	340.434559176815	223
4	857	343.642304879723	223
4	859	344.087191343035	224
4	861	344.443052744571	225
4	868	347.893504475693	223
4	870	348.436202722948	224
4	873	348.907630941796	224
4	877	352.003027945138	223
4	881	354.143821254378	224
4	883	354.934228619519	225
4	885	357.873925459154	226
4	887	357.983425282228	227
4	889	359.565042144385	228
4	892	360.03104115667	228
4	894	360.559666302697	229
4	897	363.861884279403	229
4	899	364.059571611635	230
4	901	364.664204039662	231
4	904	365.82958104302	231
4	909	368.660130197566	231
4	912	370.030494852521	231
4	915	373.4648911354	231
4	917	373.731093990808	232
4	919	376.162131952988	233
4	923	377.029644114795	232
4	925	378.001186355722	233
4	927	378.212073807176	234
4	929	378.441828772673	235
4	932	379.735348654404	235
4	934	380.275134279871	236
4	936	380.521074146461	237
4	938	382.295580558428	238
4	940	382.841087895799	239
4	942	383.046609914713	240
4	944	383.164635057828	241
4	946	383.216092390005	242
4	948	385.313695130321	243
4	950	386.311782673179	244
4	953	387.949322487617	244
4	955	388.073619206006	245
4	957	388.656043591741	246
4	959	388.890516938415	247
4	961	388.892072770176	248
4	963	389.317231252088	249
4	965	389.987928522364	250
4	967	391.563703092894	251
4	969	392.003534476756	252
4	972	393.279775713282	252
4	974	393.905727765556	253
4	977	395.00884040307	253
4	980	396.657192611342	253
4	982	397.126909747202	254
4	985	398.48357276928	254
4	989	402.385239598433	253
4	991	403.235661658154	254
4	995	403.98595015307	255
4	997	404.056530248359	256
4	999	405.424920823537	257
4	1001	405.723492216867	258
4	1003	405.74928811311	259
4	1005	406.988761046939	260
4	1007	406.991592215635	261
4	1009	407.070618339174	262
4	1011	407.147398344917	263
4	1015	408.793689902765	264
4	1017	409.043922057381	265
4	1019	409.500738410334	266
4	1021	409.805331265456	267
4	1023	410.419730520549	268
4	1031	412.504796046387	265
4	1033	412.825975724339	266
4	1037	412.927763346738	267
4	1040	413.480156772246	267
4	1043	413.996017258514	267
4	1045	414.035406694593	268
4	1047	414.329901991506	269
4	1049	415.186769051125	270
4	1051	415.562066488481	271
4	1054	417.172722637616	271
4	1057	421.760814860047	271
4	1059	422.787507894339	272
4	1061	423.033333395785	273
4	1063	423.172816716452	274
4	1065	423.337033009163	275
4	1067	423.650553521773	276
4	1070	424.405602346468	276
4	1072	425.875322701187	277
4	1074	426.863566783976	278
4	1076	427.10698456963	279
4	1078	427.529259334717	280
4	1080	427.564881904409	281
4	1083	430.253425470747	281
4	1085	431.665907691459	282
4	1087	431.705608213767	283
4	1090	434.32548378002	283
4	1094	436.023219708611	282
4	1097	436.363572698562	282
4	1099	437.124588659686	283
4	1101	437.275411840069	284
4	1103	437.39142289315	285
4	1108	439.969018364709	285
4	1110	440.461806252632	286
4	1112	440.678753451464	287
4	1114	441.995246782892	288
4	1116	442.748142392132	289
4	1118	443.717103979496	290
4	1121	443.766365889373	290
4	1125	444.87506113448	291
4	1127	446.682383664166	292
4	1129	447.01254100981	293
4	1131	448.54937584843	294
4	1133	448.764903926044	295
4	1135	448.886113531073	296
4	1137	449.175427032451	297
4	1139	450.449196052839	298
4	1141	451.098667070968	299
4	1144	453.443505277373	299
4	1146	453.594274245677	300
4	1148	455.427831959181	301
4	1150	455.430084864939	302
4	1152	455.875792394686	303
4	1154	456.9377354661	304
4	1157	457.244738842228	304
4	1159	458.092338053299	305
4	1161	458.26017623682	306
4	1163	458.606180401259	307
4	1165	458.671448395098	308
4	1167	458.729769255486	309
4	1169	459.375301665	310
4	1173	460.332935274996	311
4	1177	461.31036924073	310
4	1180	461.869437872527	310
4	1182	462.219571934104	311
4	1184	463.039141808944	312
4	1187	464.814182709293	312
4	1189	466.391254299175	313
4	1193	468.794686168364	312
4	1195	469.308249600634	313
4	1197	469.504800132048	314
4	1199	469.63434456408	315
4	1201	471.806283337925	316
4	1203	472.110678871325	317
4	1205	473.171352119987	318
4	1207	474.388003329548	319
4	1209	475.621540405004	320
4	1211	478.699706031402	321
4	1214	478.93841339714	321
4	1217	479.601981171036	321
4	1219	481.407578418457	322
4	1222	482.197204760769	322
4	1224	482.611708307272	323
4	1226	482.617860171823	324
4	1228	482.857904065522	325
4	1230	483.300890130373	326
4	1233	483.83205543665	326
4	1235	484.010460083189	327
4	1238	485.117275498724	327
4	1240	485.981435779328	328
4	1243	486.823884300381	328
4	1245	487.028058446459	329
4	1247	487.494457460307	330
4	1249	488.699441363681	331
4	1251	490.714214775454	332
4	1255	496.241209656525	333
4	1257	497.919103074839	334
4	1261	499.958156916458	335
4	1263	500.162728946583	336
4	1266	503.729700799016	336
4	1270	504.962556885781	335
4	1272	505.816720567097	336
4	1275	506.084578989066	336
4	1277	507.024852705087	337
4	1279	507.118375900034	338
4	1282	508.114228731738	338
4	1284	508.658129593779	339
4	1287	510.739414419346	339
4	1289	512.452923308902	340
4	1292	514.263575260577	340
4	1294	516.965976892133	341
4	1297	517.070349052834	341
4	1299	517.260565891072	342
4	1301	518.725664021758	343
4	1305	519.384754765796	344
4	1308	519.656338527443	344
4	1313	521.323620764764	344
4	1315	522.978205247308	345
4	1317	523.026537986144	346
4	1319	523.790183830448	347
4	1323	525.334699401861	346
4	1327	527.549681462888	345
4	1329	527.950880166587	346
4	1331	528.038684920028	347
4	1335	529.265795612015	348
4	1338	530.227690101457	348
4	1341	530.699663737404	348
4	1343	530.713856361818	349
4	1345	530.934513369098	350
4	1348	531.543265266151	350
4	1353	533.831387058197	350
4	1355	533.95175528049	351
4	1359	534.247487592718	352
4	1361	535.702672889348	353
4	1363	537.476449367636	354
4	1365	538.305447627799	355
4	1368	539.962829380636	355
4	1370	542.205749592438	356
4	1372	542.354296118849	357
4	1374	542.91572859697	358
4	1377	543.775567603161	358
4	1379	544.999388983523	359
4	1382	546.115905494147	359
4	1387	547.934593386809	357
4	1392	550.302176631047	357
4	1394	550.32903747129	358
4	1397	551.553272155364	358
4	1399	551.599784180971	359
4	1401	552.239783042498	360
4	1403	552.250402065663	361
4	1408	555.041617195178	361
4	1410	555.157812230245	362
4	1412	555.219100299277	363
4	1414	556.275410505677	364
4	1418	557.134523913101	365
4	1420	557.556938771978	366
4	1422	557.953678925482	367
4	1426	557.988521092057	368
4	1428	558.391554524483	369
4	1431	559.3296306053	369
4	1433	559.352706468046	370
4	1435	561.06097339322	371
4	1437	562.69201590985	372
4	1441	564.781276631391	373
4	1443	564.934719947728	374
4	1445	565.604224371484	375
4	1448	566.365141649784	375
4	1450	566.488500271877	376
4	1452	568.902111389021	377
4	1455	573.126217902596	377
4	1457	576.973096159426	378
4	1459	579.262958798911	379
4	1461	579.81091266132	380
4	1463	580.485207605026	381
4	1465	580.898101959832	382
4	1468	581.562962175152	382
4	1470	582.930269551873	383
4	1473	583.896266447716	383
4	1475	585.759923228778	384
4	1477	586.396063531118	385
4	1479	588.228494013206	386
4	1481	588.894426223156	387
4	1483	591.053008990997	388
4	1485	592.299300176569	389
4	1487	593.318218272343	390
4	1489	593.755906417096	391
4	1492	594.423214492636	391
4	1494	595.501165655329	392
4	1496	596.196833822862	393
4	1498	597.109548737634	394
4	1500	598.136411032167	395
4	1502	598.354372969815	396
4	1504	599.137587662711	397
4	1506	599.647733013936	398
4	1508	599.97673087948	399
4	1511	601.064878039491	399
4	1513	601.740819930012	400
4	1516	602.625081143016	400
4	1521	606.112823837963	400
4	1523	606.594285966929	401
4	1525	608.278468472288	402
4	1527	609.313010787304	403
4	1529	610.773512589773	404
4	1531	611.103352942582	405
4	1533	611.511886066019	406
4	1535	612.653070755437	407
4	1537	612.719736525605	408
4	1539	614.683704020862	409
4	1545	617.096311087332	408
4	1548	618.806291223352	408
4	1550	619.336900053919	409
4	1552	620.162775143563	410
4	1554	621.120742571787	411
4	1563	626.206607871862	409
4	1565	626.663327319903	410
4	1567	627.717845544962	411
4	1569	628.156981319716	412
4	1571	629.052710791383	413
4	1573	629.701907624011	414
4	1575	630.999970037638	415
4	1578	631.964891155475	415
4	1580	631.969084598744	416
4	1582	632.804712767533	417
4	1587	634.615670585313	417
4	1589	635.428736873282	418
4	1591	636.171341961375	419
4	1595	639.083242691296	420
4	1597	640.11720941588	421
4	1600	641.153050229891	421
4	1602	641.298778650353	422
4	1604	641.984453735819	423
4	1607	642.362320566383	423
4	1609	642.378419352673	424
4	1611	643.600466314356	425
4	1613	644.474959990867	426
4	1615	645.432848944554	427
4	1617	647.707551185144	428
4	1619	648.619374543801	429
4	1621	649.089292981149	430
4	1625	649.408634846247	431
4	1627	649.997214188008	432
4	1629	650.61499737361	433
4	1631	650.638006224892	434
4	1633	650.794548538444	435
4	1635	652.583028082746	436
4	1637	654.111972490524	437
4	1639	654.231252792025	438
4	1641	654.420728592969	439
4	1643	655.337499816678	440
4	1645	656.291916808449	441
4	1649	656.474991987873	442
4	1651	656.565644599209	443
4	1653	656.647523930766	444
4	1655	656.968323847624	445
4	1665	660.832894621425	444
4	1669	662.195615732321	443
4	1671	663.795416421918	444
4	1675	665.792751375579	443
4	1677	666.192890699353	444
4	1680	666.344087939162	444
4	1682	666.69238786299	445
4	1684	666.889165837726	446
4	1686	668.384495492479	447
4	1688	668.467892800228	448
4	1690	669.784159280274	449
4	1692	670.74798282927	450
4	1694	670.770896431819	451
4	1696	674.711335454789	452
4	1699	676.137274077561	452
4	1701	676.509513395585	453
4	1703	676.607038587314	454
4	1705	678.25874281252	455
4	1708	678.985664333734	455
4	1710	679.053595711807	456
4	1712	679.650415195691	457
4	1714	679.881731575233	458
4	1721	684.25321313653	454
4	1723	685.687501943788	455
4	1726	686.526722639546	455
4	1734	691.18048032907	452
4	1736	691.385939244637	453
4	1738	692.152384980443	454
4	1742	693.182102303046	453
4	1744	694.719292149492	454
4	1746	695.217309237583	455
4	1748	695.334711199649	456
4	1750	697.369610891853	457
4	1752	698.245816580943	458
4	1754	698.374526574985	459
4	1757	700.846560282315	459
4	1761	703.577832924971	458
4	1766	710.115029146371	456
4	1770	710.788298697635	455
4	1773	713.86163415079	455
4	1779	717.442906323948	452
4	1782	719.116854777256	452
4	1784	719.216765189607	453
4	1786	722.408782092362	454
4	1788	722.792734049762	455
4	1790	723.490817225395	456
4	1792	724.545691998783	457
4	1794	725.793620266782	458
4	1796	726.162479065646	459
4	1798	726.797221097893	460
4	1800	727.088068011594	461
4	1802	730.116502691336	462
4	1804	732.189065665366	463
4	1810	733.841804832005	462
4	1812	734.366305777662	463
4	1814	736.150838125625	464
4	1817	736.443961615463	464
4	1821	737.326824084803	463
4	1823	737.861435917033	464
4	1825	738.839756436396	465
4	1827	739.197266642861	466
4	1829	741.718089780119	467
4	1831	742.228385068089	468
4	1834	743.186639505719	468
4	1836	743.35493728535	469
4	1838	743.485806204738	470
4	1840	743.652040084382	471
4	1845	747.531339957736	471
4	1849	751.251290771313	472
4	1852	753.869861900594	472
4	1856	755.626147582799	473
4	1858	755.808176021954	474
4	1860	756.492335111509	475
4	1862	756.605905098861	476
4	1864	756.719707219536	477
4	1868	759.171072131981	478
4	1870	759.449147486047	479
4	1874	762.088235372823	478
4	1876	762.423521069045	479
4	1878	764.37496880413	480
4	1880	766.028351423902	481
4	1882	766.352462610532	482
4	1888	768.637807103	479
4	1894	769.989551536078	480
4	1897	771.487550271854	480
4	1899	772.907223990549	481
4	1901	773.516617108824	482
4	1904	775.423416992438	482
4	1906	777.482437647275	483
4	1908	777.939972412041	484
4	1910	778.793349376718	485
4	1912	780.579007432258	486
4	1914	780.611633452729	487
4	1916	781.947834217906	488
4	1919	782.565288581193	488
4	1922	784.582804352822	488
4	1924	785.070717814701	489
4	1927	786.409920585865	489
4	1931	787.275130537625	488
4	1933	788.328581880767	489
4	1936	788.840396715799	489
4	1938	789.428601048135	490
4	1942	795.887898753944	489
4	1944	797.239513353274	490
4	1947	797.860857531169	490
4	1950	799.192262192812	490
4	1952	801.168335223883	491
4	1954	802.755005225024	492
4	1956	803.537381007024	493
4	1959	805.165311260018	493
4	1961	805.301021114577	494
4	1963	805.625789515535	495
4	1965	806.621088032867	496
4	1968	807.672121891693	496
4	1970	807.843059191613	497
4	1975	812.804111982622	497
4	1977	812.91350034376	498
4	1982	814.974010892439	498
4	1984	816.726895030437	499
4	1986	816.774062182259	500
4	1988	817.597779494452	501
4	1992	821.526378848349	500
4	1994	821.592570642605	501
4	1996	822.773563298741	502
4	1998	823.541862893315	503
4	2000	825.25977106636	504
4	2005	829.605267682381	502
4	2008	831.04554660679	502
4	2010	831.264791637594	503
4	2012	831.909718206548	504
4	2014	832.816834124509	505
4	2016	834.16763590578	506
4	2020	838.594626749263	505
4	2023	838.881432068569	505
4	2025	838.945918720606	506
4	2029	842.946649350145	505
4	2032	844.116403130948	505
4	2034	844.250500656773	506
4	2036	844.590869107496	507
4	2038	844.729773259505	508
4	2040	845.128602091027	509
4	2043	845.787263601374	509
4	2047	847.255129025854	510
4	2050	848.204734950317	510
4	2052	849.719734171046	511
4	2054	851.784848948649	512
4	2056	851.892896948286	513
4	2058	852.233168329993	514
4	2061	853.074318553048	514
4	2063	854.985377824829	515
4	2066	856.689119145117	515
4	2069	859.134729862337	515
4	2077	864.298172966964	514
4	2079	865.095835101097	515
4	2081	865.557128426617	516
4	2083	866.086913283007	517
4	2085	866.682379284592	518
4	2092	870.71379535912	518
4	2097	872.34509078107	518
4	2099	872.791038939889	519
4	2101	873.240725920068	520
4	2104	874.839931435748	520
4	2106	875.41402253575	521
4	2108	876.788283580605	522
4	2110	879.230933463668	523
4	2112	880.284344165834	524
4	2114	880.360943970967	525
4	2116	882.385794093595	526
4	2118	882.939721685193	527
4	2123	886.908878267656	525
4	2128	890.582302595645	525
4	2130	890.835175358352	526
4	2132	891.034418221045	527
4	2134	891.100135773856	528
4	2142	895.67234575838	527
4	2144	896.358183866765	528
4	2146	897.037596632085	529
4	2148	897.873165758093	530
4	2150	898.278699174293	531
4	2152	898.573385081961	532
4	2154	899.521616405362	533
4	2156	899.7802171343	534
4	2158	900.083407845228	535
4	2160	900.297597132224	536
4	2163	903.738924305858	536
4	2166	904.685516834596	536
4	2168	905.713441971779	537
4	2170	906.325877293105	538
4	2172	906.354102814123	539
4	2174	906.534325873326	540
4	2177	907.002591382757	540
4	2179	908.297100907258	541
4	2181	908.638561485443	542
4	2183	908.744161113488	543
4	2186	911.792927929443	543
4	2188	911.831849784904	544
4	2191	913.113041118792	544
4	2196	915.325829251071	542
4	2198	916.497015006838	543
4	2200	917.736095304476	544
4	2202	918.415621012093	545
4	2204	918.641853426677	546
4	2206	919.230299871181	547
4	2210	920.323202062035	548
4	2212	921.336217301977	549
4	2214	922.948712795774	550
4	2216	923.917026976746	551
4	2218	923.942236154861	552
4	2220	924.265533776996	553
4	2223	925.067273175474	553
4	2225	925.21418812663	554
4	2229	927.902352854261	553
4	2231	928.385702237708	554
4	2233	928.768934273489	555
4	2235	929.106393912001	556
4	2239	930.315341288254	557
4	2241	930.986236071049	558
4	2245	932.944866959103	557
4	2248	934.693406758201	557
4	2250	936.103840302613	558
4	2252	936.78768457317	559
4	2254	937.078808303448	560
4	2259	938.623143335917	560
4	2261	939.338886259606	561
4	2263	940.230358409182	562
4	2265	940.454324693877	563
4	2267	941.013964041175	564
4	2269	941.134330752396	565
4	2271	941.990639569106	566
4	2273	942.849155292866	567
4	2278	943.689915320964	567
4	2280	943.779902576947	568
4	2282	944.20611527293	569
4	2285	945.237972631949	569
4	2288	949.148896290781	569
4	2291	949.577100448766	569
4	2293	949.851046850993	570
4	2296	951.286931388116	570
4	2298	951.434446342369	571
4	2300	951.806836538039	572
4	2302	952.147760874682	573
4	2304	954.553430048909	574
4	2306	954.632676805847	575
4	2308	954.93750999756	576
4	2312	958.02800871663	577
4	2314	958.364153895751	578
4	2316	958.376732427986	579
4	2318	958.506870709751	580
4	2320	959.787987294138	581
4	2324	960.736603679954	582
4	2328	963.739754259834	581
4	2330	964.578471107641	582
4	2333	964.978034779346	582
4	2335	965.040066267629	583
4	2337	965.955876267058	584
4	2339	966.153545256478	585
4	2342	967.285906267018	585
4	2344	968.017379135671	586
4	2346	968.100397316297	587
4	2348	969.801205755863	588
4	2350	969.917370612632	589
4	2352	970.214145822546	590
4	2354	970.519106306902	591
4	2356	971.116924356185	592
4	2359	972.986048559384	592
4	2361	972.989699897552	593
4	2363	973.348989899215	594
4	2365	974.107801274399	595
4	2367	974.400020660387	596
4	2371	975.573912955386	595
4	2373	976.964172148007	596
4	2376	977.851035620319	596
4	2378	978.099886658177	597
4	2383	979.902542326107	595
4	2385	982.063581842505	596
4	2387	982.143759665321	597
4	2393	983.833278401443	596
4	2395	983.909115300883	597
4	2397	986.091713263981	598
4	2399	986.166839412663	599
4	2401	986.436930547913	600
4	2404	987.627319347649	600
4	2406	987.994897301916	601
4	2408	988.418880393464	602
4	2411	989.542590386364	602
4	2414	990.185155992983	602
4	2417	991.876407164482	602
4	2421	993.380638419667	603
4	2425	994.133653516536	604
4	2431	997.075275616949	603
4	2433	997.669339200678	604
4	2435	998.987319945634	605
5	0	0	0
5	2	1.102696715289	0
5	4	1.553380868298	1
5	6	1.699936972404	2
5	10	3.521531372338	3
5	11	4.022497151311	3
5	13	4.483859969675	3
5	14	5.505965634257	3
5	16	6.392553882966	3
5	18	6.461921239672	4
5	20	6.700875522967	5
5	21	6.714438023207	5
5	23	7.844779644515	5
5	25	8.091173087928	6
5	27	8.639830685847	7
5	29	9.246545250679	8
5	31	9.675889305158	9
5	33	9.681538368535	10
5	35	11.530726647375	11
5	37	11.965446399782	12
5	39	12.131524605489	13
5	41	12.191887036648	14
5	43	12.380913854406	15
5	47	14.149017058564	16
5	49	15.717328123213	17
5	51	16.273109966536	18
5	53	17.626301682677	19
5	55	18.112266457783	20
5	59	18.697277601039	21
5	61	19.804644127687	22
5	63	21.630299650142	23
5	65	21.880530236348	24
5	67	23.166740665489	25
5	68	23.175100703924	25
5	70	25.196641433268	25
5	71	27.117023634349	25
5	72	27.674695876556	24
5	74	27.846991075495	24
5	76	28.544526340689	25
5	78	28.871490306174	26
5	79	29.579825887595	26
5	81	30.043305433187	26
5	83	31.186724196076	27
5	85	31.49221008435	28
5	87	31.962232723188	29
5	89	32.708575001798	30
5	91	33.398146873567	31
5	93	33.483683222214	32
5	96	36.422146099955	32
5	98	37.15875722452	32
5	100	37.263617067103	33
5	102	37.63108552917	34
5	103	40.236079488688	34
5	105	40.447554599544	34
5	107	40.801110935496	35
5	108	41.684080585064	35
5	110	42.023115074065	35
5	112	42.350860334205	36
5	115	44.688524138319	36
5	117	45.409416973575	36
5	119	46.335375835373	37
5	121	47.186198253483	38
5	122	47.742929603974	38
5	124	47.963410532791	38
5	126	48.307135398373	39
5	128	48.662702723727	40
5	130	49.047513861679	41
5	132	50.127615244449	42
5	134	50.279025954556	43
5	136	50.3230235797	44
5	138	52.02998720005	45
5	142	52.154843426187	46
5	143	53.194482151246	46
5	144	54.200924402631	45
5	146	54.412991422497	45
5	148	55.290790796781	46
5	150	55.847542405634	47
5	152	56.303178297961	48
5	154	57.888457517263	49
5	158	59.31767016976	50
5	159	59.785515669599	50
5	161	60.235310118775	50
5	163	61.665719757881	51
5	165	62.440030103812	52
5	167	62.525061450082	53
5	169	62.792154061818	54
5	171	63.626523591239	55
5	172	63.924449323643	55
5	174	64.657710678302	55
5	176	65.318889810599	56
5	178	65.375891977701	57
5	180	65.610065493368	58
5	182	65.678117009429	59
5	183	65.951546139493	59
5	187	67.447147996878	59
5	188	67.757213502513	59
5	189	69.355419339807	58
5	191	69.549705844419	58
5	195	70.898361878654	59
5	197	72.839217999038	60
5	199	72.946541289275	61
5	201	74.331001547584	62
5	203	74.541229143604	63
5	206	75.718874950183	63
5	207	77.995877003422	62
5	209	78.991014374021	62
5	211	79.137637177828	63
5	213	79.346440148937	64
5	215	80.074205721748	65
5	217	80.759698931155	66
5	219	81.419894307433	67
5	221	83.471132638805	68
5	223	84.190736890889	69
5	225	85.203812670022	70
5	227	87.474563702241	71
5	229	87.531387177531	72
5	230	88.203459355785	72
5	231	88.498055699438	71
5	233	88.539375252911	71
5	234	89.882061285097	71
5	236	89.890254250839	71
5	237	89.935096244623	71
5	239	89.946266183938	71
5	241	90.037864998687	72
5	245	90.184241263141	73
5	247	90.271629812228	74
5	249	90.960810650282	75
5	251	91.299131691982	76
5	253	91.675788518611	77
5	255	95.925714108556	78
5	256	96.111272126554	78
5	258	96.692044672244	78
5	260	98.166302625793	79
5	261	98.221620429918	79
5	263	98.64410177883	79
5	264	98.732627307109	79
5	266	98.96180421757	79
5	268	99.214516316058	80
5	270	99.536950229965	81
5	272	99.665253589932	82
5	276	103.054719947489	83
5	278	104.182681526336	84
5	279	105.444967018055	84
5	281	105.749074927753	84
5	283	106.165409994932	85
5	284	109.475753608149	85
5	288	112.710987203258	85
5	290	113.294019489558	86
5	291	113.778066322969	86
5	293	113.828102728298	86
5	295	114.256545580357	87
5	297	114.303299004972	88
5	299	115.612188117156	89
5	301	116.203131450757	90
5	305	116.44951953912	91
5	307	116.824571970823	92
5	308	117.531143782731	92
5	310	117.866947034529	92
5	312	119.068739679596	93
5	314	119.074227274944	94
5	315	119.312683783238	94
5	317	120.056734077713	94
5	319	120.509470544243	95
5	321	120.711138472215	96
5	322	121.343556701272	96
5	324	121.400474960677	96
5	328	121.695690699189	97
5	330	124.091971217767	98
5	332	125.194079858622	99
5	334	125.321577395646	100
5	335	125.513050127714	100
5	341	129.749554082182	100
5	342	130.879757799368	100
5	344	131.253332634263	100
5	345	131.503247685113	100
5	347	131.736596371364	100
5	348	131.740201782535	100
5	350	131.954677726398	100
5	352	132.269568869726	101
5	354	132.394291509605	102
5	356	133.094013709373	103
5	358	133.612002749844	104
5	360	134.66909975088	105
5	362	135.329866036338	106
5	364	136.082681411826	107
5	365	137.333491422407	107
5	366	138.711605664102	106
5	368	140.602038647655	106
5	370	141.865723007814	107
5	372	142.625355125607	108
5	376	143.371502974868	109
5	377	144.25878014871	109
5	378	145.072869259884	108
5	379	145.366384849072	107
5	381	147.014049800644	107
5	383	147.104057963237	108
5	385	147.634635428776	109
5	386	147.665460889697	109
5	388	148.360067954469	109
5	389	148.7497270151	109
5	391	149.008736333492	109
5	392	150.437102456126	109
5	393	151.57622503906	108
5	394	151.862002944965	107
5	395	152.479571555907	106
5	397	152.982365291899	106
5	399	155.431277999981	107
5	400	155.79997586711	107
5	402	156.496978205112	107
5	404	158.712010687702	108
5	405	160.851258961276	108
5	407	160.85696619518	108
5	408	160.884913073637	108
5	410	162.082304517998	108
5	411	162.287144592977	108
5	413	162.44140786054	108
5	415	163.113682469885	109
5	417	163.4140137003	110
5	418	164.849687830753	110
5	419	164.933178330432	109
5	423	165.136677075761	109
5	425	166.585712277482	110
5	426	166.687079965974	110
5	428	168.452804411475	110
5	430	169.021831353897	111
5	432	169.75770372323	112
5	434	171.147560865038	113
5	436	171.258836338776	114
5	437	171.868951925761	114
5	443	178.442419719244	114
5	445	178.891577210211	115
5	446	181.18032219455	115
5	447	181.471512821053	114
5	448	181.954984081332	113
5	450	182.000291766648	113
5	452	183.387614373486	114
5	454	184.843873357796	115
5	456	185.692475951393	116
5	458	185.91882690857	117
5	462	187.167703831167	118
5	463	187.383591742909	118
5	464	188.029250600404	117
5	466	188.474057463904	117
5	470	189.729972733035	118
5	472	191.556187950185	119
5	474	192.431909519747	120
5	475	192.452438303295	120
5	477	192.925506431099	120
5	479	192.974834412121	121
5	481	193.079796854047	122
5	483	193.538266194962	123
5	485	195.314614315739	124
5	487	195.4104907841	125
5	489	196.665859927822	126
5	491	197.373493221916	127
5	493	197.521444269357	128
5	495	198.489994806585	129
5	496	198.561419540789	129
5	498	198.7457819911	129
5	500	198.9794720698	130
5	501	199.86366201508	130
5	502	200.071860564899	129
5	504	200.232113790008	129
5	506	200.345714392088	130
5	508	202.602929257926	131
5	509	203.138824156855	131
5	511	204.356281749558	131
5	513	204.388299050936	132
5	514	204.84590525188	132
5	517	205.89791576483	131
5	519	206.267069394409	131
5	520	206.57289497493	131
5	524	208.761249332251	131
5	526	208.841536272169	132
5	528	209.707108452505	133
5	530	210.244207543058	134
5	532	211.799217472759	135
5	534	211.94014497735	136
5	536	212.132362091705	137
5	538	212.40312320943	138
5	539	212.449028718948	138
5	541	213.630038838477	138
5	543	213.661227076624	139
5	545	215.043451554163	140
5	548	216.416102079919	140
5	549	217.137646147777	139
5	550	217.590045694333	138
5	552	218.937183058243	138
5	554	219.620125777002	139
5	556	220.494133553903	140
5	557	220.745555017339	140
5	558	221.150329663884	139
5	559	221.612961848446	138
5	561	222.198601956237	138
5	563	223.076195251593	139
5	565	223.244441069402	140
5	567	223.296301750462	141
5	569	223.933724671848	142
5	571	226.039725080289	143
5	573	226.638531602516	144
5	575	227.016341453311	145
5	576	227.905875302812	145
5	578	228.213359399354	145
5	579	228.252917129596	145
5	581	230.93628233994	145
5	583	232.279231193973	146
5	585	234.66804569048	147
5	586	236.65610141924	147
5	588	236.825142608889	147
5	590	240.983188701672	148
5	592	241.194327519791	149
5	596	242.642600285848	150
5	598	243.024762442133	151
5	600	243.229580177961	152
5	602	243.647949492744	153
5	604	244.778697418284	154
5	606	245.087190021481	155
5	608	245.161660482359	156
5	609	245.316396745515	156
5	611	246.455799550418	156
5	613	247.105048795077	157
5	615	247.76347471357	158
5	617	248.272441867108	159
5	619	248.348715693263	160
5	620	248.959634135278	160
5	622	249.333411873564	160
5	624	249.750483521583	161
5	626	249.946661045079	162
5	628	250.812068076803	163
5	630	251.152105464286	164
5	632	251.966863776132	165
5	636	254.155807836562	166
5	638	254.221633566038	167
5	640	254.455341001145	168
5	641	254.535253361038	168
5	643	255.136304327958	168
5	645	255.492208680321	169
5	646	257.813202614927	169
5	647	258.869985029974	168
5	649	259.344067353207	168
5	651	259.347906077535	169
5	653	261.144684739731	170
5	655	261.155508707642	171
5	657	261.829509402482	172
5	659	262.535530863753	173
5	661	262.78632418455	174
5	662	263.37145605292	174
5	664	264.176819833029	174
5	665	264.33290376061	174
5	666	266.067988945881	173
5	668	266.302368397355	173
5	669	267.150295447167	173
5	671	268.054985243811	173
5	673	268.47464372106	174
5	674	269.304544385403	174
5	676	269.967459077566	174
5	677	271.79733778875	174
5	679	274.047992621561	174
5	680	276.470845586058	174
5	682	276.795292086476	174
5	684	277.464075160065	175
5	686	277.620809053464	176
5	690	279.187714789967	177
5	692	279.828258633091	178
5	693	280.283650350111	178
5	695	283.088954527632	178
5	697	283.41746632465	179
5	699	283.592687643767	180
5	701	283.913603214027	181
5	703	283.927348770273	182
5	705	284.597870002402	183
5	706	284.84218179004	183
5	708	285.617823932662	183
5	710	285.956833330738	184
5	712	289.555348119733	185
5	714	291.461102637302	186
5	716	291.558062993294	187
5	718	292.477489411826	188
5	720	292.652851422748	189
5	722	292.922875239133	190
5	724	292.949293146984	191
5	726	292.979055661678	192
5	728	294.661969588014	193
5	730	295.208123203933	194
5	732	296.186321049763	195
5	734	297.076013766528	196
5	736	298.122350564314	197
5	738	298.834252739057	198
5	740	300.842230047795	199
5	742	302.093929106701	200
5	744	302.254205915106	201
5	746	302.517572960439	202
5	748	302.535131165402	203
5	750	302.907694728307	204
5	751	302.961289332167	204
5	753	304.096656369751	204
5	754	305.057422283025	204
5	756	305.304664897129	204
5	762	309.819362173904	205
5	764	310.31959704701	206
5	766	311.011125246164	207
5	767	311.313062273565	207
5	769	312.820905928981	207
5	771	313.328108728223	208
5	774	315.026600008361	208
5	776	315.02819223754	208
5	777	315.688909412026	208
5	778	317.421546982547	207
5	780	318.194524980669	207
5	781	318.518219570717	207
5	783	318.717116272225	207
5	785	319.129049549804	208
5	787	319.371417079094	209
5	789	319.682217335973	210
5	791	319.793062921852	211
5	793	319.835755042368	212
5	795	320.016121596966	213
5	797	320.141835197625	214
5	799	321.526797075159	215
5	800	321.720355048587	215
5	801	323.68496232203	214
5	803	323.978653083322	214
5	804	324.180866071169	214
5	806	325.889546306394	214
5	808	325.985819572817	215
5	810	326.798528869934	216
5	812	327.250602490567	217
5	814	328.262186942244	218
5	816	328.688455297493	219
5	818	328.98365249658	220
5	820	329.026371287829	221
5	821	329.952378563904	221
5	822	330.062228646333	220
5	826	330.791647431721	220
5	828	330.900543214371	221
5	830	331.316872026706	222
5	832	331.512627642658	223
5	833	331.629766748498	223
5	834	331.944659228651	222
5	836	332.15236785288	222
5	838	332.334926806736	223
5	840	332.47164787919	224
5	841	333.127465064997	224
5	842	334.077647047079	223
5	844	334.265643681153	223
5	845	335.147568019134	223
5	847	335.403206874769	223
5	848	337.492887079167	223
5	849	338.515873138294	222
5	850	339.118698847986	221
5	852	340.132550536888	221
5	854	340.434559176815	222
5	855	342.76938958794	222
5	857	343.642304879723	222
5	859	344.087191343035	223
5	861	344.443052744571	224
5	864	345.44649458699	224
5	865	346.951250603698	223
5	866	347.040263935553	222
5	868	347.893504475693	222
5	870	348.436202722948	223
5	871	348.524168758746	223
5	873	348.907630941796	223
5	874	351.319388513236	223
5	875	351.609536685646	222
5	877	352.003027945138	222
5	881	354.143821254378	223
5	883	354.934228619519	224
5	885	357.873925459154	225
5	887	357.983425282228	226
5	889	359.565042144385	227
5	890	359.749878777867	227
5	892	360.03104115667	227
5	894	360.559666302697	228
5	895	361.896821266372	228
5	897	363.861884279403	228
5	899	364.059571611635	229
5	901	364.664204039662	230
5	902	364.702437046447	230
5	904	365.82958104302	230
5	905	366.270619167999	230
5	909	368.660130197566	230
5	910	369.818037972756	230
5	912	370.030494852521	230
5	913	372.012746157826	230
5	915	373.4648911354	230
5	917	373.731093990808	231
5	919	376.162131952988	232
5	920	376.276212384831	232
5	921	376.726991270967	231
5	923	377.029644114795	231
5	925	378.001186355722	232
5	927	378.212073807176	233
5	929	378.441828772673	234
5	930	378.535254147409	234
5	932	379.735348654404	234
5	934	380.275134279871	235
5	936	380.521074146461	236
5	938	382.295580558428	237
5	940	382.841087895799	238
5	942	383.046609914713	239
5	944	383.164635057828	240
5	946	383.216092390005	241
5	948	385.313695130321	242
5	950	386.311782673179	243
5	951	387.106143634396	243
5	953	387.949322487617	243
5	955	388.073619206006	244
5	957	388.656043591741	245
5	959	388.890516938415	246
5	961	388.892072770176	247
5	963	389.317231252088	248
5	965	389.987928522364	249
5	967	391.563703092894	250
5	969	392.003534476756	251
5	970	392.342730342114	251
5	972	393.279775713282	251
5	974	393.905727765556	252
5	975	394.556923826129	252
5	977	395.00884040307	252
5	978	396.641056537655	252
5	980	396.657192611342	252
5	982	397.126909747202	253
5	983	397.257560067911	253
5	985	398.48357276928	253
5	986	398.912927897286	253
5	987	401.060993499916	252
5	989	402.385239598433	252
5	991	403.235661658154	253
5	995	403.98595015307	254
5	997	404.056530248359	255
5	999	405.424920823537	256
5	1001	405.723492216867	257
5	1003	405.74928811311	258
5	1005	406.988761046939	259
5	1007	406.991592215635	260
5	1009	407.070618339174	261
5	1011	407.147398344917	262
5	1015	408.793689902765	263
5	1017	409.043922057381	264
5	1019	409.500738410334	265
5	1021	409.805331265456	266
5	1023	410.419730520549	267
5	1024	411.582562656664	267
5	1025	411.736445661867	266
5	1026	411.935071048779	265
5	1029	412.381090356793	264
5	1031	412.504796046387	264
5	1033	412.825975724339	265
5	1037	412.927763346738	266
5	1038	413.010181317227	266
5	1040	413.480156772246	266
5	1041	413.652276052146	266
5	1043	413.996017258514	266
5	1045	414.035406694593	267
5	1047	414.329901991506	268
5	1049	415.186769051125	269
5	1051	415.562066488481	270
5	1052	415.724065782717	270
5	1054	417.172722637616	270
5	1055	421.43016801675	270
5	1057	421.760814860047	270
5	1059	422.787507894339	271
5	1061	423.033333395785	272
5	1063	423.172816716452	273
5	1065	423.337033009163	274
5	1067	423.650553521773	275
5	1068	424.069826034934	275
5	1070	424.405602346468	275
5	1072	425.875322701187	276
5	1074	426.863566783976	277
5	1076	427.10698456963	278
5	1078	427.529259334717	279
5	1080	427.564881904409	280
5	1081	428.551387017907	280
5	1083	430.253425470747	280
5	1085	431.665907691459	281
5	1087	431.705608213767	282
5	1088	432.178626865427	282
5	1090	434.32548378002	282
5	1091	434.501983466247	282
5	1092	434.806295724887	281
5	1094	436.023219708611	281
5	1095	436.157870692817	281
5	1097	436.363572698562	281
5	1099	437.124588659686	282
5	1101	437.275411840069	283
5	1103	437.39142289315	284
5	1106	439.872168326574	284
5	1108	439.969018364709	284
5	1110	440.461806252632	285
5	1112	440.678753451464	286
5	1114	441.995246782892	287
5	1116	442.748142392132	288
5	1118	443.717103979496	289
5	1119	443.756160481155	289
5	1121	443.766365889373	289
5	1125	444.87506113448	290
5	1127	446.682383664166	291
5	1129	447.01254100981	292
5	1131	448.54937584843	293
5	1133	448.764903926044	294
5	1135	448.886113531073	295
5	1137	449.175427032451	296
5	1139	450.449196052839	297
5	1141	451.098667070968	298
5	1142	452.135856994263	298
5	1144	453.443505277373	298
5	1146	453.594274245677	299
5	1148	455.427831959181	300
5	1150	455.430084864939	301
5	1152	455.875792394686	302
5	1154	456.9377354661	303
5	1155	457.22222247531	303
5	1157	457.244738842228	303
5	1159	458.092338053299	304
5	1161	458.26017623682	305
5	1163	458.606180401259	306
5	1165	458.671448395098	307
5	1167	458.729769255486	308
5	1169	459.375301665	309
5	1173	460.332935274996	310
5	1174	460.780679697095	310
5	1175	460.789571927993	309
5	1177	461.31036924073	309
5	1178	461.738216451805	309
5	1180	461.869437872527	309
5	1182	462.219571934104	310
5	1184	463.039141808944	311
5	1185	463.394777852504	311
5	1187	464.814182709293	311
5	1189	466.391254299175	312
5	1190	466.464753477874	312
5	1191	468.474145349397	311
5	1193	468.794686168364	311
5	1195	469.308249600634	312
5	1197	469.504800132048	313
5	1199	469.63434456408	314
5	1201	471.806283337925	315
5	1203	472.110678871325	316
5	1205	473.171352119987	317
5	1207	474.388003329548	318
5	1209	475.621540405004	319
5	1211	478.699706031402	320
5	1212	478.746443490088	320
5	1214	478.93841339714	320
5	1215	479.201518724351	320
5	1217	479.601981171036	320
5	1219	481.407578418457	321
5	1220	482.017504201154	321
5	1222	482.197204760769	321
5	1224	482.611708307272	322
5	1226	482.617860171823	323
5	1228	482.857904065522	324
5	1230	483.300890130373	325
5	1231	483.656964623592	325
5	1233	483.83205543665	325
5	1235	484.010460083189	326
5	1236	484.802996771205	326
5	1238	485.117275498724	326
5	1240	485.981435779328	327
5	1241	486.602655106661	327
5	1243	486.823884300381	327
5	1245	487.028058446459	328
5	1247	487.494457460307	329
5	1249	488.699441363681	330
5	1251	490.714214775454	331
5	1255	496.241209656525	332
5	1257	497.919103074839	333
5	1261	499.958156916458	334
5	1263	500.162728946583	335
5	1264	502.930246291744	335
5	1266	503.729700799016	335
5	1267	503.746854900976	335
5	1268	504.679053973976	334
5	1270	504.962556885781	334
5	1272	505.816720567097	335
5	1273	505.942421930873	335
5	1275	506.084578989066	335
5	1277	507.024852705087	336
5	1279	507.118375900034	337
5	1280	507.900338504969	337
5	1282	508.114228731738	337
5	1284	508.658129593779	338
5	1285	509.135850342763	338
5	1287	510.739414419346	338
5	1289	512.452923308902	339
5	1290	513.341181969672	339
5	1292	514.263575260577	339
5	1294	516.965976892133	340
5	1295	516.967142823036	340
5	1297	517.070349052834	340
5	1299	517.260565891072	341
5	1301	518.725664021758	342
5	1305	519.384754765796	343
5	1306	519.6154887292	343
5	1308	519.656338527443	343
5	1311	520.483499858791	343
5	1313	521.323620764764	343
5	1315	522.978205247308	344
5	1317	523.026537986144	345
5	1319	523.790183830448	346
5	1320	523.899571916754	346
5	1321	523.959325297647	345
5	1323	525.334699401861	345
5	1324	526.448581609155	345
5	1325	527.548341294262	344
5	1327	527.549681462888	344
5	1329	527.950880166587	345
5	1331	528.038684920028	346
5	1335	529.265795612015	347
5	1336	529.49611960793	347
5	1338	530.227690101457	347
5	1339	530.608334541137	347
5	1341	530.699663737404	347
5	1343	530.713856361818	348
5	1345	530.934513369098	349
5	1346	531.412099646382	349
5	1348	531.543265266151	349
5	1349	532.167509975443	349
5	1353	533.831387058197	349
5	1355	533.95175528049	350
5	1359	534.247487592718	351
5	1361	535.702672889348	352
5	1363	537.476449367636	353
5	1365	538.305447627799	354
5	1366	538.801561868653	354
5	1368	539.962829380636	354
5	1370	542.205749592438	355
5	1372	542.354296118849	356
5	1374	542.91572859697	357
5	1375	542.951845623432	357
5	1377	543.775567603161	357
5	1379	544.999388983523	358
5	1380	545.108328695505	358
5	1382	546.115905494147	358
5	1383	546.68790617703	358
5	1384	547.192564576703	357
5	1385	547.46303494921	356
5	1387	547.934593386809	356
5	1390	549.381652314377	356
5	1392	550.302176631047	356
5	1394	550.32903747129	357
5	1395	550.683652303583	357
5	1397	551.553272155364	357
5	1399	551.599784180971	358
5	1401	552.239783042498	359
5	1403	552.250402065663	360
5	1404	552.483491283585	360
5	1408	555.041617195178	360
5	1410	555.157812230245	361
5	1412	555.219100299277	362
5	1414	556.275410505677	363
5	1418	557.134523913101	364
5	1420	557.556938771978	365
5	1422	557.953678925482	366
5	1426	557.988521092057	367
5	1428	558.391554524483	368
5	1429	558.884044181371	368
5	1431	559.3296306053	368
5	1433	559.352706468046	369
5	1435	561.06097339322	370
5	1437	562.69201590985	371
5	1441	564.781276631391	372
5	1443	564.934719947728	373
5	1445	565.604224371484	374
5	1446	565.881783632162	374
5	1448	566.365141649784	374
5	1450	566.488500271877	375
5	1452	568.902111389021	376
5	1453	571.447599457161	376
5	1455	573.126217902596	376
5	1457	576.973096159426	377
5	1459	579.262958798911	378
5	1461	579.81091266132	379
5	1463	580.485207605026	380
5	1465	580.898101959832	381
5	1466	581.37349429582	381
5	1468	581.562962175152	381
5	1470	582.930269551873	382
5	1471	583.341666287791	382
5	1473	583.896266447716	382
5	1475	585.759923228778	383
5	1477	586.396063531118	384
5	1479	588.228494013206	385
5	1481	588.894426223156	386
5	1483	591.053008990997	387
5	1485	592.299300176569	388
5	1487	593.318218272343	389
5	1489	593.755906417096	390
5	1490	594.376074008991	390
5	1492	594.423214492636	390
5	1494	595.501165655329	391
5	1496	596.196833822862	392
5	1498	597.109548737634	393
5	1500	598.136411032167	394
5	1502	598.354372969815	395
5	1504	599.137587662711	396
5	1506	599.647733013936	397
5	1508	599.97673087948	398
5	1509	600.781722885847	398
5	1511	601.064878039491	398
5	1513	601.740819930012	399
5	1514	601.796621420133	399
5	1516	602.625081143016	399
5	1517	605.454597073406	399
5	1521	606.112823837963	399
5	1523	606.594285966929	400
5	1525	608.278468472288	401
5	1527	609.313010787304	402
5	1529	610.773512589773	403
5	1531	611.103352942582	404
5	1533	611.511886066019	405
5	1535	612.653070755437	406
5	1537	612.719736525605	407
5	1539	614.683704020862	408
5	1540	615.146140970653	408
5	1543	616.781835228564	407
5	1545	617.096311087332	407
5	1546	618.349354717404	407
5	1548	618.806291223352	407
5	1550	619.336900053919	408
5	1552	620.162775143563	409
5	1554	621.120742571787	410
5	1555	621.458994450487	410
5	1560	625.719334594396	409
5	1561	625.927835936652	408
5	1563	626.206607871862	408
5	1565	626.663327319903	409
5	1567	627.717845544962	410
5	1569	628.156981319716	411
5	1571	629.052710791383	412
5	1573	629.701907624011	413
5	1575	630.999970037638	414
5	1576	631.289602511267	414
5	1578	631.964891155475	414
5	1580	631.969084598744	415
5	1582	632.804712767533	416
5	1585	634.180546959891	416
5	1587	634.615670585313	416
5	1589	635.428736873282	417
5	1591	636.171341961375	418
5	1595	639.083242691296	419
5	1597	640.11720941588	420
5	1598	640.636841772023	420
5	1600	641.153050229891	420
5	1602	641.298778650353	421
5	1604	641.984453735819	422
5	1605	642.060210632602	422
5	1607	642.362320566383	422
5	1609	642.378419352673	423
5	1611	643.600466314356	424
5	1613	644.474959990867	425
5	1615	645.432848944554	426
5	1617	647.707551185144	427
5	1619	648.619374543801	428
5	1621	649.089292981149	429
5	1625	649.408634846247	430
5	1627	649.997214188008	431
5	1629	650.61499737361	432
5	1631	650.638006224892	433
5	1633	650.794548538444	434
5	1635	652.583028082746	435
5	1637	654.111972490524	436
5	1639	654.231252792025	437
5	1641	654.420728592969	438
5	1643	655.337499816678	439
5	1645	656.291916808449	440
5	1649	656.474991987873	441
5	1651	656.565644599209	442
5	1653	656.647523930766	443
5	1655	656.968323847624	444
5	1662	659.611811511028	444
5	1663	659.827532711046	443
5	1665	660.832894621425	443
5	1666	661.281772959092	443
5	1667	662.141183352373	442
5	1669	662.195615732321	442
5	1671	663.795416421918	443
5	1672	664.897532391735	443
5	1673	665.762227955046	442
5	1675	665.792751375579	442
5	1677	666.192890699353	443
5	1678	666.248503786124	443
5	1680	666.344087939162	443
5	1682	666.69238786299	444
5	1684	666.889165837726	445
5	1686	668.384495492479	446
5	1688	668.467892800228	447
5	1690	669.784159280274	448
5	1692	670.74798282927	449
5	1694	670.770896431819	450
5	1696	674.711335454789	451
5	1697	676.103228072654	451
5	1699	676.137274077561	451
5	1701	676.509513395585	452
5	1703	676.607038587314	453
5	1705	678.25874281252	454
5	1706	678.455164883362	454
5	1708	678.985664333734	454
5	1710	679.053595711807	455
5	1712	679.650415195691	456
5	1714	679.881731575233	457
5	1715	680.353657168787	457
5	1716	681.77378572551	456
5	1717	682.415033634272	455
5	1718	682.417426183227	454
5	1719	682.834638686386	453
5	1721	684.25321313653	453
5	1723	685.687501943788	454
5	1724	686.20768884145	454
5	1726	686.526722639546	454
5	1729	687.200158961977	454
5	1730	688.300542512758	453
5	1731	688.78250723066	452
5	1732	690.584482856515	451
5	1734	691.18048032907	451
5	1736	691.385939244637	452
5	1738	692.152384980443	453
5	1739	692.562378952563	453
5	1740	692.800830546726	452
5	1742	693.182102303046	452
5	1744	694.719292149492	453
5	1746	695.217309237583	454
5	1748	695.334711199649	455
5	1750	697.369610891853	456
5	1752	698.245816580943	457
5	1754	698.374526574985	458
5	1755	699.125707638375	458
5	1757	700.846560282315	458
5	1758	701.578981321712	458
5	1759	703.180856324899	457
5	1761	703.577832924971	457
5	1762	704.106119732599	457
5	1763	706.309334247854	456
5	1764	707.068400068603	455
5	1766	710.115029146371	455
5	1767	710.239299347367	455
5	1768	710.44946470959	454
5	1770	710.788298697635	454
5	1771	710.80859634752	454
5	1773	713.86163415079	454
5	1774	714.292605242378	454
5	1775	716.705889638404	453
5	1776	716.734980300405	452
5	1777	717.276700188659	451
5	1779	717.442906323948	451
5	1780	717.553284119572	451
5	1782	719.116854777256	451
5	1784	719.216765189607	452
5	1786	722.408782092362	453
5	1788	722.792734049762	454
5	1790	723.490817225395	455
5	1792	724.545691998783	456
5	1794	725.793620266782	457
5	1796	726.162479065646	458
5	1798	726.797221097893	459
5	1800	727.088068011594	460
5	1802	730.116502691336	461
5	1804	732.189065665366	462
5	1807	732.893933301268	462
5	1808	733.026105829719	461
5	1810	733.841804832005	461
5	1812	734.366305777662	462
5	1814	736.150838125625	463
5	1815	736.192887728492	463
5	1817	736.443961615463	463
5	1818	736.474758600999	463
5	1819	737.07760530583	462
5	1821	737.326824084803	462
5	1823	737.861435917033	463
5	1825	738.839756436396	464
5	1827	739.197266642861	465
5	1829	741.718089780119	466
5	1831	742.228385068089	467
5	1832	742.853625039706	467
5	1834	743.186639505719	467
5	1836	743.35493728535	468
5	1838	743.485806204738	469
5	1840	743.652040084382	470
5	1843	747.106770732434	470
5	1845	747.531339957736	470
5	1849	751.251290771313	471
5	1850	751.806617414778	471
5	1852	753.869861900594	471
5	1856	755.626147582799	472
5	1858	755.808176021954	473
5	1860	756.492335111509	474
5	1862	756.605905098861	475
5	1864	756.719707219536	476
5	1868	759.171072131981	477
5	1870	759.449147486047	478
5	1871	760.353729884836	478
5	1872	760.866842597049	477
5	1874	762.088235372823	477
5	1876	762.423521069045	478
5	1878	764.37496880413	479
5	1880	766.028351423902	480
5	1882	766.352462610532	481
5	1883	766.761733762239	481
5	1884	767.065183211413	480
5	1885	767.779724470769	479
5	1886	768.278026401932	478
5	1888	768.637807103	478
5	1894	769.989551536078	479
5	1895	770.514457312993	479
5	1897	771.487550271854	479
5	1899	772.907223990549	480
5	1901	773.516617108824	481
5	1902	775.019012043544	481
5	1904	775.423416992438	481
5	1906	777.482437647275	482
5	1908	777.939972412041	483
5	1910	778.793349376718	484
5	1912	780.579007432258	485
5	1914	780.611633452729	486
5	1916	781.947834217906	487
5	1917	782.530582804618	487
5	1919	782.565288581193	487
5	1920	783.009026423672	487
5	1922	784.582804352822	487
5	1924	785.070717814701	488
5	1925	785.07639837826	488
5	1927	786.409920585865	488
5	1928	787.000027633426	488
5	1929	787.040672966634	487
5	1931	787.275130537625	487
5	1933	788.328581880767	488
5	1934	788.706228211943	488
5	1936	788.840396715799	488
5	1938	789.428601048135	489
5	1939	790.152334447787	489
5	1940	790.734283116516	488
5	1942	795.887898753944	488
5	1944	797.239513353274	489
5	1945	797.478762137136	489
5	1947	797.860857531169	489
5	1948	798.81945136521	489
5	1950	799.192262192812	489
5	1952	801.168335223883	490
5	1954	802.755005225024	491
5	1956	803.537381007024	492
5	1957	804.059519049031	492
5	1959	805.165311260018	492
5	1961	805.301021114577	493
5	1963	805.625789515535	494
5	1965	806.621088032867	495
5	1966	806.817149715031	495
5	1968	807.672121891693	495
5	1970	807.843059191613	496
5	1971	811.004674497002	496
5	1975	812.804111982622	496
5	1977	812.91350034376	497
5	1978	813.201006112773	497
5	1982	814.974010892439	497
5	1984	816.726895030437	498
5	1986	816.774062182259	499
5	1988	817.597779494452	500
5	1989	820.254480911173	500
5	1990	820.76587909711	499
5	1992	821.526378848349	499
5	1994	821.592570642605	500
5	1996	822.773563298741	501
5	1998	823.541862893315	502
5	2000	825.25977106636	503
5	2001	826.556285956474	503
5	2002	827.422774969159	502
5	2003	828.780444650705	501
5	2005	829.605267682381	501
5	2006	830.732281312419	501
5	2008	831.04554660679	501
5	2010	831.264791637594	502
5	2012	831.909718206548	503
5	2014	832.816834124509	504
5	2016	834.16763590578	505
5	2017	834.414986849843	505
5	2018	835.511895525809	504
5	2020	838.594626749263	504
5	2021	838.610209008658	504
5	2023	838.881432068569	504
5	2025	838.945918720606	505
5	2026	839.325482709872	505
5	2027	840.253565318819	504
5	2029	842.946649350145	504
5	2030	843.986130625771	504
5	2032	844.116403130948	504
5	2034	844.250500656773	505
5	2036	844.590869107496	506
5	2038	844.729773259505	507
5	2040	845.128602091027	508
5	2041	845.39611684958	508
5	2043	845.787263601374	508
5	2047	847.255129025854	509
5	2048	847.668460714918	509
5	2050	848.204734950317	509
5	2052	849.719734171046	510
5	2054	851.784848948649	511
5	2056	851.892896948286	512
5	2058	852.233168329993	513
5	2059	852.981730893648	513
5	2061	853.074318553048	513
5	2063	854.985377824829	514
5	2064	855.585597433318	514
5	2066	856.689119145117	514
5	2067	857.99105170612	514
5	2069	859.134729862337	514
5	2070	859.197235260018	514
5	2071	861.163454130711	513
5	2077	864.298172966964	513
5	2079	865.095835101097	514
5	2081	865.557128426617	515
5	2083	866.086913283007	516
5	2085	866.682379284592	517
5	2086	866.997799124253	517
5	2092	870.71379535912	517
5	2095	871.744893330537	517
5	2097	872.34509078107	517
5	2099	872.791038939889	518
5	2101	873.240725920068	519
5	2102	874.773619533042	519
5	2104	874.839931435748	519
5	2106	875.41402253575	520
5	2108	876.788283580605	521
5	2110	879.230933463668	522
5	2112	880.284344165834	523
5	2114	880.360943970967	524
5	2116	882.385794093595	525
5	2118	882.939721685193	526
5	2119	884.255541835678	526
5	2120	884.739862554036	525
5	2121	884.863866517798	524
5	2123	886.908878267656	524
5	2124	887.698923997617	524
5	2128	890.582302595645	524
5	2130	890.835175358352	525
5	2132	891.034418221045	526
5	2134	891.100135773856	527
5	2137	891.567203594979	527
5	2140	895.073291248877	526
5	2142	895.67234575838	526
5	2144	896.358183866765	527
5	2146	897.037596632085	528
5	2148	897.873165758093	529
5	2150	898.278699174293	530
5	2152	898.573385081961	531
5	2154	899.521616405362	532
5	2156	899.7802171343	533
5	2158	900.083407845228	534
5	2160	900.297597132224	535
5	2161	901.513368650389	535
5	2163	903.738924305858	535
5	2164	903.852983846483	535
5	2166	904.685516834596	535
5	2168	905.713441971779	536
5	2170	906.325877293105	537
5	2172	906.354102814123	538
5	2174	906.534325873326	539
5	2175	906.858696600598	539
5	2177	907.002591382757	539
5	2179	908.297100907258	540
5	2181	908.638561485443	541
5	2183	908.744161113488	542
5	2184	910.953370702027	542
5	2186	911.792927929443	542
5	2188	911.831849784904	543
5	2189	913.019810057305	543
5	2191	913.113041118792	543
5	2192	913.59195700049	543
5	2193	914.648830512375	542
5	2194	914.848019310431	541
5	2196	915.325829251071	541
5	2198	916.497015006838	542
5	2200	917.736095304476	543
5	2202	918.415621012093	544
5	2204	918.641853426677	545
5	2206	919.230299871181	546
5	2210	920.323202062035	547
5	2212	921.336217301977	548
5	2214	922.948712795774	549
5	2216	923.917026976746	550
5	2218	923.942236154861	551
5	2220	924.265533776996	552
5	2221	924.568340870131	552
5	2223	925.067273175474	552
5	2225	925.21418812663	553
5	2226	926.477916714743	553
5	2227	926.814621547365	552
5	2229	927.902352854261	552
5	2231	928.385702237708	553
5	2233	928.768934273489	554
5	2235	929.106393912001	555
5	2239	930.315341288254	556
5	2241	930.986236071049	557
5	2242	931.012919403916	557
5	2243	931.614237927713	556
5	2245	932.944866959103	556
5	2246	934.247442887028	556
5	2248	934.693406758201	556
5	2250	936.103840302613	557
5	2252	936.78768457317	558
5	2254	937.078808303448	559
5	2255	938.325963287351	559
5	2259	938.623143335917	559
5	2261	939.338886259606	560
5	2263	940.230358409182	561
5	2265	940.454324693877	562
5	2267	941.013964041175	563
5	2269	941.134330752396	564
5	2271	941.990639569106	565
5	2273	942.849155292866	566
5	2274	942.907037598167	566
5	2278	943.689915320964	566
5	2280	943.779902576947	567
5	2282	944.20611527293	568
5	2283	945.055461951327	568
5	2285	945.237972631949	568
5	2286	949.116546122903	568
5	2288	949.148896290781	568
5	2289	949.375775774905	568
5	2291	949.577100448766	568
5	2293	949.851046850993	569
5	2294	951.07014903961	569
5	2296	951.286931388116	569
5	2298	951.434446342369	570
5	2300	951.806836538039	571
5	2302	952.147760874682	572
5	2304	954.553430048909	573
5	2306	954.632676805847	574
5	2308	954.93750999756	575
5	2312	958.02800871663	576
5	2314	958.364153895751	577
5	2316	958.376732427986	578
5	2318	958.506870709751	579
5	2320	959.787987294138	580
5	2324	960.736603679954	581
5	2325	961.341489106382	581
5	2326	961.756247272443	580
5	2328	963.739754259834	580
5	2330	964.578471107641	581
5	2331	964.704896217014	581
5	2333	964.978034779346	581
5	2335	965.040066267629	582
5	2337	965.955876267058	583
5	2339	966.153545256478	584
5	2340	966.689109715935	584
5	2342	967.285906267018	584
5	2344	968.017379135671	585
5	2346	968.100397316297	586
5	2348	969.801205755863	587
5	2350	969.917370612632	588
5	2352	970.214145822546	589
5	2354	970.519106306902	590
5	2356	971.116924356185	591
5	2357	971.308271446703	591
5	2359	972.986048559384	591
5	2361	972.989699897552	592
5	2363	973.348989899215	593
5	2365	974.107801274399	594
5	2367	974.400020660387	595
5	2368	975.301333278572	595
5	2369	975.319699424407	594
5	2371	975.573912955386	594
5	2373	976.964172148007	595
5	2374	977.107527478333	595
5	2376	977.851035620319	595
5	2378	978.099886658177	596
5	2379	978.607953788833	596
5	2380	979.062455393169	595
5	2381	979.516459234004	594
5	2383	979.902542326107	594
5	2385	982.063581842505	595
5	2387	982.143759665321	596
5	2388	983.069286909921	596
5	2389	983.641243964799	595
5	2393	983.833278401443	595
5	2395	983.909115300883	596
5	2397	986.091713263981	597
5	2399	986.166839412663	598
5	2401	986.436930547913	599
5	2402	987.572385533328	599
5	2404	987.627319347649	599
5	2406	987.994897301916	600
5	2408	988.418880393464	601
5	2409	988.928173329149	601
5	2411	989.542590386364	601
5	2412	989.863663023547	601
5	2414	990.185155992983	601
5	2415	991.609237343719	601
5	2417	991.876407164482	601
5	2421	993.380638419667	602
5	2425	994.133653516536	603
5	2426	994.993051194478	603
5	2429	996.671015727165	602
5	2431	997.075275616949	602
5	2433	997.669339200678	603
5	2435	998.987319945634	604
5	2436	999.195042897482	604
6	0	0	0
6	11	4.022497151311	1
6	14	5.505965634257	2
6	21	6.714438023207	3
6	68	23.175100703924	4
6	71	27.117023634349	5
6	72	27.674695876556	6
6	79	29.579825887595	7
6	96	36.422146099955	8
6	103	40.236079488688	9
6	108	41.684080585064	10
6	115	44.688524138319	11
6	122	47.742929603974	12
6	143	53.194482151246	13
6	144	54.200924402631	14
6	159	59.785515669599	15
6	172	63.924449323643	16
6	183	65.951546139493	17
6	188	67.757213502513	18
6	189	69.355419339807	19
6	206	75.718874950183	20
6	207	77.995877003422	21
6	230	88.203459355785	22
6	231	88.498055699438	23
6	234	89.882061285097	24
6	237	89.935096244623	25
6	256	96.111272126554	26
6	261	98.221620429918	27
6	264	98.732627307109	28
6	279	105.444967018055	29
6	284	109.475753608149	30
6	291	113.778066322969	31
6	308	117.531143782731	32
6	315	119.312683783238	33
6	322	121.343556701272	34
6	335	125.513050127714	35
6	342	130.879757799368	36
6	345	131.503247685113	37
6	348	131.740201782535	38
6	365	137.333491422407	39
6	366	138.711605664102	40
6	377	144.25878014871	41
6	378	145.072869259884	42
6	379	145.366384849072	43
6	386	147.665460889697	44
6	389	148.7497270151	45
6	392	150.437102456126	46
6	393	151.57622503906	47
6	394	151.862002944965	48
6	395	152.479571555907	49
6	400	155.79997586711	50
6	405	160.851258961276	51
6	408	160.884913073637	52
6	411	162.287144592977	53
6	418	164.849687830753	54
6	419	164.933178330432	55
6	426	166.687079965974	56
6	437	171.868951925761	57
6	446	181.18032219455	58
6	447	181.471512821053	59
6	448	181.954984081332	60
6	463	187.383591742909	61
6	464	188.029250600404	62
6	475	192.452438303295	63
6	496	198.561419540789	64
6	501	199.86366201508	65
6	502	200.071860564899	66
6	509	203.138824156855	67
6	514	204.84590525188	68
6	517	205.89791576483	69
6	520	206.57289497493	70
6	539	212.449028718948	71
6	548	216.416102079919	72
6	549	217.137646147777	73
6	550	217.590045694333	74
6	557	220.745555017339	75
6	558	221.150329663884	76
6	559	221.612961848446	77
6	576	227.905875302812	78
6	579	228.252917129596	79
6	586	236.65610141924	80
6	609	245.316396745515	81
6	620	248.959634135278	82
6	641	254.535253361038	83
6	646	257.813202614927	84
6	647	258.869985029974	85
6	662	263.37145605292	86
6	665	264.33290376061	87
6	666	266.067988945881	88
6	669	267.150295447167	89
6	674	269.304544385403	90
6	677	271.79733778875	91
6	680	276.470845586058	92
6	693	280.283650350111	93
6	706	284.84218179004	94
6	751	302.961289332167	95
6	754	305.057422283025	96
6	767	311.313062273565	97
6	774	315.026600008361	98
6	777	315.688909412026	99
6	778	317.421546982547	100
6	781	318.518219570717	101
6	800	321.720355048587	102
6	801	323.68496232203	103
6	804	324.180866071169	104
6	821	329.952378563904	105
6	822	330.062228646333	106
6	833	331.629766748498	107
6	834	331.944659228651	108
6	841	333.127465064997	109
6	842	334.077647047079	110
6	845	335.147568019134	111
6	848	337.492887079167	112
6	849	338.515873138294	113
6	850	339.118698847986	114
6	855	342.76938958794	115
6	864	345.44649458699	116
6	865	346.951250603698	117
6	866	347.040263935553	118
6	871	348.524168758746	119
6	874	351.319388513236	120
6	875	351.609536685646	121
6	890	359.749878777867	122
6	895	361.896821266372	123
6	902	364.702437046447	124
6	905	366.270619167999	125
6	910	369.818037972756	126
6	913	372.012746157826	127
6	920	376.276212384831	128
6	921	376.726991270967	129
6	930	378.535254147409	130
6	951	387.106143634396	131
6	970	392.342730342114	132
6	975	394.556923826129	133
6	978	396.641056537655	134
6	983	397.257560067911	135
6	986	398.912927897286	136
6	987	401.060993499916	137
6	1024	411.582562656664	138
6	1025	411.736445661867	139
6	1026	411.935071048779	140
6	1029	412.381090356793	141
6	1038	413.010181317227	142
6	1041	413.652276052146	143
6	1052	415.724065782717	144
6	1055	421.43016801675	145
6	1068	424.069826034934	146
6	1081	428.551387017907	147
6	1088	432.178626865427	148
6	1091	434.501983466247	149
6	1092	434.806295724887	150
6	1095	436.157870692817	151
6	1106	439.872168326574	152
6	1119	443.756160481155	153
6	1142	452.135856994263	154
6	1155	457.22222247531	155
6	1174	460.780679697095	156
6	1175	460.789571927993	157
6	1178	461.738216451805	158
6	1185	463.394777852504	159
6	1190	466.464753477874	160
6	1191	468.474145349397	161
6	1212	478.746443490088	162
6	1215	479.201518724351	163
6	1220	482.017504201154	164
6	1231	483.656964623592	165
6	1236	484.802996771205	166
6	1241	486.602655106661	167
6	1264	502.930246291744	168
6	1267	503.746854900976	169
6	1268	504.679053973976	170
6	1273	505.942421930873	171
6	1280	507.900338504969	172
6	1285	509.135850342763	173
6	1290	513.341181969672	174
6	1295	516.967142823036	175
6	1306	519.6154887292	176
6	1311	520.483499858791	177
6	1320	523.899571916754	178
6	1321	523.959325297647	179
6	1324	526.448581609155	180
6	1325	527.548341294262	181
6	1336	529.49611960793	182
6	1339	530.608334541137	183
6	1346	531.412099646382	184
6	1349	532.167509975443	185
6	1366	538.801561868653	186
6	1375	542.951845623432	187
6	1380	545.108328695505	188
6	1383	546.68790617703	189
6	1384	547.192564576703	190
6	1385	547.46303494921	191
6	1390	549.381652314377	192
6	1395	550.683652303583	193
6	1404	552.483491283585	194
6	1429	558.884044181371	195
6	1446	565.881783632162	196
6	1453	571.447599457161	197
6	1466	581.37349429582	198
6	1471	583.341666287791	199
6	1490	594.376074008991	200
6	1509	600.781722885847	201
6	1514	601.796621420133	202
6	1517	605.454597073406	203
6	1540	615.146140970653	204
6	1543	616.781835228564	205
6	1546	618.349354717404	206
6	1555	621.458994450487	207
6	1560	625.719334594396	208
6	1561	625.927835936652	209
6	1576	631.289602511267	210
6	1585	634.180546959891	211
6	1598	640.636841772023	212
6	1605	642.060210632602	213
6	1662	659.611811511028	214
6	1663	659.827532711046	215
6	1666	661.281772959092	216
6	1667	662.141183352373	217
6	1672	664.897532391735	218
6	1673	665.762227955046	219
6	1678	666.248503786124	220
6	1697	676.103228072654	221
6	1706	678.455164883362	222
6	1715	680.353657168787	223
6	1716	681.77378572551	224
6	1717	682.415033634272	225
6	1718	682.417426183227	226
6	1719	682.834638686386	227
6	1724	686.20768884145	228
6	1729	687.200158961977	229
6	1730	688.300542512758	230
6	1731	688.78250723066	231
6	1732	690.584482856515	232
6	1739	692.562378952563	233
6	1740	692.800830546726	234
6	1755	699.125707638375	235
6	1758	701.578981321712	236
6	1759	703.180856324899	237
6	1762	704.106119732599	238
6	1763	706.309334247854	239
6	1764	707.068400068603	240
6	1767	710.239299347367	241
6	1768	710.44946470959	242
6	1771	710.80859634752	243
6	1774	714.292605242378	244
6	1775	716.705889638404	245
6	1776	716.734980300405	246
6	1777	717.276700188659	247
6	1780	717.553284119572	248
6	1807	732.893933301268	249
6	1808	733.026105829719	250
6	1815	736.192887728492	251
6	1818	736.474758600999	252
6	1819	737.07760530583	253
6	1832	742.853625039706	254
6	1843	747.106770732434	255
6	1850	751.806617414778	256
6	1871	760.353729884836	257
6	1872	760.866842597049	258
6	1883	766.761733762239	259
6	1884	767.065183211413	260
6	1885	767.779724470769	261
6	1886	768.278026401932	262
6	1895	770.514457312993	263
6	1902	775.019012043544	264
6	1917	782.530582804618	265
6	1920	783.009026423672	266
6	1925	785.07639837826	267
6	1928	787.000027633426	268
6	1929	787.040672966634	269
6	1934	788.706228211943	270
6	1939	790.152334447787	271
6	1940	790.734283116516	272
6	1945	797.478762137136	273
6	1948	798.81945136521	274
6	1957	804.059519049031	275
6	1966	806.817149715031	276
6	1971	811.004674497002	277
6	1978	813.201006112773	278
6	1989	820.254480911173	279
6	1990	820.76587909711	280
6	2001	826.556285956474	281
6	2002	827.422774969159	282
6	2003	828.780444650705	283
6	2006	830.732281312419	284
6	2017	834.414986849843	285
6	2018	835.511895525809	286
6	2021	838.610209008658	287
6	2026	839.325482709872	288
6	2027	840.253565318819	289
6	2030	843.986130625771	290
6	2041	845.39611684958	291
6	2048	847.668460714918	292
6	2059	852.981730893648	293
6	2064	855.585597433318	294
6	2067	857.99105170612	295
6	2070	859.197235260018	296
6	2071	861.163454130711	297
6	2086	866.997799124253	298
6	2095	871.744893330537	299
6	2102	874.773619533042	300
6	2119	884.255541835678	301
6	2120	884.739862554036	302
6	2121	884.863866517798	303
6	2124	887.698923997617	304
6	2137	891.567203594979	305
6	2140	895.073291248877	306
6	2161	901.513368650389	307
6	2164	903.852983846483	308
6	2175	906.858696600598	309
6	2184	910.953370702027	310
6	2189	913.019810057305	311
6	2192	913.59195700049	312
6	2193	914.648830512375	313
6	2194	914.848019310431	314
6	2221	924.568340870131	315
6	2226	926.477916714743	316
6	2227	926.814621547365	317
6	2242	931.012919403916	318
6	2243	931.614237927713	319
6	2246	934.247442887028	320
6	2255	938.325963287351	321
6	2274	942.907037598167	322
6	2283	945.055461951327	323
6	2286	949.116546122903	324
6	2289	949.375775774905	325
6	2294	951.07014903961	326
6	2325	961.341489106382	327
6	2326	961.756247272443	328
6	2331	964.704896217014	329
6	2340	966.689109715935	330
6	2357	971.308271446703	331
6	2368	975.301333278572	332
6	2369	975.319699424407	333
6	2374	977.107527478333	334
6	2379	978.607953788833	335
6	2380	979.062455393169	336
6	2381	979.516459234004	337
6	2388	983.069286909921	338
6	2389	983.641243964799	339
6	2402	987.572385533328	340
6	2409	988.928173329149	341
6	2412	989.863663023547	342
6	2415	991.609237343719	343
6	2426	994.993051194478	344
6	2429	996.671015727165	345
6	2436	999.195042897482	346
7	2	1.102696715289	0
7	11	4.022497151311	2.469116283013
7	14	5.505965634257	3.806028661853
7	21	6.714438023207	3.192906650869
7	68	23.175100703924	18.691240734249
7	71	27.117023634349	20.724469751383
7	72	27.674695876556	21.212774636884
7	79	29.579825887595	22.878950364628
7	96	36.422146099955	28.57736645544
7	103	40.236079488688	32.14490640076
7	108	41.684080585064	33.044249899217
7	115	44.688524138319	35.44197888764
7	122	47.742929603974	38.067040298816
7	143	53.194482151246	43.512943782711
7	144	54.200924402631	42.670197755256
7	159	59.785515669599	47.820069269817
7	172	63.924449323643	51.792924718154
7	183	65.951546139493	53.759659102845
7	188	67.757213502513	55.376299648107
7	189	69.355419339807	55.206402281243
7	206	75.718874950183	60.00154682697
7	207	77.995877003422	61.722767036886
7	230	88.203459355785	70.577157673108
7	231	88.498055699438	70.385789241655
7	234	89.882061285097	71.184783684058
7	237	89.935096244623	70.130452116936
7	256	96.111272126554	74.480972476412
7	261	98.221620429918	76.34109019357
7	264	98.732627307109	75.56588664162
7	279	105.444967018055	80.248325584787
7	284	109.475753608149	81.628762532654
7	291	113.778066322969	85.23353998228
7	308	117.531143782731	88.659653476557
7	315	119.312683783238	89.269378350051
7	322	121.343556701272	90.156832505196
7	335	125.513050127714	94.020840043364
7	342	130.879757799368	98.91752507618
7	345	131.503247685113	98.794672683315
7	348	131.740201782535	98.342054908968
7	365	137.333491422407	103.84980820019
7	366	138.711605664102	101.55284843958
7	377	144.25878014871	106.99516308161
7	378	145.072869259884	107.44178373071
7	379	145.366384849072	104.91883024953
7	386	147.665460889697	106.8643499542
7	389	148.7497270151	106.72661194104
7	392	150.437102456126	108.08624212192
7	393	151.57622503906	106.16680806549
7	394	151.862002944965	105.52662710959
7	395	152.479571555907	105.29337330242
7	400	155.79997586711	107.83656533432
7	405	160.851258961276	112.5441235629
7	408	160.884913073637	112.22221034991
7	411	162.287144592977	113.2396307313
7	418	164.849687830753	114.7220725863
7	419	164.933178330432	114.65415237588
7	426	166.687079965974	116.36405638627
7	437	171.868951925761	119.83896472571
7	446	181.18032219455	129.02547876836
7	447	181.471512821053	127.05852139856
7	448	181.954984081332	126.66419328455
7	463	187.383591742909	131.53604933727
7	464	188.029250600404	131.72607230244
7	475	192.452438303295	134.56398078603
7	496	198.561419540789	139.24374937103
7	501	199.86366201508	139.6283518963
7	502	200.071860564899	138.40614080702
7	509	203.138824156855	140.69879405304
7	514	204.84590525188	142.3208438018
7	517	205.89791576483	143.10576170301
7	520	206.57289497493	142.94637138369
7	539	212.449028718948	147.79131804065
7	548	216.416102079919	151.09721226932
7	549	217.137646147777	151.76175417008
[...]
7	1375	542.951845623432	347.63723130769
7	1380	545.108328695505	349.6978379114
7	1383	546.68790617703	350.02204624921
7	1384	547.192564576703	349.81907135479
7	1385	547.46303494921	349.94159067985
7	1390	549.381652314377	350.89165750779
7	1395	550.683652303583	351.93787031248
7	1404	552.483491283585	353.50401921378
7	1429	558.884044181371	358.65193039136
7	1446	565.881783632162	365.53606924007
7	1453	571.447599457161	368.84467019923
7	1466	581.37349429582	377.01721254626
7	1471	583.341666287791	378.95336723686
7	1490	594.376074008991	388.10900461458
7	1509	600.781722885847	392.0204735536
7	1514	601.796621420133	392.95508514796
7	1517	605.454597073406	395.7474886209
7	1540	615.146140970653	404.90193342759
7	1543	616.781835228564	404.9826177558
7	1546	618.349354717404	406.40920974005
7	1555	621.458994450487	409.32663235878
7	1560	625.719334594396	413.31621138497
7	1561	625.927835936652	412.29779709818
7	1576	631.289602511267	417.62837543464
7	1585	634.180546959891	419.13709540573
7	1598	640.636841772023	421.69965871378
7	1605	642.060210632602	422.4400848556
7	1662	659.611811511028	439.11767795713
7	1663	659.827532711046	437.62893075481
7	1666	661.281772959092	438.2055777075
7	1667	662.141183352373	438.89674228297
7	1672	664.897532391735	441.60123064127
7	1673	665.762227955046	441.8285032832
7	1678	666.248503786124	440.20877870584
7	1697	676.103228072654	449.46469647014
7	1706	678.455164883362	451.43882343005
7	1715	680.353657168787	452.14029776943
7	1716	681.77378572551	450.83750338557
7	1717	682.415033634272	450.1358024403
7	1718	682.417426183227	447.74938049275
7	1719	682.834638686386	446.0094960775
7	1724	686.20768884145	445.22450013978
7	1729	687.200158961977	446.00583144219
7	1730	688.300542512758	445.65794222691
7	1731	688.78250723066	445.75774478853
7	1732	690.584482856515	447.35490267855
7	1739	692.562378952563	448.91442945982
7	1740	692.800830546726	448.02213312844
7	1755	699.125707638375	454.03851761689
7	1758	701.578981321712	456.41732083935
7	1759	703.180856324899	456.72505677448
7	1762	704.106119732599	457.00107093752
7	1763	706.309334247854	458.54585953428
7	1764	707.068400068603	458.7959582015
7	1767	710.239299347367	461.8905836541
7	1768	710.44946470959	461.11605283603
7	1771	710.80859634752	461.05811282594
7	1774	714.292605242378	464.3459441973
7	1775	716.705889638404	465.8938215616
7	1776	716.734980300405	465.58287483612
7	1777	717.276700188659	465.30983641253
7	1780	717.553284119572	463.39747628301
7	1807	732.893933301268	478.67229973523
7	1808	733.026105829719	478.57076482857
7	1815	736.192887728492	481.05658340053
7	1818	736.474758600999	480.98254992068
7	1819	737.07760530583	477.73353795262
7	1832	742.853625039706	483.50571896217
7	1843	747.106770732434	485.9620859927
7	1850	751.806617414778	490.65110870714
7	1871	760.353729884836	498.52422048235
7	1872	760.866842597049	498.3313117333
7	1883	766.761733762239	503.97540957769
7	1884	767.065183211413	502.88836337838
7	1885	767.779724470769	501.47735607341
7	1886	768.278026401932	500.22304115812
7	1895	770.514457312993	502.03981359193
7	1902	775.019012043544	505.05155296598
7	1917	782.530582804618	508.48259018306
7	1920	783.009026423672	506.2137343372
7	1925	785.07639837826	507.6123232182
7	1928	787.000027633426	509.37921857996
7	1929	787.040672966634	507.85295817667
7	1934	788.706228211943	508.87796957885
7	1939	790.152334447787	507.06337992016
7	1940	790.734283116516	507.31681679187
7	1945	797.478762137136	513.88607449337
7	1948	798.81945136521	514.90584815118
7	1957	804.059519049031	520.13217027876
7	1966	806.817149715031	522.21927971263
7	1971	811.004674497002	525.38685056434
7	1978	813.201006112773	527.24417278203
7	1989	820.254480911173	530.69913279144
7	1990	820.76587909711	529.30477645981
7	2001	826.556285956474	534.99822296318
7	2002	827.422774969159	534.94528555733
7	2003	828.780444650705	536.12759322796
7	2006	830.732281312419	537.80940607329
7	2017	834.414986849843	541.46569370286
7	2018	835.511895525809	542.53283986413
7	2021	838.610209008658	543.94823942064
7	2026	839.325482709872	544.11735950594
7	2027	840.253565318819	544.06724426906
7	2030	843.986130625771	546.91011685924
7	2041	845.39611684958	547.27376628527
7	2048	847.668460714918	548.83420797586
7	2059	852.981730893648	552.13950084585
7	2064	855.585597433318	553.49166832662
7	2067	857.99105170612	555.73684579101
7	2070	859.197235260018	556.67966229958
7	2071	861.163454130711	558.62832296531
7	2086	866.997799124253	564.09010439595
7	2095	871.744893330537	567.64823696079
7	2102	874.773619533042	569.46895463591
7	2119	884.255541835678	574.43617966177
7	2120	884.739862554036	574.42026550703
7	2121	884.863866517798	573.85274127163
7	2124	887.698923997617	574.87801806864
7	2137	891.567203594979	578.23909486676
7	2140	895.073291248877	580.04509901134
7	2161	901.513368650389	583.31884366972
7	2164	903.852983846483	585.13586757426
7	2175	906.858696600598	587.72964705079
7	2184	910.953370702027	591.58195362293
7	2189	913.019810057305	593.33759272133
7	2192	913.59195700049	593.79889407864
7	2193	914.648830512375	594.81307547001
7	2194	914.848019310431	594.83189771346
7	2221	924.568340870131	604.42650567251
7	2226	926.477916714743	604.95111963958
7	2227	926.814621547365	602.83596846404
7	2242	931.012919403916	605.12337309752
7	2243	931.614237927713	605.6284183549
7	2246	934.247442887028	607.44891401709
7	2255	938.325963287351	611.07536079678
7	2274	942.907037598167	614.64485065592
7	2283	945.055461951327	616.36700665383
7	2286	949.116546122903	620.13289362632
7	2289	949.375775774905	620.34940448708
7	2294	951.07014903961	620.27850160789
7	2325	961.341489106382	630.44094589201
7	2326	961.756247272443	630.43937524574
7	2331	964.704896217014	633.19226857436
7	2340	966.689109715935	634.53674186305
7	2357	971.308271446703	638.97334463997
7	2368	975.301333278572	642.82968539938
7	2369	975.319699424407	641.05405574325
7	2374	977.107527478333	641.70432060356
7	2379	978.607953788833	638.47540325194
7	2380	979.062455393169	638.62789621635
7	2381	979.516459234004	635.87415435428
7	2388	983.069286909921	638.98209556689
7	2389	983.641243964799	639.19819122023
7	2402	987.572385533328	639.67888105763
7	2409	988.928173329149	640.4919706062
7	2412	989.863663023547	640.95603208175
7	2415	991.609237343719	639.60620939858
7	2426	994.993051194478	640.8492299401
7	2429	996.671015727165	641.73678710765
7	2436	999.195042897482	641.32111743833
8	11	4.022497151311	2.919800436022
8	14	5.505965634257	3.952584765959
8	21	6.714438023207	5.014501050803
8	68	23.175100703924	19.653569331586
8	71	27.117023634349	22.633163664674
8	72	27.674695876556	21.28214199359
8	79	29.579825887595	23.117904647923
8	96	36.422146099955	29.721270576988
8	103	40.236079488688	32.391299844173
8	108	41.684080585064	33.592907497136
8	115	44.688524138319	36.048693452472
8	122	47.742929603974	38.496384353295
8	143	53.194482151246	43.518592846088
8	144	54.200924402631	44.519386034096
8	159	59.785515669599	48.254789022224
8	172	63.924449323643	51.959002923861
8	183	65.951546139493	53.820021534004
8	188	67.757213502513	55.565326465865
8	189	69.355419339807	56.974505485401
8	206	75.718874950183	61.569857891619
8	207	77.995877003422	62.278548880209
8	230	88.203459355785	71.930349389249
8	231	88.498055699438	70.871754016761
8	234	89.882061285097	71.769794827314
8	237	89.935096244623	71.237818643584
8	256	96.111272126554	76.306627998867
8	261	98.221620429918	76.591320779776
8	264	98.732627307109	76.852097070761
8	279	105.444967018055	82.278226352566
8	284	109.475753608149	84.279112174881
8	291	113.778066322969	85.931075247474
8	308	117.531143782731	88.986617442042
8	315	119.312683783238	90.441193477064
8	322	121.343556701272	91.300251268085
8	335	125.513050127714	94.326325931638
8	342	130.879757799368	99.387547715018
8	345	131.503247685113	99.541014961925
8	348	131.740201782535	99.031626780737
8	365	137.333491422407	103.93534454884
8	366	138.711605664102	105.22792244189
8	377	144.25878014871	107.10002292419
8	378	145.072869259884	107.80925219278
8	379	145.366384849072	107.7352993199
8	386	147.665460889697	107.21790629015
8	389	148.7497270151	107.9486160796
8	392	150.437102456126	108.41398738206
8	393	151.57622503906	109.22536470485
8	394	151.862002944965	106.45258597139
8	395	152.479571555907	106.14419572053
8	400	155.79997586711	108.61377761363
8	405	160.851258961276	112.88784842849
8	408	160.884913073637	112.57777767526
8	411	162.287144592977	113.62444186925
8	418	164.849687830753	115.80217396907
8	419	164.933178330432	114.80556308598
8	426	166.687079965974	116.40805401142
8	437	171.868951925761	121.54592834606
8	446	181.18032219455	129.1503349945
8	447	181.471512821053	129.31666939487
8	448	181.954984081332	127.54199265883
8	463	187.383591742909	132.09280094613
8	464	188.029250600404	132.18170819477
8	475	192.452438303295	136.14926000533
8	496	198.561419540789	140.67296202353
8	501	199.86366201508	140.54599184532
8	502	200.071860564899	139.83655044612
8	509	203.138824156855	141.47310439897
8	514	204.84590525188	142.40587514807
8	517	205.89791576483	143.37285431475
8	520	206.57289497493	143.78074091311
8	539	212.449028718948	148.82250512771
8	548	216.416102079919	151.75839140162
8	549	217.137646147777	151.81875633718
8	550	217.590045694333	152.21415371663
8	557	220.745555017339	155.13548952397
8	558	221.150329663884	155.47221265446
8	559	221.612961848446	154.16581385157
8	576	227.905875302812	158.35616945839
8	579	228.252917129596	157.35455525094
8	586	236.65610141924	163.8168834202
8	609	245.316396745515	172.36985545624
8	620	248.959634135278	174.62863258769
8	641	254.535253361038	179.99402421743
8	646	257.813202614927	178.82218824091
8	647	258.869985029974	179.73234785215
8	662	263.37145605292	184.02501590398
8	665	264.33290376061	184.25869803886
8	666	266.067988945881	185.30829001473
8	669	267.150295447167	185.73040113973
8	674	269.304544385403	185.8334117466
8	677	271.79733778875	187.60660089786
8	680	276.470845586058	191.26703291604
8	693	280.283650350111	192.80908664787
8	706	284.84218179004	197.31079461251
8	751	302.961289332167	214.42191407926
8	754	305.057422283025	215.16716803219
8	767	311.313062273565	221.36679608963
8	774	315.026600008361	224.98873500967
8	777	315.688909412026	225.50466814889
8	778	317.421546982547	227.14991717032
8	781	318.518219570717	227.55740892043
8	800	321.720355048587	230.4212233566
8	801	323.68496232203	232.00917380342
8	804	324.180866071169	228.25515196261
8	821	329.952378563904	233.26033389166
8	822	330.062228646333	231.89592602054
8	833	331.629766748498	232.98566496967
8	834	331.944659228651	232.98285501108
8	841	333.127465064997	233.91294874894
8	842	334.077647047079	234.54069681711
8	845	335.147568019134	235.4823144292
8	848	337.492887079167	234.43816713168
8	849	338.515873138294	234.33319161196
8	850	339.118698847986	233.36962392023
8	855	342.76938958794	236.60397959301
8	864	345.44649458699	232.73550738373
8	865	346.951250603698	233.65723111414
8	866	347.040263935553	233.21216120726
8	871	348.524168758746	234.26762317839
8	874	351.319388513236	237.01608950826
8	875	351.609536685646	235.99734856849
8	890	359.749878777867	243.54674732711
8	895	361.896821266372	245.44730172725
8	902	364.702437046447	247.87786507562
8	905	366.270619167999	248.40367213347
8	910	369.818037972756	250.74929829316
8	913	372.012746157826	252.93851888288
8	920	376.276212384831	256.21947830712
8	921	376.726991270967	256.21752072672
8	930	378.535254147409	257.82411567519
8	951	387.106143634396	265.70566867372
8	970	392.342730342114	270.64703964292
8	975	394.556923826129	270.46495260836
8	978	396.641056537655	271.44697667903
8	983	397.257560067911	271.93598267226
8	986	398.912927897286	269.1633738151
8	987	401.060993499916	269.80766086565
8	1024	411.582562656664	279.8459662853
8	1025	411.736445661867	279.78176793547
8	1026	411.935071048779	279.66550217905
8	1029	412.381090356793	279.98679884719
8	1038	413.010181317227	279.91616760785
8	1041	413.652276052146	280.0402733023
8	1052	415.724065782717	281.05496603184
8	1055	421.43016801675	286.10030198041
8	1068	424.069826034934	287.98714462311
8	1081	428.551387017907	287.94934837025
8	1088	432.178626865427	290.31290385761
8	1091	434.501983466247	291.87662834064
8	1092	434.806295724887	291.43479275002
8	1095	436.157870692817	289.14382089217
8	1106	439.872168326574	292.76811036334
8	1119	443.756160481155	296.12152505238
8	1142	452.135856994263	303.77578903979
8	1155	457.22222247531	308.21348614182
8	1174	460.780679697095	307.7983144052
8	1175	460.789571927993	305.35829392801
8	1178	461.738216451805	305.24123824669
8	1185	463.394777852504	304.6827671648
8	1190	466.464753477874	305.60778728269
8	1191	468.474145349397	306.3918408314
8	1212	478.746443490088	316.30503562955
8	1215	479.201518724351	316.08783625447
8	1220	482.017504201154	318.60349050085
8	1231	483.656964623592	318.52028754783
8	1236	484.802996771205	318.21728449372
8	1241	486.602655106661	318.14985069519
8	1264	502.930246291744	333.90841493785
8	1267	503.746854900976	333.98915117775
8	1268	504.679053973976	333.53149310894
8	1273	505.942421930873	334.6835855921
8	1280	507.900338504969	329.45791878572
8	1285	509.135850342763	330.24427313255
8	1290	513.341181969672	331.34089020302
8	1295	516.967142823036	333.57952844955
8	1306	519.6154887292	334.7716153714
8	1311	520.483499858791	334.7910239074
8	1320	523.899571916754	337.98074500818
8	1321	523.959325297647	336.79162146648
8	1324	526.448581609155	337.97452414525
8	1325	527.548341294262	337.81836856123
8	1336	529.49611960793	337.93993165774
8	1339	530.608334541137	338.17642502139
8	1346	531.412099646382	338.48659321528
8	1349	532.167509975443	339.19267556332
8	1366	538.801561868653	345.72176501461
8	1375	542.951845623432	349.41357942847
8	1380	545.108328695505	349.79371437977
8	1383	546.68790617703	351.27741539293
8	1384	547.192564576703	350.52670464888
8	1385	547.46303494921	350.08954172729
8	1390	549.381652314377	351.86020804502
8	1395	550.683652303583	352.193657497
8	1404	552.483491283585	353.73770929248
8	1429	558.884044181371	359.90457211157
8	1446	565.881783632162	365.64966984215
8	1453	571.447599457161	371.10188506507
8	1466	581.37349429582	378.77056503789
8	1471	583.341666287791	378.98538453823
8	1490	594.376074008991	389.98777495806
8	1509	600.781722885847	394.51465349144
8	1514	601.796621420133	393.03537208788
8	1517	605.454597073406	396.61306080124
8	1540	615.146140970653	405.43903251815
8	1543	616.781835228564	406.53762768551
8	1546	618.349354717404	406.55013724464
8	1555	621.458994450487	409.51884947314
8	1560	625.719334594396	413.58697250269
8	1561	625.927835936652	413.52471272722
8	1576	631.289602511267	417.65956367279
8	1585	634.180546959891	420.51931988327
8	1598	640.636841772023	425.59339021786
8	1605	642.060210632602	423.12302757436
8	1662	659.611811511028	439.99168573403
8	1663	659.827532711046	439.33339915714
8	1666	661.281772959092	439.08317100286
8	1667	662.141183352373	439.06498810078
8	1672	664.897532391735	441.65309132233
8	1673	665.762227955046	442.46592620458
8	1678	666.248503786124	442.31477911428
8	1697	676.103228072654	450.06350299236
8	1706	678.455164883362	451.81663328085
8	1715	680.353657168787	453.33731571548
8	1716	681.77378572551	453.56042632616
8	1717	682.415033634272	451.47875129433
8	1718	682.417426183227	450.13819498925
8	1719	682.834638686386	448.16659299591
8	1724	686.20768884145	449.38254623256
8	1729	687.200158961977	446.21697026031
8	1730	688.300542512758	447.10621499297
8	1731	688.78250723066	446.13990694481
8	1732	690.584482856515	447.55972041438
8	1739	692.562378952563	449.3327987746
8	1740	692.800830546726	449.15288105398
8	1755	699.125707638375	454.34701022009
8	1758	701.578981321712	456.49179130023
8	1759	703.180856324899	458.01919584254
8	1762	704.106119732599	457.65032018218
8	1763	706.309334247854	459.20428545278
8	1764	707.068400068603	459.30492535503
8	1767	710.239299347367	461.96685748026
8	1768	710.44946470959	462.10074901633
8	1771	710.80859634752	461.47518447396
8	1774	714.292605242378	464.54212172079
8	1775	716.705889638404	466.75922859332
8	1776	716.734980300405	465.9229122236
8	1777	717.276700188659	466.12459472437
8	1780	717.553284119572	465.58642034344
8	1807	732.893933301268	478.73812546471
8	1808	733.026105829719	478.80447226368
8	1815	736.192887728492	481.73754672735
8	1818	736.474758600999	481.33845427304
8	1819	737.07760530583	481.58539662551
8	1832	742.853625039706	483.5095576865
8	1843	747.106770732434	487.7588646549
8	1850	751.806617414778	490.66193267505
8	1871	760.353729884836	499.19822117719
8	1872	760.866842597049	499.03733319457
8	1883	766.761733762239	504.22620289849
8	1884	767.065183211413	504.27885902686
8	1885	767.779724470769	503.60290463774
8	1886	768.278026401932	501.97565800458
8	1895	770.514457312993	502.45947206918
8	1902	775.019012043544	506.54436832248
8	1917	782.530582804618	512.56312372705
8	1920	783.009026423672	508.96103380211
8	1925	785.07639837826	508.28110629178
8	1928	787.000027633426	509.53595247336
8	1929	787.040672966634	509.41986391317
8	1934	788.706228211943	509.51851342198
8	1939	790.152334447787	510.3240758147
8	1940	790.734283116516	507.64532858888
8	1945	797.478762137136	514.06129581249
8	1948	798.81945136521	515.22676372144
8	1957	804.059519049031	520.145915835
8	1966	806.817149715031	522.88980094476
8	1971	811.004674497002	526.4068044946
8	1978	813.201006112773	527.58318218011
8	1989	820.254480911173	534.29764758043
8	1990	820.76587909711	531.21053097738
8	2001	826.556285956474	535.09518331917
8	2002	827.422774969159	535.86471197587
8	2003	828.780444650705	536.30295523888
8	2006	830.732281312419	538.07942988967
8	2017	834.414986849843	541.49211161071
8	2018	835.511895525809	542.56260237882
8	2021	838.610209008658	545.63115334698
8	2026	839.325482709872	544.66351312186
8	2027	840.253565318819	545.04544211489
8	2030	843.986130625771	547.79980957601
8	2041	845.39611684958	548.32010308305
8	2048	847.668460714918	549.5461101506
8	2059	852.981730893648	554.14747815459
8	2064	855.585597433318	554.74336738552
8	2067	857.99105170612	555.89712259942
8	2070	859.197235260018	556.94302934491
8	2071	861.163454130711	558.64588117027
8	2086	866.997799124253	564.46266795885
8	2095	871.744893330537	568.83719860223
8	2102	874.773619533042	570.67696316329
8	2119	884.255541835678	578.95087693855
8	2120	884.739862554036	574.92050038013
8	2121	884.863866517798	574.54426947079
8	2124	887.698923997617	576.68779875145
8	2137	891.567203594979	578.746297666
8	2140	895.073291248877	581.74518252065
8	2161	901.513368650389	586.48517641285
8	2164	903.852983846483	585.65845886581
8	2175	906.858696600598	588.14158032837
8	2184	910.953370702027	591.82432115222
8	2189	913.019810057305	593.64839297821
8	2192	913.59195700049	593.90973966452
8	2193	914.648830512375	594.85576759052
8	2194	914.848019310431	595.01226426806
8	2221	924.568340870131	604.55221927316
8	2226	926.477916714743	606.33608151712
8	2227	926.814621547365	605.28782447221
8	2242	931.012919403916	607.03426632059
8	2243	931.614237927713	605.72469162132
8	2246	934.247442887028	608.26162331421
8	2255	938.325963287351	611.52743441742
8	2274	942.907037598167	615.6564351076
8	2283	945.055461951327	616.79327500908
8	2286	949.116546122903	620.42809082541
8	2289	949.375775774905	620.39212327833
8	2294	951.07014903961	622.04377775178
8	2325	961.341489106382	630.54984167466
8	2326	961.756247272443	630.85570405807
8	2331	964.704896217014	633.38802419031
8	2340	966.689109715935	635.17648207328
8	2357	971.308271446703	639.15590359382
8	2368	975.301333278572	642.96640647184
8	2369	975.319699424407	642.84805154522
8	2374	977.107527478333	642.84188379718
8	2379	978.607953788833	643.20474691406
8	2380	979.062455393169	638.92990485628
8	2381	979.516459234004	639.08190005719
8	2388	983.069286909921	639.4269820302
8	2389	983.641243964799	639.55405262176
8	2402	987.572385533328	643.12933278876
8	2409	988.928173329149	641.03466885346
8	2412	989.863663023547	641.4274603006
8	2415	991.609237343719	642.70160640192
8	2426	994.993051194478	642.99002324934
8	2429	996.671015727165	642.52719447279
8	2436	999.195042897482	644.26081427796
9	2437	1000	0
10	2437	1000	0.346

