version 2
run Consistency_test_bosses_defeated-168-20221207-16:14:33-7642
attr configname Consistency_test_bosses_defeated
attr datetime 20221207-16:14:33
attr experiment Consistency_test_bosses_defeated
attr inifile omnetpp.ini
attr iterationvars $0=3
attr iterationvarsf 3-
attr measurement $0=3
attr network Network
attr processid 7642
attr repetition 68
attr replication #68
attr resultdir results
attr runnumber 168
attr seedset 68
param *.boss.arrival_mean 1
param *.boss.service_mean 3
param **.minion.arrival_distribution 0
param **.minion.service_distribution 0
param *.minion.arrival_mean 10
param *.minion.service_mean 1
param **.boss.arrival_distribution 0
param **.boss.service_distribution 0

scalar Network.player boss_throughput:mean 0.283
attr source signal_boss_throughput
scalar Network.player boss_throughput:last 0.283
attr source signal_boss_throughput
scalar Network.player boss_defeated_stat:count 284
attr source signal_boss_defeated
scalar Network.player boss_defeated_stat:mean 141.5
attr source signal_boss_defeated
scalar Network.player boss_waiting_time_stat:mean 389.03703164829
attr source signal_boss_waiting_time
scalar Network.player boss_response_time_stat:mean 391.43511249517
attr source signal_boss_response_time
scalar Network.player minion_throughput:mean 0
attr source signal_minion_throughput
scalar Network.player minion_throughput:last 0
attr source signal_minion_throughput
scalar Network.player minion_recovered_stat:count 1
attr source signal_minion_recovered
scalar Network.player minion_recovered_stat:mean 0
attr source signal_minion_recovered
scalar Network.player minion_defeated_stat:count 1
attr source signal_minion_defeated
scalar Network.player minion_defeated_stat:mean 0
attr source signal_minion_defeated
scalar Network.player minion_waiting_time_stat:mean -nan
attr source signal_minion_waiting_time
scalar Network.player minion_response_time_stat:mean -nan
attr source signal_minion_response_time

