file 123835 1670426052                                          
version 2
run Consistency_test_bosses_defeated-67-20221207-16:14:12-7136
attr configname Consistency_test_bosses_defeated
attr datetime 20221207-16:14:12
attr experiment Consistency_test_bosses_defeated
attr inifile omnetpp.ini
attr iterationvars $0=2
attr iterationvarsf 2-
attr measurement $0=2
attr network Network
attr processid 7136
attr repetition 67
attr replication #67
attr resultdir results
attr runnumber 67
attr seedset 67
param *.boss.arrival_mean 1
param *.boss.service_mean 2
param **.minion.arrival_distribution 0
param **.minion.service_distribution 0
param *.minion.arrival_mean 10
param *.minion.service_mean 1
param **.boss.arrival_distribution 0
param **.boss.service_distribution 0

vector 0 Network.player minion_jobs_number_stat:vector ETV
attr source signal_minion_jobs_number
vector 1 Network.player minion_jobs_queue_number_stat:vector ETV
attr source signal_minion_jobs_queue_number
vector 2 Network.player minion_recovered_stat:vector ETV
attr source signal_minion_recovered
vector 3 Network.player minion_defeated_stat:vector ETV
attr source signal_minion_defeated
vector 4 Network.player boss_jobs_number_stat:vector ETV
attr source signal_boss_jobs_number
vector 5 Network.player boss_jobs_queue_number_stat:vector ETV
attr source signal_boss_jobs_queue_number
vector 6 Network.player boss_defeated_stat:vector ETV
attr source signal_boss_defeated
vector 7 Network.player boss_waiting_time_stat:vector ETV
attr source signal_boss_waiting_time
vector 8 Network.player boss_response_time_stat:vector ETV
attr source signal_boss_response_time
vector 9 Network.player minion_waiting_time_stat:vector ETV
attr source signal_minion_waiting_time
vector 10 Network.player minion_response_time_stat:vector ETV
attr source signal_minion_response_time
vector 11 Network.player minion_throughput:vector ETV
attr source signal_minion_throughput
vector 12 Network.player boss_throughput:vector ETV
attr source signal_boss_throughput
0	1951 2707 0 2617 0 968.949392834304 104 0 102 5254 358956
1	4658 2726 0 2617 0 968.949392834304 105 0 101 5151 348551
2	7384 30 0 16 0 7.755644428749 2 0 1 1 1
3	7414 29 0 9 0 4.097804561912 2 0 1 1 1
4	7443 27756 0 2706 0 998.670462598451 1022 0 565 292043 110296651
5	35199 40197 0 2706 0 998.670462598451 1479 0 564 423278 159784078
6	75396 12422 0 2704 0 998.553410896873 458 0 457 104653 31919165
7	87818 17937 2 2704 1.184578575799 998.553410896873 458 0 567.85960784545 132131.32843477 50734569.044626
8	105755 17950 7 2704 3.221694801737 998.553410896873 457 0.823896365026 569.35584638154 132563.87319375 50988587.153722
9	123705 56 8 14 3.798969492995 7.327957070361 2 0 2.185792583934 2.185792583934 4.7776892199809
10	123761 35 9 9 4.097804561912 4.097804561912 1 2.484627652851 2.484627652851 2.484627652851 6.1733745733119
11	123796 19 2707 2707 1000 1000 1 0.001 0.001 0.001 1e-06
12	123815 19 2707 2707 1000 1000 1 0.457 0.457 0.457 0.208849

