file 104875 1670426076                                          
version 2
run Consistency_test_bosses_defeated-184-20221207-16:14:36-7722
attr configname Consistency_test_bosses_defeated
attr datetime 20221207-16:14:36
attr experiment Consistency_test_bosses_defeated
attr inifile omnetpp.ini
attr iterationvars $0=3
attr iterationvarsf 3-
attr measurement $0=3
attr network Network
attr processid 7722
attr repetition 84
attr replication #84
attr resultdir results
attr runnumber 184
attr seedset 84
param *.boss.arrival_mean 1
param *.boss.service_mean 3
param **.minion.arrival_distribution 0
param **.minion.service_distribution 0
param *.minion.arrival_mean 10
param *.minion.service_mean 1
param **.boss.arrival_distribution 0
param **.boss.service_distribution 0

vector 0 Network.player minion_jobs_number_stat:vector ETV
attr source signal_minion_jobs_number
vector 1 Network.player minion_jobs_queue_number_stat:vector ETV
attr source signal_minion_jobs_queue_number
vector 2 Network.player minion_recovered_stat:vector ETV
attr source signal_minion_recovered
vector 3 Network.player minion_defeated_stat:vector ETV
attr source signal_minion_defeated
vector 4 Network.player boss_jobs_number_stat:vector ETV
attr source signal_boss_jobs_number
vector 5 Network.player boss_jobs_queue_number_stat:vector ETV
attr source signal_boss_jobs_queue_number
vector 6 Network.player boss_defeated_stat:vector ETV
attr source signal_boss_defeated
vector 7 Network.player boss_waiting_time_stat:vector ETV
attr source signal_boss_waiting_time
vector 8 Network.player boss_response_time_stat:vector ETV
attr source signal_boss_response_time
vector 9 Network.player minion_throughput:vector ETV
attr source signal_minion_throughput
vector 10 Network.player boss_throughput:vector ETV
attr source signal_boss_throughput
0	1751 2276 0 2508 0 998.851036231442 87 0 86 3741 215731
1	4027 2275 0 2508 0 998.851036231442 87 0 85 3655 208335
2	6302 8 0 0 0 0 1 0 0 0 0
3	6310 8 0 0 0 0 1 0 0 0 0
4	6318 27250 0 2506 0 998.747540186984 1003 0 670 331197 146066261
5	33568 36261 0 2506 0 998.747540186984 1335 0 669 436275 190779743
6	69829 8972 0 2490 0 993.049899297009 333 0 332 55278 12253290
7	78801 13017 2 2490 0.125036166285 993.049899297009 333 0 655.42703101897 104559.61316198 43995026.972163
8	91818 13023 9 2490 3.171276025544 993.049899297009 332 2.801887107632 656.36704577159 104898.56824674 44205005.635113
9	104841 14 2509 2509 1000 1000 1 0 0 0 0
10	104855 19 2509 2509 1000 1000 1 0.332 0.332 0.332 0.110224

