file 44585 1677940364                                           
version 2
run analysis_2kr_easy_game_mode-112-20230304-15:32:44-20769
attr configname analysis_2kr_easy_game_mode
attr datetime 20230304-15:32:44
attr experiment analysis_2kr_easy_game_mode
attr inifile omnetpp.ini
attr iterationvars "$0=30, $1=5, $2=15, $3=3.5, $4=0"
attr iterationvarsf 30,5,15,3.5,0-
attr measurement "$0=30, $1=5, $2=15, $3=3.5, $4=0"
attr network Network
attr processid 20769
attr repetition 2
attr replication #2
attr resultdir results
attr runnumber 112
attr seedset 2
param *.boss.arrival_mean 30
param *.boss.service_mean 5
param *.minion.arrival_mean 15
param *.minion.service_mean 3.5
param *.player.recover_rate_x 0
param **.minion.arrival_distribution 0
param **.minion.service_distribution 0
param **.boss.arrival_distribution 0
param **.boss.service_distribution 0

vector 0 Network.player minion_jobs_number_stat:vector ETV
attr source signal_minion_jobs_number
vector 1 Network.player minion_jobs_queue_number_stat:vector ETV
attr source signal_minion_jobs_queue_number
vector 2 Network.player minion_waiting_time_stat:vector ETV
attr source signal_minion_waiting_time
vector 3 Network.player minion_defeated_stat:vector ETV
attr source signal_minion_defeated
vector 4 Network.player minion_response_time_stat:vector ETV
attr source signal_minion_response_time
vector 5 Network.player boss_jobs_number_stat:vector ETV
attr source signal_boss_jobs_number
vector 6 Network.player boss_jobs_queue_number_stat:vector ETV
attr source signal_boss_jobs_queue_number
vector 7 Network.player boss_waiting_time_stat:vector ETV
attr source signal_boss_waiting_time
vector 8 Network.player boss_defeated_stat:vector ETV
attr source signal_boss_defeated
vector 9 Network.player boss_response_time_stat:vector ETV
attr source signal_boss_response_time
vector 10 Network.player minion_recovered_stat:vector ETV
attr source signal_minion_recovered
vector 11 Network.player minion_throughput:vector ETV
attr source signal_minion_throughput
vector 12 Network.player boss_throughput:vector ETV
attr source signal_boss_throughput
0	2044 4016 110 821 350.953061253699 2491.720255473208 157 1 8 286 792
1	6060 8025 110 822 350.953061253699 2492.125413415547 314 0 7 258 754
2	14085 5830 110 821 350.953061253699 2491.720255473208 176 0 48.535219552065 1144.2887438946 27406.100592449
3	19915 4246 111 822 358.332207196476 2492.125413415547 157 23 179 15857 1924035
4	24161 6081 111 822 358.332207196476 2492.125413415547 157 0.016010022234 55.113466591174 1557.556156854 36753.418359531
5	30242 2074 113 812 360.563777950559 2450.57152504087 81 1 4 99 143
6	32316 4150 113 813 360.563777950559 2462.362030621956 162 0 3 36 52
7	36466 2269 113 812 360.563777950559 2450.57152504087 81 0 19.190853779514 85.518409264816 782.59062539085
8	38735 2157 114 813 363.904798312067 2462.362030621956 81 15 95 4455 289305
9	40892 3137 114 813 363.904798312067 2462.362030621956 81 0.030088770256 24.870977522702 499.40402122981 5915.8791368584
10	44029 518 118 745 369.823437496583 2220.089581922891 19 2 20 209 2869
11	44547 19 823 823 2500 2500 1 0.0716 0.0716 0.0716 0.00512656
12	44566 18 823 823 2500 2500 1 0.038 0.038 0.038 0.001444

